MODEL 1
REMARK VINA RESULT:      -7.9      0.000      0.000
REMARK  Name = 
REMARK  9 active torsions:
REMARK  status: ('A' for Active; 'I' for Inactive)
REMARK    1  A    between atoms: O_2  and  C_3
REMARK    2  A    between atoms: C_5  and  S_6
REMARK    3  A    between atoms: C_10  and  C_11
REMARK    4  A    between atoms: N_13  and  C_14
REMARK    5  A    between atoms: C_16  and  C_23
REMARK    6  A    between atoms: N_25  and  C_26
REMARK    7  A    between atoms: C_26  and  C_27
REMARK    8  A    between atoms: C_26  and  C_33
REMARK    9  A    between atoms: C_27  and  C_28
REMARK                            x       y       z     vdW  Elec       q    Type
REMARK                         _______ _______ _______ _____ _____    ______ ____
ROOT
ATOM     14  C   UNL     1      -4.588   1.131  24.755  0.00  0.00    +0.131 C 
ATOM     15  C   UNL     1      -3.927   1.615  24.658  0.00  0.00    +0.064 C 
ATOM     16  C   UNL     1      -3.968   2.415  24.859  0.00  0.00    +0.200 C 
ATOM     17  O   UNL     1      -3.186   2.372  24.600  0.00  0.00    -0.216 OA
ATOM     18  C   UNL     1      -4.670   2.730  25.156  0.00  0.00    +0.075 C 
ATOM     19  C   UNL     1      -5.331   2.246  25.253  0.00  0.00    +0.187 C 
ATOM     20  O   UNL     1      -6.033   2.561  25.550  0.00  0.00    -0.220 OA
ATOM     21  C   UNL     1      -5.290   1.448  25.053  0.00  0.00    +0.202 C 
ATOM     22  O   UNL     1      -5.952   0.963  25.150  0.00  0.00    -0.219 OA
ENDROOT
BRANCH  14  13
ATOM     11  C   UNL     1      -3.968  -0.149  24.891  0.00  0.00    +0.268 C 
ATOM     12  O   UNL     1      -3.427   0.169  25.427  0.00  0.00    -0.268 OA
ATOM     13  N   UNL     1      -4.548   0.332  24.556  0.00  0.00    -0.201 NA
BRANCH  11  10
ATOM      3  C   UNL     1      -3.699  -1.504  25.255  0.00  0.00    +0.144 A 
ATOM      4  C   UNL     1      -3.660  -2.303  25.055  0.00  0.00    +0.043 A 
ATOM      5  C   UNL     1      -3.849  -2.547  24.290  0.00  0.00    +0.028 A 
ATOM      8  C   UNL     1      -4.078  -1.991  23.725  0.00  0.00    +0.006 A 
ATOM      9  C   UNL     1      -4.118  -1.191  23.925  0.00  0.00    +0.008 A 
ATOM     10  C   UNL     1      -3.928  -0.948  24.690  0.00  0.00    +0.089 A 
BRANCH   3   2
ATOM      1  C   UNL     1      -3.286  -1.818  26.587  0.00  0.00    +0.252 C 
ATOM      2  O   UNL     1      -3.510  -1.261  26.020  0.00  0.00    -0.471 OA
ENDBRANCH   3   2
BRANCH   5   6
ATOM      6  S   UNL     1      -3.810  -3.346  24.090  0.00  0.00    -0.113 S 
ATOM      7  C   UNL     1      -3.223  -3.615  23.576  0.00  0.00    +0.074 C 
ENDBRANCH   5   6
ENDBRANCH  11  10
ENDBRANCH  14  13
BRANCH  16  23
ATOM     23  C   UNL     1      -3.738   3.199  24.969  0.00  0.00    +0.269 C 
ATOM     24  O   UNL     1      -4.160   3.808  24.607  0.00  0.00    -0.271 OA
ATOM     25  N   UNL     1      -3.084   3.374  25.442  0.00  0.00    -0.195 NA
BRANCH  25  26
ATOM     26  C   UNL     1      -2.854   4.159  25.552  0.00  0.00    +0.179 C 
BRANCH  26  33
ATOM     33  C   UNL     1      -3.039   4.549  26.255  0.00  0.00    +0.281 C 
ATOM     34  N   UNL     1      -3.335   5.319  26.234  0.00  0.00    -0.086 NA
ATOM     35  O   UNL     1      -2.929   4.169  26.979  0.00  0.00    -0.270 OA
ENDBRANCH  26  33
BRANCH  26  27
ATOM     27  C   UNL     1      -2.438   4.553  24.959  0.00  0.00    +0.064 C 
BRANCH  27  28
ATOM     28  C   UNL     1      -1.614   4.540  24.955  0.00  0.00    +0.010 A 
ATOM     29  C   UNL     1      -1.138   3.892  25.144  0.00  0.00    +0.003 A 
ATOM     30  C   UNL     1      -0.349   4.124  25.067  0.00  0.00    +0.007 A 
ATOM     31  C   UNL     1      -0.338   4.915  24.832  0.00  0.00    +0.035 A 
ATOM     32  S   UNL     1      -1.119   5.172  24.762  0.00  0.00    -0.091 S 
ENDBRANCH  27  28
ENDBRANCH  26  27
ENDBRANCH  25  26
ENDBRANCH  16  23
TORSDOF 9
ENDMDL
MODEL 2
REMARK VINA RESULT:      -7.6      3.162      4.723
REMARK  Name = 
REMARK  9 active torsions:
REMARK  status: ('A' for Active; 'I' for Inactive)
REMARK    1  A    between atoms: O_2  and  C_3
REMARK    2  A    between atoms: C_5  and  S_6
REMARK    3  A    between atoms: C_10  and  C_11
REMARK    4  A    between atoms: N_13  and  C_14
REMARK    5  A    between atoms: C_16  and  C_23
REMARK    6  A    between atoms: N_25  and  C_26
REMARK    7  A    between atoms: C_26  and  C_27
REMARK    8  A    between atoms: C_26  and  C_33
REMARK    9  A    between atoms: C_27  and  C_28
REMARK                            x       y       z     vdW  Elec       q    Type
REMARK                         _______ _______ _______ _____ _____    ______ ____
ROOT
ATOM     14  C   UNL     1      -0.284   2.382  24.787  0.00  0.00    +0.131 C 
ATOM     15  C   UNL     1      -0.936   2.617  24.341  0.00  0.00    +0.064 C 
ATOM     16  C   UNL     1      -1.579   2.980  24.712  0.00  0.00    +0.200 C 
ATOM     17  O   UNL     1      -1.845   2.979  23.931  0.00  0.00    -0.216 OA
ATOM     18  C   UNL     1      -1.568   3.106  25.527  0.00  0.00    +0.075 C 
ATOM     19  C   UNL     1      -0.915   2.870  25.972  0.00  0.00    +0.187 C 
ATOM     20  O   UNL     1      -0.905   2.996  26.787  0.00  0.00    -0.220 OA
ATOM     21  C   UNL     1      -0.273   2.508  25.602  0.00  0.00    +0.202 C 
ATOM     22  O   UNL     1       0.381   2.272  26.048  0.00  0.00    -0.219 OA
ENDROOT
BRANCH  14  13
ATOM     11  C   UNL     1       0.248   1.331  23.978  0.00  0.00    +0.268 C 
ATOM     12  O   UNL     1      -0.505   1.004  23.906  0.00  0.00    -0.268 OA
ATOM     13  N   UNL     1       0.359   2.019  24.418  0.00  0.00    -0.201 NA
BRANCH  11  10
ATOM      3  C   UNL     1       0.863   0.166  23.422  0.00  0.00    +0.144 A 
ATOM      4  C   UNL     1       1.505  -0.196  23.054  0.00  0.00    +0.043 A 
ATOM      5  C   UNL     1       2.179   0.245  22.872  0.00  0.00    +0.028 A 
ATOM      8  C   UNL     1       2.208   1.048  23.058  0.00  0.00    +0.006 A 
ATOM      9  C   UNL     1       1.565   1.411  23.427  0.00  0.00    +0.008 A 
ATOM     10  C   UNL     1       0.892   0.969  23.609  0.00  0.00    +0.089 A 
BRANCH   3   2
ATOM      1  C   UNL     1       0.258  -1.080  23.772  0.00  0.00    +0.252 C 
ATOM      2  O   UNL     1       0.190  -0.275  23.604  0.00  0.00    -0.471 OA
ENDBRANCH   3   2
BRANCH   5   6
ATOM      6  S   UNL     1       2.822  -0.116  22.503  0.00  0.00    -0.113 S 
ATOM      7  C   UNL     1       3.509   0.316  22.353  0.00  0.00    +0.074 C 
ENDBRANCH   5   6
ENDBRANCH  11  10
ENDBRANCH  14  13
BRANCH  16  23
ATOM     23  C   UNL     1      -2.313   3.342  24.810  0.00  0.00    +0.269 C 
ATOM     24  O   UNL     1      -2.364   4.083  25.170  0.00  0.00    -0.271 OA
ATOM     25  N   UNL     1      -2.999   2.962  24.549  0.00  0.00    -0.195 NA
BRANCH  25  26
ATOM     26  C   UNL     1      -3.733   3.325  24.648  0.00  0.00    +0.179 C 
BRANCH  26  33
ATOM     33  C   UNL     1      -4.034   3.817  24.059  0.00  0.00    +0.281 C 
ATOM     34  N   UNL     1      -4.266   4.587  24.242  0.00  0.00    -0.086 NA
ATOM     35  O   UNL     1      -4.103   3.538  23.284  0.00  0.00    -0.270 OA
ENDBRANCH  26  33
BRANCH  26  27
ATOM     27  C   UNL     1      -4.168   3.194  25.337  0.00  0.00    +0.064 C 
BRANCH  27  28
ATOM     28  C   UNL     1      -4.725   2.588  25.364  0.00  0.00    +0.010 A 
ATOM     29  C   UNL     1      -4.629   1.827  25.060  0.00  0.00    +0.003 A 
ATOM     30  C   UNL     1      -5.323   1.403  25.208  0.00  0.00    +0.007 A 
ATOM     31  C   UNL     1      -5.847   1.904  25.604  0.00  0.00    +0.035 A 
ATOM     32  S   UNL     1      -5.478   2.635  25.701  0.00  0.00    -0.091 S 
ENDBRANCH  27  28
ENDBRANCH  26  27
ENDBRANCH  25  26
ENDBRANCH  16  23
TORSDOF 9
ENDMDL
MODEL 3
REMARK VINA RESULT:      -7.5      1.378      5.629
REMARK  Name = 
REMARK  9 active torsions:
REMARK  status: ('A' for Active; 'I' for Inactive)
REMARK    1  A    between atoms: O_2  and  C_3
REMARK    2  A    between atoms: C_5  and  S_6
REMARK    3  A    between atoms: C_10  and  C_11
REMARK    4  A    between atoms: N_13  and  C_14
REMARK    5  A    between atoms: C_16  and  C_23
REMARK    6  A    between atoms: N_25  and  C_26
REMARK    7  A    between atoms: C_26  and  C_27
REMARK    8  A    between atoms: C_26  and  C_33
REMARK    9  A    between atoms: C_27  and  C_28
REMARK                            x       y       z     vdW  Elec       q    Type
REMARK                         _______ _______ _______ _____ _____    ______ ____
ROOT
ATOM     14  C   UNL     1      -3.636   1.976  24.793  0.00  0.00    +0.131 C 
ATOM     15  C   UNL     1      -3.244   1.252  24.752  0.00  0.00    +0.064 C 
ATOM     16  C   UNL     1      -3.672   0.548  24.811  0.00  0.00    +0.200 C 
ATOM     17  O   UNL     1      -2.910   0.246  24.721  0.00  0.00    -0.216 OA
ATOM     18  C   UNL     1      -4.490   0.569  24.911  0.00  0.00    +0.075 C 
ATOM     19  C   UNL     1      -4.882   1.294  24.952  0.00  0.00    +0.187 C 
ATOM     20  O   UNL     1      -5.700   1.316  25.052  0.00  0.00    -0.220 OA
ATOM     21  C   UNL     1      -4.455   1.997  24.893  0.00  0.00    +0.202 C 
ATOM     22  O   UNL     1      -4.847   2.723  24.935  0.00  0.00    -0.219 OA
ENDROOT
BRANCH  14  13
ATOM     11  C   UNL     1      -2.543   2.799  25.205  0.00  0.00    +0.268 C 
ATOM     12  O   UNL     1      -2.302   2.215  25.735  0.00  0.00    -0.268 OA
ATOM     13  N   UNL     1      -3.210   2.680  24.735  0.00  0.00    -0.201 NA
BRANCH  11  10
ATOM      3  C   UNL     1      -1.351   3.498  24.841  0.00  0.00    +0.144 A 
ATOM      4  C   UNL     1      -0.925   4.201  24.782  0.00  0.00    +0.043 A 
ATOM      5  C   UNL     1      -1.266   4.912  25.027  0.00  0.00    +0.028 A 
ATOM      8  C   UNL     1      -2.032   4.918  25.332  0.00  0.00    +0.006 A 
ATOM      9  C   UNL     1      -2.458   4.214  25.391  0.00  0.00    +0.008 A 
ATOM     10  C   UNL     1      -2.117   3.504  25.146  0.00  0.00    +0.089 A 
BRANCH   3   2
ATOM      1  C   UNL     1      -0.231   2.777  24.322  0.00  0.00    +0.252 C 
ATOM      2  O   UNL     1      -1.010   2.788  24.596  0.00  0.00    -0.471 OA
ENDBRANCH   3   2
BRANCH   5   6
ATOM      6  S   UNL     1      -0.840   5.616  24.968  0.00  0.00    -0.113 S 
ATOM      7  C   UNL     1      -1.204   6.295  24.671  0.00  0.00    +0.074 C 
ENDBRANCH   5   6
ENDBRANCH  11  10
ENDBRANCH  14  13
BRANCH  16  23
ATOM     23  C   UNL     1      -3.834  -0.260  24.838  0.00  0.00    +0.269 C 
ATOM     24  O   UNL     1      -4.397  -0.551  25.367  0.00  0.00    -0.271 OA
ATOM     25  N   UNL     1      -3.433  -0.779  24.336  0.00  0.00    -0.195 NA
BRANCH  25  26
ATOM     26  C   UNL     1      -3.596  -1.587  24.363  0.00  0.00    +0.179 C 
BRANCH  26  33
ATOM     33  C   UNL     1      -4.151  -1.915  23.849  0.00  0.00    +0.281 C 
ATOM     34  N   UNL     1      -4.671  -2.496  24.117  0.00  0.00    -0.086 NA
ATOM     35  O   UNL     1      -4.186  -1.660  23.064  0.00  0.00    -0.270 OA
ENDBRANCH  26  33
BRANCH  26  27
ATOM     27  C   UNL     1      -3.203  -2.068  24.906  0.00  0.00    +0.064 C 
BRANCH  27  28
ATOM     28  C   UNL     1      -2.434  -2.320  24.752  0.00  0.00    +0.010 A 
ATOM     29  C   UNL     1      -2.190  -2.761  24.098  0.00  0.00    +0.003 A 
ATOM     30  C   UNL     1      -1.377  -2.890  24.166  0.00  0.00    +0.007 A 
ATOM     31  C   UNL     1      -1.119  -2.529  24.861  0.00  0.00    +0.035 A 
ATOM     32  S   UNL     1      -1.772  -2.177  25.223  0.00  0.00    -0.091 S 
ENDBRANCH  27  28
ENDBRANCH  26  27
ENDBRANCH  25  26
ENDBRANCH  16  23
TORSDOF 9
ENDMDL
MODEL 4
REMARK VINA RESULT:      -7.5      3.562      5.869
REMARK  Name = 
REMARK  9 active torsions:
REMARK  status: ('A' for Active; 'I' for Inactive)
REMARK    1  A    between atoms: O_2  and  C_3
REMARK    2  A    between atoms: C_5  and  S_6
REMARK    3  A    between atoms: C_10  and  C_11
REMARK    4  A    between atoms: N_13  and  C_14
REMARK    5  A    between atoms: C_16  and  C_23
REMARK    6  A    between atoms: N_25  and  C_26
REMARK    7  A    between atoms: C_26  and  C_27
REMARK    8  A    between atoms: C_26  and  C_33
REMARK    9  A    between atoms: C_27  and  C_28
REMARK                            x       y       z     vdW  Elec       q    Type
REMARK                         _______ _______ _______ _____ _____    ______ ____
ROOT
ATOM     14  C   UNL     1      -0.171   1.271  24.249  0.00  0.00    +0.131 C 
ATOM     15  C   UNL     1      -0.589   0.601  24.487  0.00  0.00    +0.064 C 
ATOM     16  C   UNL     1      -1.376   0.668  24.725  0.00  0.00    +0.200 C 
ATOM     17  O   UNL     1      -1.267  -0.144  24.818  0.00  0.00    -0.216 OA
ATOM     18  C   UNL     1      -1.746   1.405  24.725  0.00  0.00    +0.075 C 
ATOM     19  C   UNL     1      -1.328   2.076  24.488  0.00  0.00    +0.187 C 
ATOM     20  O   UNL     1      -1.698   2.814  24.488  0.00  0.00    -0.220 OA
ATOM     21  C   UNL     1      -0.542   2.009  24.250  0.00  0.00    +0.202 C 
ATOM     22  O   UNL     1      -0.123   2.680  24.012  0.00  0.00    -0.219 OA
ENDROOT
BRANCH  14  13
ATOM     11  C   UNL     1       0.813   0.730  23.367  0.00  0.00    +0.268 C 
ATOM     12  O   UNL     1       0.225   0.321  22.960  0.00  0.00    -0.268 OA
ATOM     13  N   UNL     1       0.615   1.205  24.011  0.00  0.00    -0.201 NA
BRANCH  11  10
ATOM      3  C   UNL     1       1.807   0.146  22.522  0.00  0.00    +0.144 A 
ATOM      4  C   UNL     1       2.594   0.080  22.284  0.00  0.00    +0.043 A 
ATOM      5  C   UNL     1       3.176   0.534  22.654  0.00  0.00    +0.028 A 
ATOM      8  C   UNL     1       2.970   1.053  23.261  0.00  0.00    +0.006 A 
ATOM      9  C   UNL     1       2.183   1.119  23.499  0.00  0.00    +0.008 A 
ATOM     10  C   UNL     1       1.601   0.665  23.129  0.00  0.00    +0.089 A 
BRANCH   3   2
ATOM      1  C   UNL     1       1.379  -0.658  21.421  0.00  0.00    +0.252 C 
ATOM      2  O   UNL     1       1.226  -0.307  22.152  0.00  0.00    -0.471 OA
ENDBRANCH   3   2
BRANCH   5   6
ATOM      6  S   UNL     1       3.963   0.468  22.417  0.00  0.00    -0.113 S 
ATOM      7  C   UNL     1       4.566   0.468  22.980  0.00  0.00    +0.074 C 
ENDBRANCH   5   6
ENDBRANCH  11  10
ENDBRANCH  14  13
BRANCH  16  23
ATOM     23  C   UNL     1      -2.125   0.453  24.995  0.00  0.00    +0.269 C 
ATOM     24  O   UNL     1      -2.374   0.681  25.748  0.00  0.00    -0.271 OA
ATOM     25  N   UNL     1      -2.626   0.009  24.512  0.00  0.00    -0.195 NA
BRANCH  25  26
ATOM     26  C   UNL     1      -3.375  -0.206  24.783  0.00  0.00    +0.179 C 
BRANCH  26  33
ATOM     33  C   UNL     1      -4.023   0.283  24.638  0.00  0.00    +0.281 C 
ATOM     34  N   UNL     1      -4.528   0.494  25.256  0.00  0.00    -0.086 NA
ATOM     35  O   UNL     1      -4.167   0.563  23.875  0.00  0.00    -0.270 OA
ENDBRANCH  26  33
BRANCH  26  27
ATOM     27  C   UNL     1      -3.476  -0.912  25.198  0.00  0.00    +0.064 C 
BRANCH  27  28
ATOM     28  C   UNL     1      -3.590  -1.618  24.789  0.00  0.00    +0.010 A 
ATOM     29  C   UNL     1      -4.012  -1.709  24.086  0.00  0.00    +0.003 A 
ATOM     30  C   UNL     1      -3.985  -2.506  23.873  0.00  0.00    +0.007 A 
ATOM     31  C   UNL     1      -3.546  -2.908  24.445  0.00  0.00    +0.035 A 
ATOM     32  S   UNL     1      -3.302  -2.359  25.011  0.00  0.00    -0.091 S 
ENDBRANCH  27  28
ENDBRANCH  26  27
ENDBRANCH  25  26
ENDBRANCH  16  23
TORSDOF 9
ENDMDL
MODEL 5
REMARK VINA RESULT:      -7.5      2.249      6.344
REMARK  Name = 
REMARK  9 active torsions:
REMARK  status: ('A' for Active; 'I' for Inactive)
REMARK    1  A    between atoms: O_2  and  C_3
REMARK    2  A    between atoms: C_5  and  S_6
REMARK    3  A    between atoms: C_10  and  C_11
REMARK    4  A    between atoms: N_13  and  C_14
REMARK    5  A    between atoms: C_16  and  C_23
REMARK    6  A    between atoms: N_25  and  C_26
REMARK    7  A    between atoms: C_26  and  C_27
REMARK    8  A    between atoms: C_26  and  C_33
REMARK    9  A    between atoms: C_27  and  C_28
REMARK                            x       y       z     vdW  Elec       q    Type
REMARK                         _______ _______ _______ _____ _____    ______ ____
ROOT
ATOM     14  C   UNL     1      -0.783   1.286  24.951  0.00  0.00    +0.131 C 
ATOM     15  C   UNL     1      -1.320   0.765  25.297  0.00  0.00    +0.064 C 
ATOM     16  C   UNL     1      -1.247  -0.047  25.171  0.00  0.00    +0.200 C 
ATOM     17  O   UNL     1      -1.913  -0.037  25.658  0.00  0.00    -0.216 OA
ATOM     18  C   UNL     1      -0.637  -0.337  24.698  0.00  0.00    +0.075 C 
ATOM     19  C   UNL     1      -0.099   0.184  24.352  0.00  0.00    +0.187 C 
ATOM     20  O   UNL     1       0.511  -0.107  23.880  0.00  0.00    -0.220 OA
ATOM     21  C   UNL     1      -0.172   0.995  24.479  0.00  0.00    +0.202 C 
ATOM     22  O   UNL     1       0.366   1.517  24.132  0.00  0.00    -0.219 OA
ENDROOT
BRANCH  14  13
ATOM     11  C   UNL     1      -1.489   2.512  24.751  0.00  0.00    +0.268 C 
ATOM     12  O   UNL     1      -2.052   2.114  24.298  0.00  0.00    -0.268 OA
ATOM     13  N   UNL     1      -0.855   2.098  25.077  0.00  0.00    -0.201 NA
BRANCH  11  10
ATOM      3  C   UNL     1      -2.290   3.646  25.090  0.00  0.00    +0.144 A 
ATOM      4  C   UNL     1      -2.362   4.458  25.217  0.00  0.00    +0.043 A 
ATOM      5  C   UNL     1      -1.704   4.949  25.131  0.00  0.00    +0.028 A 
ATOM      8  C   UNL     1      -0.975   4.627  24.919  0.00  0.00    +0.006 A 
ATOM      9  C   UNL     1      -0.903   3.815  24.792  0.00  0.00    +0.008 A 
ATOM     10  C   UNL     1      -1.561   3.325  24.878  0.00  0.00    +0.089 A 
BRANCH   3   2
ATOM      1  C   UNL     1      -3.677   3.478  25.389  0.00  0.00    +0.252 C 
ATOM      2  O   UNL     1      -2.948   3.156  25.175  0.00  0.00    -0.471 OA
ENDBRANCH   3   2
BRANCH   5   6
ATOM      6  S   UNL     1      -1.776   5.760  25.258  0.00  0.00    -0.113 S 
ATOM      7  C   UNL     1      -1.335   6.290  24.803  0.00  0.00    +0.074 C 
ENDBRANCH   5   6
ENDBRANCH  11  10
ENDBRANCH  14  13
BRANCH  16  23
ATOM     23  C   UNL     1      -1.405  -0.855  25.213  0.00  0.00    +0.269 C 
ATOM     24  O   UNL     1      -1.059  -1.313  25.806  0.00  0.00    -0.271 OA
ATOM     25  N   UNL     1      -1.911  -1.206  24.663  0.00  0.00    -0.195 NA
BRANCH  25  26
ATOM     26  C   UNL     1      -2.069  -2.015  24.706  0.00  0.00    +0.179 C 
BRANCH  26  33
ATOM     33  C   UNL     1      -1.508  -2.560  24.444  0.00  0.00    +0.281 C 
ATOM     34  N   UNL     1      -1.168  -3.091  24.976  0.00  0.00    -0.086 NA
ATOM     35  O   UNL     1      -1.287  -2.574  23.648  0.00  0.00    -0.270 OA
ENDBRANCH  26  33
BRANCH  26  27
ATOM     27  C   UNL     1      -2.788  -2.279  25.012  0.00  0.00    +0.064 C 
BRANCH  27  28
ATOM     28  C   UNL     1      -3.463  -2.275  24.538  0.00  0.00    +0.010 A 
ATOM     29  C   UNL     1      -3.924  -1.615  24.356  0.00  0.00    +0.003 A 
ATOM     30  C   UNL     1      -4.543  -1.863  23.868  0.00  0.00    +0.007 A 
ATOM     31  C   UNL     1      -4.463  -2.676  23.749  0.00  0.00    +0.035 A 
ATOM     32  S   UNL     1      -3.796  -2.930  24.163  0.00  0.00    -0.091 S 
ENDBRANCH  27  28
ENDBRANCH  26  27
ENDBRANCH  25  26
ENDBRANCH  16  23
TORSDOF 9
ENDMDL
MODEL 6
REMARK VINA RESULT:      -7.2      3.682      5.274
REMARK  Name = 
REMARK  9 active torsions:
REMARK  status: ('A' for Active; 'I' for Inactive)
REMARK    1  A    between atoms: O_2  and  C_3
REMARK    2  A    between atoms: C_5  and  S_6
REMARK    3  A    between atoms: C_10  and  C_11
REMARK    4  A    between atoms: N_13  and  C_14
REMARK    5  A    between atoms: C_16  and  C_23
REMARK    6  A    between atoms: N_25  and  C_26
REMARK    7  A    between atoms: C_26  and  C_27
REMARK    8  A    between atoms: C_26  and  C_33
REMARK    9  A    between atoms: C_27  and  C_28
REMARK                            x       y       z     vdW  Elec       q    Type
REMARK                         _______ _______ _______ _____ _____    ______ ____
ROOT
ATOM     14  C   UNL     1      -0.291  -0.230  24.380  0.00  0.00    +0.131 C 
ATOM     15  C   UNL     1      -0.767   0.432  24.506  0.00  0.00    +0.064 C 
ATOM     16  C   UNL     1      -1.544   0.337  24.768  0.00  0.00    +0.200 C 
ATOM     17  O   UNL     1      -1.509   1.159  24.718  0.00  0.00    -0.216 OA
ATOM     18  C   UNL     1      -1.844  -0.419  24.903  0.00  0.00    +0.075 C 
ATOM     19  C   UNL     1      -1.368  -1.081  24.777  0.00  0.00    +0.187 C 
ATOM     20  O   UNL     1      -1.668  -1.837  24.912  0.00  0.00    -0.220 OA
ATOM     21  C   UNL     1      -0.592  -0.986  24.515  0.00  0.00    +0.202 C 
ATOM     22  O   UNL     1      -0.115  -1.648  24.389  0.00  0.00    -0.219 OA
ENDROOT
BRANCH  14  13
ATOM     11  C   UNL     1       0.637   0.235  23.398  0.00  0.00    +0.268 C 
ATOM     12  O   UNL     1       0.012   0.512  22.937  0.00  0.00    -0.268 OA
ATOM     13  N   UNL     1       0.486  -0.136  24.119  0.00  0.00    -0.201 NA
BRANCH  11  10
ATOM      3  C   UNL     1       1.658  -0.023  22.432  0.00  0.00    +0.144 A 
ATOM      4  C   UNL     1       2.435   0.069  22.171  0.00  0.00    +0.043 A 
ATOM      5  C   UNL     1       2.969   0.514  22.616  0.00  0.00    +0.028 A 
ATOM      8  C   UNL     1       2.726   0.866  23.321  0.00  0.00    +0.006 A 
ATOM      9  C   UNL     1       1.948   0.773  23.582  0.00  0.00    +0.008 A 
ATOM     10  C   UNL     1       1.415   0.328  23.137  0.00  0.00    +0.089 A 
BRANCH   3   2
ATOM      1  C   UNL     1       1.329  -0.719  21.228  0.00  0.00    +0.252 C 
ATOM      2  O   UNL     1       1.125  -0.468  21.987  0.00  0.00    -0.471 OA
ENDBRANCH   3   2
BRANCH   5   6
ATOM      6  S   UNL     1       3.746   0.607  22.355  0.00  0.00    -0.113 S 
ATOM      7  C   UNL     1       4.370   0.563  22.893  0.00  0.00    +0.074 C 
ENDBRANCH   5   6
ENDBRANCH  11  10
ENDBRANCH  14  13
BRANCH  16  23
ATOM     23  C   UNL     1      -2.308   0.528  25.012  0.00  0.00    +0.269 C 
ATOM     24  O   UNL     1      -2.561   0.329  25.771  0.00  0.00    -0.271 OA
ATOM     25  N   UNL     1      -2.821   0.918  24.495  0.00  0.00    -0.195 NA
BRANCH  25  26
ATOM     26  C   UNL     1      -3.586   1.109  24.739  0.00  0.00    +0.179 C 
BRANCH  26  33
ATOM     33  C   UNL     1      -4.210   0.593  24.582  0.00  0.00    +0.281 C 
ATOM     34  N   UNL     1      -4.756   0.413  25.174  0.00  0.00    -0.086 NA
ATOM     35  O   UNL     1      -4.289   0.257  23.832  0.00  0.00    -0.270 OA
ENDBRANCH  26  33
BRANCH  26  27
ATOM     27  C   UNL     1      -3.725   1.815  25.141  0.00  0.00    +0.064 C 
BRANCH  27  28
ATOM     28  C   UNL     1      -3.844   2.513  24.718  0.00  0.00    +0.010 A 
ATOM     29  C   UNL     1      -3.970   2.571  23.904  0.00  0.00    +0.003 A 
ATOM     30  C   UNL     1      -4.062   3.370  23.717  0.00  0.00    +0.007 A 
ATOM     31  C   UNL     1      -3.994   3.805  24.415  0.00  0.00    +0.035 A 
ATOM     32  S   UNL     1      -3.860   3.275  25.033  0.00  0.00    -0.091 S 
ENDBRANCH  27  28
ENDBRANCH  26  27
ENDBRANCH  25  26
ENDBRANCH  16  23
TORSDOF 9
ENDMDL
MODEL 7
REMARK VINA RESULT:      -6.7      2.743      4.214
REMARK  Name = 
REMARK  9 active torsions:
REMARK  status: ('A' for Active; 'I' for Inactive)
REMARK    1  A    between atoms: O_2  and  C_3
REMARK    2  A    between atoms: C_5  and  S_6
REMARK    3  A    between atoms: C_10  and  C_11
REMARK    4  A    between atoms: N_13  and  C_14
REMARK    5  A    between atoms: C_16  and  C_23
REMARK    6  A    between atoms: N_25  and  C_26
REMARK    7  A    between atoms: C_26  and  C_27
REMARK    8  A    between atoms: C_26  and  C_33
REMARK    9  A    between atoms: C_27  and  C_28
REMARK                            x       y       z     vdW  Elec       q    Type
REMARK                         _______ _______ _______ _____ _____    ______ ____
ROOT
ATOM     14  C   UNL     1      -2.395  -0.180  24.416  0.00  0.00    +0.131 C 
ATOM     15  C   UNL     1      -2.815   0.526  24.487  0.00  0.00    +0.064 C 
ATOM     16  C   UNL     1      -3.544   0.535  24.875  0.00  0.00    +0.200 C 
ATOM     17  O   UNL     1      -3.481   1.331  24.667  0.00  0.00    -0.216 OA
ATOM     18  C   UNL     1      -3.852  -0.161  25.191  0.00  0.00    +0.075 C 
ATOM     19  C   UNL     1      -3.431  -0.868  25.121  0.00  0.00    +0.187 C 
ATOM     20  O   UNL     1      -3.739  -1.564  25.438  0.00  0.00    -0.220 OA
ATOM     21  C   UNL     1      -2.704  -0.877  24.734  0.00  0.00    +0.202 C 
ATOM     22  O   UNL     1      -2.282  -1.584  24.663  0.00  0.00    -0.219 OA
ENDROOT
BRANCH  14  13
ATOM     11  C   UNL     1      -1.004   0.146  24.387  0.00  0.00    +0.268 C 
ATOM     12  O   UNL     1      -1.069   0.494  25.132  0.00  0.00    -0.268 OA
ATOM     13  N   UNL     1      -1.667  -0.191  24.029  0.00  0.00    -0.201 NA
BRANCH  11  10
ATOM      3  C   UNL     1       0.177   0.823  23.952  0.00  0.00    +0.144 A 
ATOM      4  C   UNL     1       0.904   0.813  23.564  0.00  0.00    +0.043 A 
ATOM      5  C   UNL     1       1.180   0.114  23.222  0.00  0.00    +0.028 A 
ATOM      8  C   UNL     1       0.727  -0.574  23.268  0.00  0.00    +0.006 A 
ATOM      9  C   UNL     1      -0.001  -0.564  23.657  0.00  0.00    +0.008 A 
ATOM     10  C   UNL     1      -0.276   0.135  23.998  0.00  0.00    +0.089 A 
BRANCH   3   2
ATOM      1  C   UNL     1       0.366   2.204  24.267  0.00  0.00    +0.252 C 
ATOM      2  O   UNL     1      -0.098   1.521  24.293  0.00  0.00    -0.471 OA
ENDBRANCH   3   2
BRANCH   5   6
ATOM      6  S   UNL     1       1.907   0.103  22.834  0.00  0.00    -0.113 S 
ATOM      7  C   UNL     1       1.970  -0.232  22.082  0.00  0.00    +0.074 C 
ENDBRANCH   5   6
ENDBRANCH  11  10
ENDBRANCH  14  13
BRANCH  16  23
ATOM     23  C   UNL     1      -4.250   0.821  25.190  0.00  0.00    +0.269 C 
ATOM     24  O   UNL     1      -4.648   0.390  25.771  0.00  0.00    -0.271 OA
ATOM     25  N   UNL     1      -4.560   1.539  24.924  0.00  0.00    -0.195 NA
BRANCH  25  26
ATOM     26  C   UNL     1      -5.267   1.825  25.240  0.00  0.00    +0.179 C 
BRANCH  26  33
ATOM     33  C   UNL     1      -5.988   1.594  24.914  0.00  0.00    +0.281 C 
ATOM     34  N   UNL     1      -6.602   1.343  25.405  0.00  0.00    -0.086 NA
ATOM     35  O   UNL     1      -6.096   1.613  24.096  0.00  0.00    -0.270 OA
ENDBRANCH  26  33
BRANCH  26  27
ATOM     27  C   UNL     1      -5.251   2.342  25.883  0.00  0.00    +0.064 C 
BRANCH  27  28
ATOM     28  C   UNL     1      -5.140   3.150  25.759  0.00  0.00    +0.010 A 
ATOM     29  C   UNL     1      -5.708   3.680  25.479  0.00  0.00    +0.003 A 
ATOM     30  C   UNL     1      -5.360   4.428  25.440  0.00  0.00    +0.007 A 
ATOM     31  C   UNL     1      -4.579   4.359  25.696  0.00  0.00    +0.035 A 
ATOM     32  S   UNL     1      -4.443   3.570  25.892  0.00  0.00    -0.091 S 
ENDBRANCH  27  28
ENDBRANCH  26  27
ENDBRANCH  25  26
ENDBRANCH  16  23
TORSDOF 9
ENDMDL
MODEL 8
REMARK VINA RESULT:      -6.4      4.720      6.559
REMARK  Name = 
REMARK  9 active torsions:
REMARK  status: ('A' for Active; 'I' for Inactive)
REMARK    1  A    between atoms: O_2  and  C_3
REMARK    2  A    between atoms: C_5  and  S_6
REMARK    3  A    between atoms: C_10  and  C_11
REMARK    4  A    between atoms: N_13  and  C_14
REMARK    5  A    between atoms: C_16  and  C_23
REMARK    6  A    between atoms: N_25  and  C_26
REMARK    7  A    between atoms: C_26  and  C_27
REMARK    8  A    between atoms: C_26  and  C_33
REMARK    9  A    between atoms: C_27  and  C_28
REMARK                            x       y       z     vdW  Elec       q    Type
REMARK                         _______ _______ _______ _____ _____    ______ ____
ROOT
ATOM     14  C   UNL     1      -0.031   0.916  24.242  0.00  0.00    +0.131 C 
ATOM     15  C   UNL     1       0.657   1.165  23.862  0.00  0.00    +0.064 C 
ATOM     16  C   UNL     1       1.134   0.615  23.472  0.00  0.00    +0.200 C 
ATOM     17  O   UNL     1       1.563   1.305  23.329  0.00  0.00    -0.216 OA
ATOM     18  C   UNL     1       0.923  -0.182  23.463  0.00  0.00    +0.075 C 
ATOM     19  C   UNL     1       0.234  -0.430  23.843  0.00  0.00    +0.187 C 
ATOM     20  O   UNL     1       0.022  -1.228  23.834  0.00  0.00    -0.220 OA
ATOM     21  C   UNL     1      -0.243   0.118  24.232  0.00  0.00    +0.202 C 
ATOM     22  O   UNL     1      -0.932  -0.130  24.613  0.00  0.00    -0.219 OA
ENDROOT
BRANCH  14  13
ATOM     11  C   UNL     1      -0.881   2.064  24.205  0.00  0.00    +0.268 C 
ATOM     12  O   UNL     1      -0.776   2.117  23.389  0.00  0.00    -0.268 OA
ATOM     13  N   UNL     1      -0.509   1.464  24.631  0.00  0.00    -0.201 NA
BRANCH  11  10
ATOM      3  C   UNL     1      -2.130   2.745  24.337  0.00  0.00    +0.144 A 
ATOM      4  C   UNL     1      -2.608   3.292  24.727  0.00  0.00    +0.043 A 
ATOM      5  C   UNL     1      -2.315   3.708  25.377  0.00  0.00    +0.028 A 
ATOM      8  C   UNL     1      -1.543   3.575  25.636  0.00  0.00    +0.006 A 
ATOM      9  C   UNL     1      -1.064   3.027  25.246  0.00  0.00    +0.008 A 
ATOM     10  C   UNL     1      -1.359   2.612  24.596  0.00  0.00    +0.089 A 
BRANCH   3   2
ATOM      1  C   UNL     1      -3.210   2.433  23.454  0.00  0.00    +0.252 C 
ATOM      2  O   UNL     1      -2.425   2.330  23.688  0.00  0.00    -0.471 OA
ENDBRANCH   3   2
BRANCH   5   6
ATOM      6  S   UNL     1      -2.792   4.255  25.767  0.00  0.00    -0.113 S 
ATOM      7  C   UNL     1      -3.131   4.063  26.495  0.00  0.00    +0.074 C 
ENDBRANCH   5   6
ENDBRANCH  11  10
ENDBRANCH  14  13
BRANCH  16  23
ATOM     23  C   UNL     1       1.760   0.306  23.033  0.00  0.00    +0.269 C 
ATOM     24  O   UNL     1       1.615  -0.252  22.442  0.00  0.00    -0.271 OA
ATOM     25  N   UNL     1       2.533   0.554  23.185  0.00  0.00    -0.195 NA
BRANCH  25  26
ATOM     26  C   UNL     1       3.159   0.245  22.745  0.00  0.00    +0.179 C 
BRANCH  26  33
ATOM     33  C   UNL     1       3.387   0.606  22.041  0.00  0.00    +0.281 C 
ATOM     34  N   UNL     1       3.345   0.190  21.329  0.00  0.00    -0.086 NA
ATOM     35  O   UNL     1       3.659   1.386  22.046  0.00  0.00    -0.270 OA
ENDBRANCH  26  33
BRANCH  26  27
ATOM     27  C   UNL     1       3.556  -0.428  23.011  0.00  0.00    +0.064 C 
BRANCH  27  28
ATOM     28  C   UNL     1       4.264  -0.350  23.427  0.00  0.00    +0.010 A 
ATOM     29  C   UNL     1       4.716   0.337  23.491  0.00  0.00    +0.003 A 
ATOM     30  C   UNL     1       5.377   0.166  23.956  0.00  0.00    +0.007 A 
ATOM     31  C   UNL     1       5.331  -0.627  24.180  0.00  0.00    +0.035 A 
ATOM     32  S   UNL     1       4.644  -0.946  23.853  0.00  0.00    -0.091 S 
ENDBRANCH  27  28
ENDBRANCH  26  27
ENDBRANCH  25  26
ENDBRANCH  16  23
TORSDOF 9
ENDMDL
MODEL 9
REMARK VINA RESULT:      -6.3      2.848      5.443
REMARK  Name = 
REMARK  9 active torsions:
REMARK  status: ('A' for Active; 'I' for Inactive)
REMARK    1  A    between atoms: O_2  and  C_3
REMARK    2  A    between atoms: C_5  and  S_6
REMARK    3  A    between atoms: C_10  and  C_11
REMARK    4  A    between atoms: N_13  and  C_14
REMARK    5  A    between atoms: C_16  and  C_23
REMARK    6  A    between atoms: N_25  and  C_26
REMARK    7  A    between atoms: C_26  and  C_27
REMARK    8  A    between atoms: C_26  and  C_33
REMARK    9  A    between atoms: C_27  and  C_28
REMARK                            x       y       z     vdW  Elec       q    Type
REMARK                         _______ _______ _______ _____ _____    ______ ____
ROOT
ATOM     14  C   UNL     1      -1.791   2.631  25.128  0.00  0.00    +0.131 C 
ATOM     15  C   UNL     1      -1.666   2.038  24.568  0.00  0.00    +0.064 C 
ATOM     16  C   UNL     1      -0.948   1.631  24.550  0.00  0.00    +0.200 C 
ATOM     17  O   UNL     1      -1.339   1.259  23.927  0.00  0.00    -0.216 OA
ATOM     18  C   UNL     1      -0.356   1.817  25.093  0.00  0.00    +0.075 C 
ATOM     19  C   UNL     1      -0.480   2.410  25.653  0.00  0.00    +0.187 C 
ATOM     20  O   UNL     1       0.113   2.596  26.195  0.00  0.00    -0.220 OA
ATOM     21  C   UNL     1      -1.197   2.817  25.670  0.00  0.00    +0.202 C 
ATOM     22  O   UNL     1      -1.322   3.410  26.231  0.00  0.00    -0.219 OA
ENDROOT
BRANCH  14  13
ATOM     11  C   UNL     1      -3.200   2.645  25.362  0.00  0.00    +0.268 C 
ATOM     12  O   UNL     1      -3.176   1.845  25.560  0.00  0.00    -0.268 OA
ATOM     13  N   UNL     1      -2.508   3.038  25.146  0.00  0.00    -0.201 NA
BRANCH  11  10
ATOM      3  C   UNL     1      -4.624   2.652  25.239  0.00  0.00    +0.144 A 
ATOM      4  C   UNL     1      -5.341   3.059  25.257  0.00  0.00    +0.043 A 
ATOM      5  C   UNL     1      -5.351   3.869  25.415  0.00  0.00    +0.028 A 
ATOM      8  C   UNL     1      -4.645   4.271  25.556  0.00  0.00    +0.006 A 
ATOM      9  C   UNL     1      -3.927   3.863  25.538  0.00  0.00    +0.008 A 
ATOM     10  C   UNL     1      -3.917   3.054  25.380  0.00  0.00    +0.089 A 
BRANCH   3   2
ATOM      1  C   UNL     1      -5.317   1.448  24.902  0.00  0.00    +0.252 C 
ATOM      2  O   UNL     1      -4.614   1.843  25.081  0.00  0.00    -0.471 OA
ENDBRANCH   3   2
BRANCH   5   6
ATOM      6  S   UNL     1      -6.068   4.277  25.433  0.00  0.00    -0.113 S 
ATOM      7  C   UNL     1      -6.076   5.092  25.563  0.00  0.00    +0.074 C 
ENDBRANCH   5   6
ENDBRANCH  11  10
ENDBRANCH  14  13
BRANCH  16  23
ATOM     23  C   UNL     1      -0.367   1.096  24.316  0.00  0.00    +0.269 C 
ATOM     24  O   UNL     1       0.427   1.319  24.322  0.00  0.00    -0.271 OA
ATOM     25  N   UNL     1      -0.580   0.335  24.076  0.00  0.00    -0.195 NA
BRANCH  25  26
ATOM     26  C   UNL     1       0.003  -0.201  23.842  0.00  0.00    +0.179 C 
BRANCH  26  33
ATOM     33  C   UNL     1       0.389  -0.102  23.120  0.00  0.00    +0.281 C 
ATOM     34  N   UNL     1       1.214  -0.111  23.089  0.00  0.00    -0.086 NA
ATOM     35  O   UNL     1      -0.049   0.006  22.429  0.00  0.00    -0.270 OA
ENDBRANCH  26  33
BRANCH  26  27
ATOM     27  C   UNL     1       0.198  -0.837  24.330  0.00  0.00    +0.064 C 
BRANCH  27  28
ATOM     28  C   UNL     1      -0.371  -1.402  24.518  0.00  0.00    +0.010 A 
ATOM     29  C   UNL     1      -0.855  -1.800  23.981  0.00  0.00    +0.003 A 
ATOM     30  C   UNL     1      -1.341  -2.314  24.407  0.00  0.00    +0.007 A 
ATOM     31  C   UNL     1      -1.157  -2.233  25.208  0.00  0.00    +0.035 A 
ATOM     32  S   UNL     1      -0.558  -1.670  25.276  0.00  0.00    -0.091 S 
ENDBRANCH  27  28
ENDBRANCH  26  27
ENDBRANCH  25  26
ENDBRANCH  16  23
TORSDOF 9
ENDMDL
MODEL 10
REMARK VINA RESULT:      -6.2      2.646      5.031
REMARK  Name = 
REMARK  9 active torsions:
REMARK  status: ('A' for Active; 'I' for Inactive)
REMARK    1  A    between atoms: O_2  and  C_3
REMARK    2  A    between atoms: C_5  and  S_6
REMARK    3  A    between atoms: C_10  and  C_11
REMARK    4  A    between atoms: N_13  and  C_14
REMARK    5  A    between atoms: C_16  and  C_23
REMARK    6  A    between atoms: N_25  and  C_26
REMARK    7  A    between atoms: C_26  and  C_27
REMARK    8  A    between atoms: C_26  and  C_33
REMARK    9  A    between atoms: C_27  and  C_28
REMARK                            x       y       z     vdW  Elec       q    Type
REMARK                         _______ _______ _______ _____ _____    ______ ____
ROOT
ATOM     14  C   UNL     1      -4.002   0.396  24.911  0.00  0.00    +0.131 C 
ATOM     15  C   UNL     1      -3.193   0.336  25.057  0.00  0.00    +0.064 C 
ATOM     16  C   UNL     1      -2.774  -0.325  24.794  0.00  0.00    +0.200 C 
ATOM     17  O   UNL     1      -2.164   0.097  25.154  0.00  0.00    -0.216 OA
ATOM     18  C   UNL     1      -3.166  -0.926  24.386  0.00  0.00    +0.075 C 
ATOM     19  C   UNL     1      -3.975  -0.866  24.241  0.00  0.00    +0.187 C 
ATOM     20  O   UNL     1      -4.367  -1.467  23.833  0.00  0.00    -0.220 OA
ATOM     21  C   UNL     1      -4.393  -0.205  24.503  0.00  0.00    +0.202 C 
ATOM     22  O   UNL     1      -5.204  -0.145  24.357  0.00  0.00    -0.219 OA
ENDROOT
BRANCH  14  13
ATOM     11  C   UNL     1      -4.275   1.797  24.840  0.00  0.00    +0.268 C 
ATOM     12  O   UNL     1      -3.710   1.877  24.245  0.00  0.00    -0.268 OA
ATOM     13  N   UNL     1      -4.421   1.056  25.173  0.00  0.00    -0.201 NA
BRANCH  11  10
ATOM      3  C   UNL     1      -4.292   3.144  25.316  0.00  0.00    +0.144 A 
ATOM      4  C   UNL     1      -4.710   3.804  25.579  0.00  0.00    +0.043 A 
ATOM      5  C   UNL     1      -5.534   3.777  25.629  0.00  0.00    +0.028 A 
ATOM      8  C   UNL     1      -5.937   3.090  25.416  0.00  0.00    +0.006 A 
ATOM      9  C   UNL     1      -5.518   2.430  25.153  0.00  0.00    +0.008 A 
ATOM     10  C   UNL     1      -4.695   2.457  25.103  0.00  0.00    +0.089 A 
BRANCH   3   2
ATOM      1  C   UNL     1      -3.057   3.810  25.588  0.00  0.00    +0.252 C 
ATOM      2  O   UNL     1      -3.469   3.171  25.266  0.00  0.00    -0.471 OA
ENDBRANCH   3   2
BRANCH   5   6
ATOM      6  S   UNL     1      -5.953   4.437  25.891  0.00  0.00    -0.113 S 
ATOM      7  C   UNL     1      -6.271   4.969  25.346  0.00  0.00    +0.074 C 
ENDBRANCH   5   6
ENDBRANCH  11  10
ENDBRANCH  14  13
BRANCH  16  23
ATOM     23  C   UNL     1      -2.144  -0.839  24.657  0.00  0.00    +0.269 C 
ATOM     24  O   UNL     1      -2.289  -1.630  24.471  0.00  0.00    -0.271 OA
ATOM     25  N   UNL     1      -1.368  -0.562  24.705  0.00  0.00    -0.195 NA
BRANCH  25  26
ATOM     26  C   UNL     1      -0.738  -1.077  24.568  0.00  0.00    +0.179 C 
BRANCH  26  33
ATOM     33  C   UNL     1      -0.455  -1.556  25.176  0.00  0.00    +0.281 C 
ATOM     34  N   UNL     1      -0.350  -2.365  25.051  0.00  0.00    -0.086 NA
ATOM     35  O   UNL     1      -0.277  -1.226  25.912  0.00  0.00    -0.270 OA
ENDBRANCH  26  33
BRANCH  26  27
ATOM     27  C   UNL     1      -0.390  -1.113  23.820  0.00  0.00    +0.064 C 
BRANCH  27  28
ATOM     28  C   UNL     1       0.161  -0.543  23.595  0.00  0.00    +0.010 A 
ATOM     29  C   UNL     1       0.060   0.275  23.643  0.00  0.00    +0.003 A 
ATOM     30  C   UNL     1       0.748   0.634  23.359  0.00  0.00    +0.007 A 
ATOM     31  C   UNL     1       1.272   0.038  23.135  0.00  0.00    +0.035 A 
ATOM     32  S   UNL     1       0.910  -0.689  23.280  0.00  0.00    -0.091 S 
ENDBRANCH  27  28
ENDBRANCH  26  27
ENDBRANCH  25  26
ENDBRANCH  16  23
TORSDOF 9
ENDMDL
