MODEL 1
REMARK VINA RESULT:     -16.4      0.000      0.000
REMARK  Name = 
REMARK  5 active torsions:
REMARK  status: ('A' for Active; 'I' for Inactive)
REMARK    1  A    between atoms: O_2  and  C_3
REMARK    2  A    between atoms: C_6  and  N_7
REMARK    3  A    between atoms: C_19  and  N_20
REMARK    4  A    between atoms: N_20  and  S_21
REMARK    5  A    between atoms: S_21  and  C_24
REMARK                            x       y       z     vdW  Elec       q    Type
REMARK                         _______ _______ _______ _____ _____    ______ ____
ROOT
ATOM      7  N   UNL     1      -3.292   2.109  24.736  0.00  0.00    -0.162 NA
ATOM      8  C   UNL     1      -3.314   2.929  24.834  0.00  0.00    +0.327 C 
ATOM      9  O   UNL     1      -2.645   3.382  24.668  0.00  0.00    -0.250 OA
ATOM     10  N   UNL     1      -4.005   3.295  25.099  0.00  0.00    -0.262 N 
ATOM     11  C   UNL     1      -4.520   3.908  25.334  0.00  0.00    +0.097 C 
ATOM     12  C   UNL     1      -5.329   3.377  25.537  0.00  0.00    +0.043 C 
ATOM     13  C   UNL     1      -6.063   3.090  25.743  0.00  0.00    +0.011 C 
ATOM     14  C   UNL     1      -5.450   2.833  25.516  0.00  0.00    +0.058 C 
ATOM     15  C   UNL     1      -4.677   3.360  25.324  0.00  0.00    +0.101 C 
ATOM     16  C   UNL     1      -5.038   2.042  25.294  0.00  0.00    +0.041 A 
ATOM     17  C   UNL     1      -5.187   1.232  25.252  0.00  0.00    +0.014 A 
ATOM     18  C   UNL     1      -4.594   0.716  25.002  0.00  0.00    +0.024 A 
ATOM     19  C   UNL     1      -3.852   1.010  24.794  0.00  0.00    +0.147 A 
ATOM     30  C   UNL     1      -3.702   1.821  24.836  0.00  0.00    +0.277 A 
ATOM     31  O   UNL     1      -2.952   1.608  24.569  0.00  0.00    -0.266 OA
ATOM     32  N   UNL     1      -4.296   2.336  25.086  0.00  0.00    -0.298 N 
ATOM     33  C   UNL     1      -4.890   2.556  25.303  0.00  0.00    +0.110 C 
ENDROOT
BRANCH   7   6
ATOM      3  C   UNL     1      -1.220   1.015  23.940  0.00  0.00    +0.139 A 
ATOM      4  C   UNL     1      -1.781   1.280  23.397  0.00  0.00    +0.038 A 
ATOM      5  C   UNL     1      -2.472   1.645  23.662  0.00  0.00    +0.020 A 
ATOM      6  C   UNL     1      -2.602   1.745  24.471  0.00  0.00    +0.075 A 
ATOM     34  C   UNL     1      -2.041   1.479  25.014  0.00  0.00    +0.020 A 
ATOM     35  C   UNL     1      -1.350   1.114  24.749  0.00  0.00    +0.038 A 
BRANCH   3   2
ATOM      1  C   UNL     1       0.206   0.943  23.904  0.00  0.00    +0.252 C 
ATOM      2  O   UNL     1      -0.529   0.649  23.675  0.00  0.00    -0.471 OA
ENDBRANCH   3   2
ENDBRANCH   7   6
BRANCH  19  20
ATOM     20  N   UNL     1      -3.259   0.494  24.545  0.00  0.00    -0.092 NA
BRANCH  20  21
ATOM     21  S   UNL     1      -3.407  -0.316  24.506  0.00  0.00    +0.093 S 
ATOM     22  O   UNL     1      -3.649  -0.235  23.722  0.00  0.00    -0.148 OA
ATOM     23  O   UNL     1      -3.166  -0.398  25.290  0.00  0.00    -0.148 OA
BRANCH  21  24
ATOM     24  C   UNL     1      -3.555  -1.128  24.468  0.00  0.00    +0.127 A 
ATOM     25  C   UNL     1      -4.003  -1.437  23.847  0.00  0.00    +0.020 A 
ATOM     26  C   UNL     1      -4.150  -2.247  23.810  0.00  0.00    +0.001 A 
ATOM     27  C   UNL     1      -3.850  -2.749  24.392  0.00  0.00    +0.000 A 
ATOM     28  C   UNL     1      -3.403  -2.440  25.013  0.00  0.00    +0.001 A 
ATOM     29  C   UNL     1      -3.256  -1.629  25.050  0.00  0.00    +0.020 A 
ENDBRANCH  21  24
ENDBRANCH  20  21
ENDBRANCH  19  20
TORSDOF 5
ENDMDL
MODEL 2
REMARK VINA RESULT:     -15.6      1.326      3.982
REMARK  Name = 
REMARK  5 active torsions:
REMARK  status: ('A' for Active; 'I' for Inactive)
REMARK    1  A    between atoms: O_2  and  C_3
REMARK    2  A    between atoms: C_6  and  N_7
REMARK    3  A    between atoms: C_19  and  N_20
REMARK    4  A    between atoms: N_20  and  S_21
REMARK    5  A    between atoms: S_21  and  C_24
REMARK                            x       y       z     vdW  Elec       q    Type
REMARK                         _______ _______ _______ _____ _____    ______ ____
ROOT
ATOM      7  N   UNL     1      -1.934  -0.516  24.692  0.00  0.00    -0.162 NA
ATOM      8  C   UNL     1      -1.624  -1.279  24.747  0.00  0.00    +0.327 C 
ATOM      9  O   UNL     1      -0.825  -1.388  24.917  0.00  0.00    -0.250 OA
ATOM     10  N   UNL     1      -2.114  -1.933  24.630  0.00  0.00    -0.262 N 
ATOM     11  C   UNL     1      -2.343  -2.734  24.568  0.00  0.00    +0.097 C 
ATOM     12  C   UNL     1      -3.302  -2.617  24.363  0.00  0.00    +0.043 C 
ATOM     13  C   UNL     1      -4.095  -2.691  24.191  0.00  0.00    +0.011 C 
ATOM     14  C   UNL     1      -3.633  -2.173  24.299  0.00  0.00    +0.058 C 
ATOM     15  C   UNL     1      -2.708  -2.303  24.496  0.00  0.00    +0.101 C 
ATOM     16  C   UNL     1      -3.572  -1.257  24.327  0.00  0.00    +0.041 A 
ATOM     17  C   UNL     1      -4.036  -0.581  24.238  0.00  0.00    +0.014 A 
ATOM     18  C   UNL     1      -3.696   0.166  24.323  0.00  0.00    +0.024 A 
ATOM     19  C   UNL     1      -2.893   0.237  24.498  0.00  0.00    +0.147 A 
ATOM     30  C   UNL     1      -2.429  -0.439  24.587  0.00  0.00    +0.277 A 
ATOM     31  O   UNL     1      -1.822   0.101  24.726  0.00  0.00    -0.266 OA
ATOM     32  N   UNL     1      -2.768  -1.186  24.501  0.00  0.00    -0.298 N 
ATOM     33  C   UNL     1      -3.228  -1.661  24.395  0.00  0.00    +0.110 C 
ENDROOT
BRANCH   7   6
ATOM      3  C   UNL     1      -0.464   1.443  25.043  0.00  0.00    +0.139 A 
ATOM      4  C   UNL     1      -0.857   1.104  25.683  0.00  0.00    +0.038 A 
ATOM      5  C   UNL     1      -1.347   0.450  25.566  0.00  0.00    +0.020 A 
ATOM      6  C   UNL     1      -1.444   0.137  24.808  0.00  0.00    +0.075 A 
ATOM     34  C   UNL     1      -1.050   0.477  24.169  0.00  0.00    +0.020 A 
ATOM     35  C   UNL     1      -0.560   1.130  24.285  0.00  0.00    +0.038 A 
BRANCH   3   2
ATOM      1  C   UNL     1       0.164   2.378  25.922  0.00  0.00    +0.252 C 
ATOM      2  O   UNL     1       0.027   2.097  25.159  0.00  0.00    -0.471 OA
ENDBRANCH   3   2
ENDBRANCH   7   6
BRANCH  19  20
ATOM     20  N   UNL     1      -2.554   0.984  24.583  0.00  0.00    -0.092 NA
BRANCH  20  21
ATOM     21  S   UNL     1      -3.019   1.660  24.499  0.00  0.00    +0.093 S 
ATOM     22  O   UNL     1      -2.840   1.684  23.695  0.00  0.00    -0.148 OA
ATOM     23  O   UNL     1      -3.198   1.636  25.304  0.00  0.00    -0.148 OA
BRANCH  21  24
ATOM     24  C   UNL     1      -3.485   2.337  24.417  0.00  0.00    +0.127 A 
ATOM     25  C   UNL     1      -3.558   2.700  23.680  0.00  0.00    +0.020 A 
ATOM     26  C   UNL     1      -4.023   3.376  23.598  0.00  0.00    +0.001 A 
ATOM     27  C   UNL     1      -4.416   3.689  24.253  0.00  0.00    +0.000 A 
ATOM     28  C   UNL     1      -4.343   3.325  24.990  0.00  0.00    +0.001 A 
ATOM     29  C   UNL     1      -3.878   2.649  25.072  0.00  0.00    +0.020 A 
ENDBRANCH  21  24
ENDBRANCH  20  21
ENDBRANCH  19  20
TORSDOF 5
ENDMDL
MODEL 3
REMARK VINA RESULT:     -14.9      1.255      3.127
REMARK  Name = 
REMARK  5 active torsions:
REMARK  status: ('A' for Active; 'I' for Inactive)
REMARK    1  A    between atoms: O_2  and  C_3
REMARK    2  A    between atoms: C_6  and  N_7
REMARK    3  A    between atoms: C_19  and  N_20
REMARK    4  A    between atoms: N_20  and  S_21
REMARK    5  A    between atoms: S_21  and  C_24
REMARK                            x       y       z     vdW  Elec       q    Type
REMARK                         _______ _______ _______ _____ _____    ______ ____
ROOT
ATOM      7  N   UNL     1      -2.820   2.448  25.078  0.00  0.00    -0.162 NA
ATOM      8  C   UNL     1      -2.528   3.210  25.207  0.00  0.00    +0.327 C 
ATOM      9  O   UNL     1      -3.041   3.855  25.201  0.00  0.00    -0.250 OA
ATOM     10  N   UNL     1      -1.722   3.325  25.341  0.00  0.00    -0.262 N 
ATOM     11  C   UNL     1      -1.008   3.732  25.493  0.00  0.00    +0.097 C 
ATOM     12  C   UNL     1      -0.381   2.967  25.502  0.00  0.00    +0.043 C 
ATOM     13  C   UNL     1       0.252   2.457  25.541  0.00  0.00    +0.011 C 
ATOM     14  C   UNL     1      -0.440   2.417  25.433  0.00  0.00    +0.058 C 
ATOM     15  C   UNL     1      -1.033   3.166  25.426  0.00  0.00    +0.101 C 
ATOM     16  C   UNL     1      -1.110   1.811  25.265  0.00  0.00    +0.041 A 
ATOM     17  C   UNL     1      -1.230   1.002  25.157  0.00  0.00    +0.014 A 
ATOM     18  C   UNL     1      -1.989   0.713  25.011  0.00  0.00    +0.024 A 
ATOM     19  C   UNL     1      -2.628   1.233  24.973  0.00  0.00    +0.147 A 
ATOM     30  C   UNL     1      -2.508   2.042  25.080  0.00  0.00    +0.277 A 
ATOM     31  O   UNL     1      -3.323   2.090  24.963  0.00  0.00    -0.266 OA
ATOM     32  N   UNL     1      -1.750   2.331  25.226  0.00  0.00    -0.298 N 
ATOM     33  C   UNL     1      -1.088   2.341  25.327  0.00  0.00    +0.110 C 
ENDROOT
BRANCH   7   6
ATOM      3  C   UNL     1      -5.238   2.103  24.679  0.00  0.00    +0.139 A 
ATOM      4  C   UNL     1      -4.940   2.084  25.448  0.00  0.00    +0.038 A 
ATOM      5  C   UNL     1      -4.134   2.199  25.581  0.00  0.00    +0.020 A 
ATOM      6  C   UNL     1      -3.625   2.333  24.945  0.00  0.00    +0.075 A 
ATOM     34  C   UNL     1      -3.924   2.352  24.176  0.00  0.00    +0.020 A 
ATOM     35  C   UNL     1      -4.729   2.237  24.042  0.00  0.00    +0.038 A 
BRANCH   3   2
ATOM      1  C   UNL     1      -6.571   1.992  25.179  0.00  0.00    +0.252 C 
ATOM      2  O   UNL     1      -6.044   1.987  24.545  0.00  0.00    -0.471 OA
ENDBRANCH   3   2
ENDBRANCH   7   6
BRANCH  19  20
ATOM     20  N   UNL     1      -3.386   0.944  24.827  0.00  0.00    -0.092 NA
BRANCH  20  21
ATOM     21  S   UNL     1      -3.507   0.134  24.729  0.00  0.00    +0.093 S 
ATOM     22  O   UNL     1      -3.620   0.053  25.542  0.00  0.00    -0.148 OA
ATOM     23  O   UNL     1      -3.394   0.215  23.916  0.00  0.00    -0.148 OA
BRANCH  21  24
ATOM     24  C   UNL     1      -3.628  -0.677  24.631  0.00  0.00    +0.127 A 
ATOM     25  C   UNL     1      -3.487  -1.194  25.258  0.00  0.00    +0.020 A 
ATOM     26  C   UNL     1      -3.609  -2.004  25.159  0.00  0.00    +0.001 A 
ATOM     27  C   UNL     1      -3.870  -2.296  24.433  0.00  0.00    +0.000 A 
ATOM     28  C   UNL     1      -4.011  -1.779  23.806  0.00  0.00    +0.001 A 
ATOM     29  C   UNL     1      -3.890  -0.969  23.905  0.00  0.00    +0.020 A 
ENDBRANCH  21  24
ENDBRANCH  20  21
ENDBRANCH  19  20
TORSDOF 5
ENDMDL
MODEL 4
REMARK VINA RESULT:     -14.3      1.289      4.289
REMARK  Name = 
REMARK  5 active torsions:
REMARK  status: ('A' for Active; 'I' for Inactive)
REMARK    1  A    between atoms: O_2  and  C_3
REMARK    2  A    between atoms: C_6  and  N_7
REMARK    3  A    between atoms: C_19  and  N_20
REMARK    4  A    between atoms: N_20  and  S_21
REMARK    5  A    between atoms: S_21  and  C_24
REMARK                            x       y       z     vdW  Elec       q    Type
REMARK                         _______ _______ _______ _____ _____    ______ ____
ROOT
ATOM      7  N   UNL     1      -3.558  -0.106  24.381  0.00  0.00    -0.162 NA
ATOM      8  C   UNL     1      -4.154  -0.651  24.209  0.00  0.00    +0.327 C 
ATOM      9  O   UNL     1      -4.909  -0.386  24.006  0.00  0.00    -0.250 OA
ATOM     10  N   UNL     1      -3.996  -1.460  24.240  0.00  0.00    -0.262 N 
ATOM     11  C   UNL     1      -4.131  -2.283  24.190  0.00  0.00    +0.097 C 
ATOM     12  C   UNL     1      -3.232  -2.614  24.432  0.00  0.00    +0.043 C 
ATOM     13  C   UNL     1      -2.560  -3.039  24.609  0.00  0.00    +0.011 C 
ATOM     14  C   UNL     1      -2.751  -2.365  24.568  0.00  0.00    +0.058 C 
ATOM     15  C   UNL     1      -3.625  -2.062  24.332  0.00  0.00    +0.101 C 
ATOM     16  C   UNL     1      -2.419  -1.515  24.672  0.00  0.00    +0.041 A 
ATOM     17  C   UNL     1      -1.724  -1.118  24.869  0.00  0.00    +0.014 A 
ATOM     18  C   UNL     1      -1.710  -0.293  24.885  0.00  0.00    +0.024 A 
ATOM     19  C   UNL     1      -2.391   0.135  24.705  0.00  0.00    +0.147 A 
ATOM     30  C   UNL     1      -3.087  -0.262  24.508  0.00  0.00    +0.277 A 
ATOM     31  O   UNL     1      -3.398   0.499  24.435  0.00  0.00    -0.266 OA
ATOM     32  N   UNL     1      -3.101  -1.086  24.491  0.00  0.00    -0.298 N 
ATOM     33  C   UNL     1      -2.894  -1.721  24.538  0.00  0.00    +0.110 C 
ENDROOT
BRANCH   7   6
ATOM      3  C   UNL     1      -4.036   2.320  24.290  0.00  0.00    +0.139 A 
ATOM      4  C   UNL     1      -4.177   1.898  24.984  0.00  0.00    +0.038 A 
ATOM      5  C   UNL     1      -4.017   1.089  25.015  0.00  0.00    +0.020 A 
ATOM      6  C   UNL     1      -3.717   0.702  24.350  0.00  0.00    +0.075 A 
ATOM     34  C   UNL     1      -3.577   1.125  23.656  0.00  0.00    +0.020 A 
ATOM     35  C   UNL     1      -3.736   1.933  23.625  0.00  0.00    +0.038 A 
BRANCH   3   2
ATOM      1  C   UNL     1      -4.607   3.492  24.875  0.00  0.00    +0.252 C 
ATOM      2  O   UNL     1      -4.196   3.129  24.259  0.00  0.00    -0.471 OA
ENDBRANCH   3   2
ENDBRANCH   7   6
BRANCH  19  20
ATOM     20  N   UNL     1      -2.377   0.959  24.722  0.00  0.00    -0.092 NA
BRANCH  20  21
ATOM     21  S   UNL     1      -1.682   1.355  24.923  0.00  0.00    +0.093 S 
ATOM     22  O   UNL     1      -1.456   1.362  24.130  0.00  0.00    -0.148 OA
ATOM     23  O   UNL     1      -1.908   1.349  25.716  0.00  0.00    -0.148 OA
BRANCH  21  24
ATOM     24  C   UNL     1      -0.987   1.752  25.126  0.00  0.00    +0.127 A 
ATOM     25  C   UNL     1      -0.424   1.921  24.546  0.00  0.00    +0.020 A 
ATOM     26  C   UNL     1       0.270   2.317  24.749  0.00  0.00    +0.001 A 
ATOM     27  C   UNL     1       0.402   2.545  25.531  0.00  0.00    +0.000 A 
ATOM     28  C   UNL     1      -0.161   2.377  26.110  0.00  0.00    +0.001 A 
ATOM     29  C   UNL     1      -0.855   1.980  25.908  0.00  0.00    +0.020 A 
ENDBRANCH  21  24
ENDBRANCH  20  21
ENDBRANCH  19  20
TORSDOF 5
ENDMDL
MODEL 5
REMARK VINA RESULT:     -14.1      0.982      2.939
REMARK  Name = 
REMARK  5 active torsions:
REMARK  status: ('A' for Active; 'I' for Inactive)
REMARK    1  A    between atoms: O_2  and  C_3
REMARK    2  A    between atoms: C_6  and  N_7
REMARK    3  A    between atoms: C_19  and  N_20
REMARK    4  A    between atoms: N_20  and  S_21
REMARK    5  A    between atoms: S_21  and  C_24
REMARK                            x       y       z     vdW  Elec       q    Type
REMARK                         _______ _______ _______ _____ _____    ______ ____
ROOT
ATOM      7  N   UNL     1      -4.336   1.024  24.958  0.00  0.00    -0.162 NA
ATOM      8  C   UNL     1      -5.141   1.109  25.117  0.00  0.00    +0.327 C 
ATOM      9  O   UNL     1      -5.632   0.447  25.130  0.00  0.00    -0.250 OA
ATOM     10  N   UNL     1      -5.456   1.858  25.262  0.00  0.00    -0.262 N 
ATOM     11  C   UNL     1      -6.026   2.444  25.436  0.00  0.00    +0.097 C 
ATOM     12  C   UNL     1      -5.449   3.246  25.423  0.00  0.00    +0.043 C 
ATOM     13  C   UNL     1      -5.118   3.990  25.449  0.00  0.00    +0.011 C 
ATOM     14  C   UNL     1      -4.906   3.331  25.332  0.00  0.00    +0.058 C 
ATOM     15  C   UNL     1      -5.476   2.565  25.348  0.00  0.00    +0.101 C 
ATOM     16  C   UNL     1      -4.154   2.840  25.137  0.00  0.00    +0.041 A 
ATOM     17  C   UNL     1      -3.346   2.933  24.999  0.00  0.00    +0.014 A 
ATOM     18  C   UNL     1      -2.877   2.274  24.835  0.00  0.00    +0.024 A 
ATOM     19  C   UNL     1      -3.216   1.522  24.810  0.00  0.00    +0.147 A 
ATOM     30  C   UNL     1      -4.024   1.429  24.948  0.00  0.00    +0.277 A 
ATOM     31  O   UNL     1      -3.865   0.630  24.825  0.00  0.00    -0.266 OA
ATOM     32  N   UNL     1      -4.493   2.088  25.111  0.00  0.00    -0.298 N 
ATOM     33  C   UNL     1      -4.669   2.725  25.218  0.00  0.00    +0.110 C 
ENDROOT
BRANCH   7   6
ATOM      3  C   UNL     1      -3.394  -1.224  24.524  0.00  0.00    +0.139 A 
ATOM      4  C   UNL     1      -3.426  -0.932  25.295  0.00  0.00    +0.038 A 
ATOM      5  C   UNL     1      -3.740  -0.182  25.440  0.00  0.00    +0.020 A 
ATOM      6  C   UNL     1      -4.022   0.275  24.813  0.00  0.00    +0.075 A 
ATOM     34  C   UNL     1      -3.990  -0.018  24.043  0.00  0.00    +0.020 A 
ATOM     35  C   UNL     1      -3.676  -0.766  23.898  0.00  0.00    +0.038 A 
BRANCH   3   2
ATOM      1  C   UNL     1      -3.573  -2.634  24.379  0.00  0.00    +0.252 C 
ATOM      2  O   UNL     1      -3.080  -1.973  24.380  0.00  0.00    -0.471 OA
ENDBRANCH   3   2
ENDBRANCH   7   6
BRANCH  19  20
ATOM     20  N   UNL     1      -2.747   0.864  24.647  0.00  0.00    -0.092 NA
BRANCH  20  21
ATOM     21  S   UNL     1      -1.937   0.956  24.520  0.00  0.00    +0.093 S 
ATOM     22  O   UNL     1      -1.797   0.835  25.323  0.00  0.00    -0.148 OA
ATOM     23  O   UNL     1      -2.077   1.078  23.716  0.00  0.00    -0.148 OA
BRANCH  21  24
ATOM     24  C   UNL     1      -1.127   1.048  24.392  0.00  0.00    +0.127 A 
ATOM     25  C   UNL     1      -0.643   1.334  24.996  0.00  0.00    +0.020 A 
ATOM     26  C   UNL     1       0.166   1.426  24.867  0.00  0.00    +0.001 A 
ATOM     27  C   UNL     1       0.492   1.232  24.135  0.00  0.00    +0.000 A 
ATOM     28  C   UNL     1       0.009   0.945  23.531  0.00  0.00    +0.001 A 
ATOM     29  C   UNL     1      -0.800   0.854  23.659  0.00  0.00    +0.020 A 
ENDBRANCH  21  24
ENDBRANCH  20  21
ENDBRANCH  19  20
TORSDOF 5
ENDMDL
