REMARK  Name = 
REMARK  4 active torsions:
REMARK  status: ('A' for Active; 'I' for Inactive)
REMARK    1  A    between atoms: C_2  and  C_3
REMARK    2  A    between atoms: C_3  and  N_4
REMARK    3  A    between atoms: C_19  and  C_22
REMARK    4  A    between atoms: C_24  and  C_28
REMARK                            x       y       z     vdW  Elec       q    Type
REMARK                         _______ _______ _______ _____ _____    ______ ____
ROOT
ATOM      4  N   UNL     1       7.096  -0.197   0.000  0.00  0.00    -0.188 NA
ATOM      5  C   UNL     1       6.912   0.608   0.000  0.00  0.00    +0.323 C 
ATOM      6  O   UNL     1       7.517   1.169   0.000  0.00  0.00    -0.251 OA
ATOM      7  N   UNL     1       6.124   0.851   0.000  0.00  0.00    -0.259 N 
ATOM      8  C   UNL     1       5.940   1.655   0.000  0.00  0.00    +0.117 C 
ATOM      9  C   UNL     1       5.152   1.899   0.000  0.00  0.00    +0.116 C 
ATOM     10  N   UNL     1       4.547   1.337   0.000  0.00  0.00    -0.266 N 
ATOM     11  C   UNL     1       4.731   0.533   0.000  0.00  0.00    +0.174 C 
ATOM     12  C   UNL     1       5.519   0.290   0.000  0.00  0.00    +0.124 C 
ATOM     13  C   UNL     1       4.216  -0.112   0.000  0.00  0.00    +0.265 C 
ATOM     14  O   UNL     1       4.574  -0.855   0.000  0.00  0.00    -0.271 OA
ATOM     15  N   UNL     1       3.391  -0.112   0.000  0.00  0.00    -0.178 NA
ATOM     16  C   UNL     1       2.877   0.533   0.000  0.00  0.00    +0.078 A 
ATOM     17  C   UNL     1       3.060   1.337   0.000  0.00  0.00    +0.069 A 
ATOM     18  C   UNL     1       2.456   1.899   0.000  0.00  0.00    +0.006 A 
ATOM     19  C   UNL     1       1.667   1.655   0.000  0.00  0.00    +0.000 A 
ATOM     20  C   UNL     1       1.484   0.851   0.000  0.00  0.00    +0.001 A 
ATOM     21  C   UNL     1       2.088   0.290   0.000  0.00  0.00    +0.017 A 
ATOM     32  C   UNL     1       3.804   1.695   0.000  0.00  0.00    +0.251 C 
ATOM     33  O   UNL     1       3.804   2.520   0.000  0.00  0.00    -0.270 OA
ENDROOT
BRANCH  19  22
ATOM     22  C   UNL     1       1.062   2.216   0.000  0.00  0.00    -0.000 A 
ATOM     23  C   UNL     1       0.274   1.973   0.000  0.00  0.00    +0.004 A 
ATOM     24  C   UNL     1      -0.331   2.534   0.000  0.00  0.00    +0.071 A 
ATOM     25  C   UNL     1      -0.147   3.339   0.000  0.00  0.00    +0.004 A 
ATOM     26  C   UNL     1       0.641   3.582   0.000  0.00  0.00    -0.000 A 
ATOM     27  C   UNL     1       1.246   3.021   0.000  0.00  0.00    -0.000 A 
BRANCH  24  28
ATOM     28  C   UNL     1      -1.119   2.291   0.000  0.00  0.00    +0.419 C 
ATOM     29  F   UNL     1      -1.907   2.048   0.000  0.00  0.00    -0.166 F 
ATOM     30  F   UNL     1      -1.362   3.080   0.000  0.00  0.00    -0.166 F 
ATOM     31  F   UNL     1      -0.876   1.503   0.000  0.00  0.00    -0.166 F 
ENDBRANCH  24  28
ENDBRANCH  19  22
BRANCH   4   3
ATOM      3  C   UNL     1       7.884  -0.440   0.000  0.00  0.00    +0.117 C 
BRANCH   3   2
ATOM      1  C   UNL     1       8.856  -1.487   0.000  0.00  0.00    +0.002 C 
ATOM      2  C   UNL     1       8.068  -1.244   0.000  0.00  0.00    +0.023 C 
ENDBRANCH   3   2
ENDBRANCH   4   3
TORSDOF 4
