MODEL 1
REMARK VINA RESULT:      -8.5      0.000      0.000
REMARK  Name = 
REMARK  8 active torsions:
REMARK  status: ('A' for Active; 'I' for Inactive)
REMARK    1  A    between atoms: O_2  and  C_3
REMARK    2  A    between atoms: C_3  and  C_4
REMARK    3  A    between atoms: C_4  and  O_5
REMARK    4  A    between atoms: O_5  and  C_6
REMARK    5  A    between atoms: C_9  and  C_12
REMARK    6  A    between atoms: C_15  and  C_17
REMARK    7  A    between atoms: N_21  and  C_22
REMARK    8  A    between atoms: C_22  and  C_23
REMARK                            x       y       z     vdW  Elec       q    Type
REMARK                         _______ _______ _______ _____ _____    ______ ____
ROOT
ATOM     12  C   UNL     1      -0.918   0.111  24.514  0.00  0.00    +0.205 A 
ATOM     13  N   UNL     1      -0.941   0.010  25.333  0.00  0.00    -0.056 NA
ATOM     14  O   UNL     1      -1.732  -0.031  25.563  0.00  0.00    -0.336 OA
ATOM     15  C   UNL     1      -2.198   0.044  24.886  0.00  0.00    +0.251 A 
ATOM     16  N   UNL     1      -1.695   0.132  24.238  0.00  0.00    -0.190 NA
ENDROOT
BRANCH  12   9
ATOM      6  C   UNL     1       1.122   0.315  23.129  0.00  0.00    +0.225 A 
ATOM      7  C   UNL     1       0.779  -0.425  23.250  0.00  0.00    +0.058 A 
ATOM      8  C   UNL     1       0.098  -0.493  23.712  0.00  0.00    +0.010 A 
ATOM      9  C   UNL     1      -0.239   0.179  24.053  0.00  0.00    +0.058 A 
ATOM     10  C   UNL     1       0.106   0.919  23.931  0.00  0.00    +0.105 A 
ATOM     11  N   UNL     1       0.786   0.987  23.469  0.00  0.00    -0.210 NA
BRANCH   6   5
ATOM      5  O   UNL     1       1.804   0.383  22.667  0.00  0.00    -0.457 OA
BRANCH   5   4
ATOM      4  C   UNL     1       2.538   0.489  23.029  0.00  0.00    +0.239 C 
BRANCH   4   3
ATOM      3  C   UNL     1       3.227   0.484  22.575  0.00  0.00    +0.189 C 
BRANCH   3   2
ATOM      1  C   UNL     1       4.605   0.465  22.949  0.00  0.00    +0.174 C 
ATOM      2  O   UNL     1       3.900   0.878  22.842  0.00  0.00    -0.347 OA
ENDBRANCH   3   2
ENDBRANCH   4   3
ENDBRANCH   5   4
ENDBRANCH   6   5
ENDBRANCH  12   9
BRANCH  15  17
ATOM     17  C   UNL     1      -3.023   0.033  24.862  0.00  0.00    +0.138 C 
ATOM     18  C   UNL     1      -3.521   0.671  25.025  0.00  0.00    +0.027 C 
ATOM     19  C   UNL     1      -4.300   0.415  24.934  0.00  0.00    +0.019 C 
ATOM     20  C   UNL     1      -4.284  -0.380  24.715  0.00  0.00    +0.073 C 
ATOM     21  N   UNL     1      -3.494  -0.616  24.670  0.00  0.00    -0.266 NA
BRANCH  21  22
ATOM     22  C   UNL     1      -3.224  -1.369  24.469  0.00  0.00    +0.072 C 
BRANCH  22  23
ATOM     23  C   UNL     1      -3.763  -1.970  24.302  0.00  0.00    +0.015 C 
ATOM     24  C   UNL     1      -4.303  -2.571  24.134  0.00  0.00    +0.001 C 
ATOM     25  C   UNL     1      -3.605  -2.317  25.033  0.00  0.00    +0.001 C 
ATOM     26  C   UNL     1      -3.922  -1.624  23.570  0.00  0.00    +0.001 C 
ENDBRANCH  22  23
ENDBRANCH  21  22
ENDBRANCH  15  17
TORSDOF 8
ENDMDL
MODEL 2
REMARK VINA RESULT:      -8.5      1.242      2.297
REMARK  Name = 
REMARK  8 active torsions:
REMARK  status: ('A' for Active; 'I' for Inactive)
REMARK    1  A    between atoms: O_2  and  C_3
REMARK    2  A    between atoms: C_3  and  C_4
REMARK    3  A    between atoms: C_4  and  O_5
REMARK    4  A    between atoms: O_5  and  C_6
REMARK    5  A    between atoms: C_9  and  C_12
REMARK    6  A    between atoms: C_15  and  C_17
REMARK    7  A    between atoms: N_21  and  C_22
REMARK    8  A    between atoms: C_22  and  C_23
REMARK                            x       y       z     vdW  Elec       q    Type
REMARK                         _______ _______ _______ _____ _____    ______ ____
ROOT
ATOM     12  C   UNL     1      -1.291   0.450  24.556  0.00  0.00    +0.205 A 
ATOM     13  N   UNL     1      -1.341   0.533  25.376  0.00  0.00    -0.056 NA
ATOM     14  O   UNL     1      -2.132   0.666  25.571  0.00  0.00    -0.336 OA
ATOM     15  C   UNL     1      -2.571   0.664  24.872  0.00  0.00    +0.251 A 
ATOM     16  N   UNL     1      -2.050   0.531  24.245  0.00  0.00    -0.190 NA
ENDROOT
BRANCH  12   9
ATOM      6  C   UNL     1       0.776   0.032  23.262  0.00  0.00    +0.225 A 
ATOM      7  C   UNL     1       0.368  -0.599  23.603  0.00  0.00    +0.058 A 
ATOM      8  C   UNL     1      -0.321  -0.460  24.034  0.00  0.00    +0.010 A 
ATOM      9  C   UNL     1      -0.603   0.311  24.125  0.00  0.00    +0.058 A 
ATOM     10  C   UNL     1      -0.194   0.941  23.784  0.00  0.00    +0.105 A 
ATOM     11  N   UNL     1       0.495   0.802  23.352  0.00  0.00    -0.210 NA
BRANCH   6   5
ATOM      5  O   UNL     1       1.466  -0.107  22.830  0.00  0.00    -0.457 OA
BRANCH   5   4
ATOM      4  C   UNL     1       2.134   0.359  22.960  0.00  0.00    +0.239 C 
BRANCH   4   3
ATOM      3  C   UNL     1       2.853   0.158  22.607  0.00  0.00    +0.189 C 
BRANCH   3   2
ATOM      1  C   UNL     1       4.249   0.444  22.696  0.00  0.00    +0.174 C 
ATOM      2  O   UNL     1       3.473   0.702  22.594  0.00  0.00    -0.347 OA
ENDBRANCH   3   2
ENDBRANCH   4   3
ENDBRANCH   5   4
ENDBRANCH   6   5
ENDBRANCH  12   9
BRANCH  15  17
ATOM     17  C   UNL     1      -3.385   0.776  24.810  0.00  0.00    +0.138 C 
ATOM     18  C   UNL     1      -3.959   0.183  24.831  0.00  0.00    +0.027 C 
ATOM     19  C   UNL     1      -4.698   0.540  24.750  0.00  0.00    +0.019 C 
ATOM     20  C   UNL     1      -4.582   1.354  24.678  0.00  0.00    +0.073 C 
ATOM     21  N   UNL     1      -3.770   1.500  24.715  0.00  0.00    -0.266 NA
BRANCH  21  22
ATOM     22  C   UNL     1      -3.407   2.239  24.666  0.00  0.00    +0.072 C 
BRANCH  22  23
ATOM     23  C   UNL     1      -3.864   2.916  24.554  0.00  0.00    +0.015 C 
ATOM     24  C   UNL     1      -4.322   3.594  24.441  0.00  0.00    +0.001 C 
ATOM     25  C   UNL     1      -3.939   3.001  25.371  0.00  0.00    +0.001 C 
ATOM     26  C   UNL     1      -3.790   2.831  23.736  0.00  0.00    +0.001 C 
ENDBRANCH  22  23
ENDBRANCH  21  22
ENDBRANCH  15  17
TORSDOF 8
ENDMDL
MODEL 3
REMARK VINA RESULT:      -8.4      3.700      5.694
REMARK  Name = 
REMARK  8 active torsions:
REMARK  status: ('A' for Active; 'I' for Inactive)
REMARK    1  A    between atoms: O_2  and  C_3
REMARK    2  A    between atoms: C_3  and  C_4
REMARK    3  A    between atoms: C_4  and  O_5
REMARK    4  A    between atoms: O_5  and  C_6
REMARK    5  A    between atoms: C_9  and  C_12
REMARK    6  A    between atoms: C_15  and  C_17
REMARK    7  A    between atoms: N_21  and  C_22
REMARK    8  A    between atoms: C_22  and  C_23
REMARK                            x       y       z     vdW  Elec       q    Type
REMARK                         _______ _______ _______ _____ _____    ______ ____
ROOT
ATOM     12  C   UNL     1      -3.870   1.985  24.438  0.00  0.00    +0.205 A 
ATOM     13  N   UNL     1      -4.094   2.590  23.924  0.00  0.00    -0.056 NA
ATOM     14  O   UNL     1      -3.885   3.309  24.270  0.00  0.00    -0.336 OA
ATOM     15  C   UNL     1      -3.532   3.149  24.998  0.00  0.00    +0.251 A 
ATOM     16  N   UNL     1      -3.522   2.330  25.102  0.00  0.00    -0.190 NA
ENDROOT
BRANCH  12   9
ATOM      6  C   UNL     1      -4.185  -0.439  24.057  0.00  0.00    +0.225 A 
ATOM      7  C   UNL     1      -4.660  -0.043  24.603  0.00  0.00    +0.058 A 
ATOM      8  C   UNL     1      -4.555   0.765  24.730  0.00  0.00    +0.010 A 
ATOM      9  C   UNL     1      -3.975   1.177  24.311  0.00  0.00    +0.058 A 
ATOM     10  C   UNL     1      -3.500   0.780  23.766  0.00  0.00    +0.105 A 
ATOM     11  N   UNL     1      -3.605  -0.028  23.639  0.00  0.00    -0.210 NA
BRANCH   6   5
ATOM      5  O   UNL     1      -4.290  -1.249  23.929  0.00  0.00    -0.457 OA
BRANCH   5   4
ATOM      4  C   UNL     1      -3.821  -1.794  24.334  0.00  0.00    +0.239 C 
BRANCH   4   3
ATOM      3  C   UNL     1      -3.867  -2.597  24.149  0.00  0.00    +0.189 C 
BRANCH   3   2
ATOM      1  C   UNL     1      -2.692  -3.281  24.585  0.00  0.00    +0.174 C 
ATOM      2  O   UNL     1      -3.505  -3.154  24.637  0.00  0.00    -0.347 OA
ENDBRANCH   3   2
ENDBRANCH   4   3
ENDBRANCH   5   4
ENDBRANCH   6   5
ENDBRANCH  12   9
BRANCH  15  17
ATOM     17  C   UNL     1      -3.239   3.708  25.529  0.00  0.00    +0.138 C 
ATOM     18  C   UNL     1      -3.635   4.002  26.190  0.00  0.00    +0.027 C 
ATOM     19  C   UNL     1      -3.140   4.547  26.562  0.00  0.00    +0.019 C 
ATOM     20  C   UNL     1      -2.438   4.590  26.131  0.00  0.00    +0.073 C 
ATOM     21  N   UNL     1      -2.499   4.071  25.492  0.00  0.00    -0.266 NA
BRANCH  21  22
ATOM     22  C   UNL     1      -1.922   3.939  24.918  0.00  0.00    +0.072 C 
BRANCH  22  23
ATOM     23  C   UNL     1      -1.200   4.336  24.959  0.00  0.00    +0.015 C 
ATOM     24  C   UNL     1      -0.478   4.733  25.001  0.00  0.00    +0.001 C 
ATOM     25  C   UNL     1      -1.546   5.002  24.616  0.00  0.00    +0.001 C 
ATOM     26  C   UNL     1      -0.854   3.670  25.303  0.00  0.00    +0.001 C 
ENDBRANCH  22  23
ENDBRANCH  21  22
ENDBRANCH  15  17
TORSDOF 8
ENDMDL
MODEL 4
REMARK VINA RESULT:      -8.3      2.742      4.847
REMARK  Name = 
REMARK  8 active torsions:
REMARK  status: ('A' for Active; 'I' for Inactive)
REMARK    1  A    between atoms: O_2  and  C_3
REMARK    2  A    between atoms: C_3  and  C_4
REMARK    3  A    between atoms: C_4  and  O_5
REMARK    4  A    between atoms: O_5  and  C_6
REMARK    5  A    between atoms: C_9  and  C_12
REMARK    6  A    between atoms: C_15  and  C_17
REMARK    7  A    between atoms: N_21  and  C_22
REMARK    8  A    between atoms: C_22  and  C_23
REMARK                            x       y       z     vdW  Elec       q    Type
REMARK                         _______ _______ _______ _____ _____    ______ ____
ROOT
ATOM     12  C   UNL     1      -0.702   1.610  25.437  0.00  0.00    +0.205 A 
ATOM     13  N   UNL     1      -0.169   1.904  25.995  0.00  0.00    -0.056 NA
ATOM     14  O   UNL     1      -0.240   2.726  26.008  0.00  0.00    -0.336 OA
ATOM     15  C   UNL     1      -0.817   2.940  25.458  0.00  0.00    +0.251 A 
ATOM     16  N   UNL     1      -1.102   2.251  25.105  0.00  0.00    -0.190 NA
ENDROOT
BRANCH  12   9
ATOM      6  C   UNL     1      -1.039  -0.772  24.861  0.00  0.00    +0.225 A 
ATOM      7  C   UNL     1      -1.271  -0.490  25.601  0.00  0.00    +0.058 A 
ATOM      8  C   UNL     1      -1.159   0.304  25.793  0.00  0.00    +0.010 A 
ATOM      9  C   UNL     1      -0.814   0.817  25.245  0.00  0.00    +0.058 A 
ATOM     10  C   UNL     1      -0.582   0.534  24.506  0.00  0.00    +0.105 A 
ATOM     11  N   UNL     1      -0.694  -0.260  24.314  0.00  0.00    -0.210 NA
BRANCH   6   5
ATOM      5  O   UNL     1      -1.151  -1.567  24.668  0.00  0.00    -0.457 OA
BRANCH   5   4
ATOM      4  C   UNL     1      -1.890  -1.917  24.777  0.00  0.00    +0.239 C 
BRANCH   4   3
ATOM      3  C   UNL     1      -2.114  -2.565  24.317  0.00  0.00    +0.189 C 
BRANCH   3   2
ATOM      1  C   UNL     1      -3.494  -2.916  24.217  0.00  0.00    +0.174 C 
ATOM      2  O   UNL     1      -2.749  -3.036  24.549  0.00  0.00    -0.347 OA
ENDBRANCH   3   2
ENDBRANCH   4   3
ENDBRANCH   5   4
ENDBRANCH   6   5
ENDBRANCH  12   9
BRANCH  15  17
ATOM     17  C   UNL     1      -1.065   3.709  25.290  0.00  0.00    +0.138 C 
ATOM     18  C   UNL     1      -0.592   4.317  24.995  0.00  0.00    +0.027 C 
ATOM     19  C   UNL     1      -1.063   4.989  24.910  0.00  0.00    +0.019 C 
ATOM     20  C   UNL     1      -1.828   4.796  25.153  0.00  0.00    +0.073 C 
ATOM     21  N   UNL     1      -1.829   4.004  25.388  0.00  0.00    -0.266 NA
BRANCH  21  22
ATOM     22  C   UNL     1      -2.479   3.583  25.671  0.00  0.00    +0.072 C 
BRANCH  22  23
ATOM     23  C   UNL     1      -3.220   3.942  25.703  0.00  0.00    +0.015 C 
ATOM     24  C   UNL     1      -3.963   4.302  25.736  0.00  0.00    +0.001 C 
ATOM     25  C   UNL     1      -3.063   4.199  26.471  0.00  0.00    +0.001 C 
ATOM     26  C   UNL     1      -3.379   3.686  24.935  0.00  0.00    +0.001 C 
ENDBRANCH  22  23
ENDBRANCH  21  22
ENDBRANCH  15  17
TORSDOF 8
ENDMDL
MODEL 5
REMARK VINA RESULT:      -7.9      2.662      3.554
REMARK  Name = 
REMARK  8 active torsions:
REMARK  status: ('A' for Active; 'I' for Inactive)
REMARK    1  A    between atoms: O_2  and  C_3
REMARK    2  A    between atoms: C_3  and  C_4
REMARK    3  A    between atoms: C_4  and  O_5
REMARK    4  A    between atoms: O_5  and  C_6
REMARK    5  A    between atoms: C_9  and  C_12
REMARK    6  A    between atoms: C_15  and  C_17
REMARK    7  A    between atoms: N_21  and  C_22
REMARK    8  A    between atoms: C_22  and  C_23
REMARK                            x       y       z     vdW  Elec       q    Type
REMARK                         _______ _______ _______ _____ _____    ______ ____
ROOT
ATOM     12  C   UNL     1      -1.171   0.413  25.343  0.00  0.00    +0.205 A 
ATOM     13  N   UNL     1      -1.285   0.061  26.081  0.00  0.00    -0.056 NA
ATOM     14  O   UNL     1      -1.447  -0.739  25.960  0.00  0.00    -0.336 OA
ATOM     15  C   UNL     1      -1.432  -0.881  25.147  0.00  0.00    +0.251 A 
ATOM     16  N   UNL     1      -1.262  -0.169  24.767  0.00  0.00    -0.190 NA
ENDROOT
BRANCH  12   9
ATOM      6  C   UNL     1      -0.647   2.796  24.936  0.00  0.00    +0.225 A 
ATOM      7  C   UNL     1      -0.307   2.404  25.577  0.00  0.00    +0.058 A 
ATOM      8  C   UNL     1      -0.482   1.609  25.713  0.00  0.00    +0.010 A 
ATOM      9  C   UNL     1      -0.996   1.207  25.208  0.00  0.00    +0.058 A 
ATOM     10  C   UNL     1      -1.335   1.601  24.567  0.00  0.00    +0.105 A 
ATOM     11  N   UNL     1      -1.160   2.395  24.431  0.00  0.00    -0.210 NA
BRANCH   6   5
ATOM      5  O   UNL     1      -0.472   3.592  24.799  0.00  0.00    -0.457 OA
BRANCH   5   4
ATOM      4  C   UNL     1      -0.989   4.179  25.062  0.00  0.00    +0.239 C 
BRANCH   4   3
ATOM      3  C   UNL     1      -0.873   4.964  24.838  0.00  0.00    +0.189 C 
BRANCH   3   2
ATOM      1  C   UNL     1      -2.008   5.813  25.014  0.00  0.00    +0.174 C 
ATOM      2  O   UNL     1      -1.254   5.571  25.245  0.00  0.00    -0.347 OA
ENDBRANCH   3   2
ENDBRANCH   4   3
ENDBRANCH   5   4
ENDBRANCH   6   5
ENDBRANCH  12   9
BRANCH  15  17
ATOM     17  C   UNL     1      -1.565  -1.607  24.779  0.00  0.00    +0.138 C 
ATOM     18  C   UNL     1      -0.987  -2.157  24.569  0.00  0.00    +0.027 C 
ATOM     19  C   UNL     1      -1.363  -2.801  24.217  0.00  0.00    +0.019 C 
ATOM     20  C   UNL     1      -2.174  -2.650  24.210  0.00  0.00    +0.073 C 
ATOM     21  N   UNL     1      -2.299  -1.912  24.558  0.00  0.00    -0.266 NA
BRANCH  21  22
ATOM     22  C   UNL     1      -3.029  -1.544  24.665  0.00  0.00    +0.072 C 
BRANCH  22  23
ATOM     23  C   UNL     1      -3.715  -1.895  24.371  0.00  0.00    +0.015 C 
ATOM     24  C   UNL     1      -4.402  -2.245  24.075  0.00  0.00    +0.001 C 
ATOM     25  C   UNL     1      -3.708  -2.434  24.994  0.00  0.00    +0.001 C 
ATOM     26  C   UNL     1      -3.723  -1.355  23.746  0.00  0.00    +0.001 C 
ENDBRANCH  22  23
ENDBRANCH  21  22
ENDBRANCH  15  17
TORSDOF 8
ENDMDL
MODEL 6
REMARK VINA RESULT:      -7.9      3.328      4.247
REMARK  Name = 
REMARK  8 active torsions:
REMARK  status: ('A' for Active; 'I' for Inactive)
REMARK    1  A    between atoms: O_2  and  C_3
REMARK    2  A    between atoms: C_3  and  C_4
REMARK    3  A    between atoms: C_4  and  O_5
REMARK    4  A    between atoms: O_5  and  C_6
REMARK    5  A    between atoms: C_9  and  C_12
REMARK    6  A    between atoms: C_15  and  C_17
REMARK    7  A    between atoms: N_21  and  C_22
REMARK    8  A    between atoms: C_22  and  C_23
REMARK                            x       y       z     vdW  Elec       q    Type
REMARK                         _______ _______ _______ _____ _____    ______ ____
ROOT
ATOM     12  C   UNL     1      -3.948   0.810  24.867  0.00  0.00    +0.205 A 
ATOM     13  N   UNL     1      -4.455   0.499  25.440  0.00  0.00    -0.056 NA
ATOM     14  O   UNL     1      -4.532  -0.310  25.299  0.00  0.00    -0.336 OA
ATOM     15  C   UNL     1      -4.073  -0.500  24.640  0.00  0.00    +0.251 A 
ATOM     16  N   UNL     1      -3.712   0.193  24.373  0.00  0.00    -0.190 NA
ENDROOT
BRANCH  12   9
ATOM      6  C   UNL     1      -3.256   3.177  24.669  0.00  0.00    +0.225 A 
ATOM      7  C   UNL     1      -4.035   2.960  24.503  0.00  0.00    +0.058 A 
ATOM      8  C   UNL     1      -4.265   2.171  24.569  0.00  0.00    +0.010 A 
ATOM      9  C   UNL     1      -3.717   1.598  24.801  0.00  0.00    +0.058 A 
ATOM     10  C   UNL     1      -2.939   1.816  24.967  0.00  0.00    +0.105 A 
ATOM     11  N   UNL     1      -2.708   2.606  24.901  0.00  0.00    -0.210 NA
BRANCH   6   5
ATOM      5  O   UNL     1      -3.025   3.967  24.603  0.00  0.00    -0.457 OA
BRANCH   5   4
ATOM      4  C   UNL     1      -2.371   4.242  25.025  0.00  0.00    +0.239 C 
BRANCH   4   3
ATOM      3  C   UNL     1      -2.053   4.985  24.857  0.00  0.00    +0.189 C 
BRANCH   3   2
ATOM      1  C   UNL     1      -0.692   5.416  24.831  0.00  0.00    +0.174 C 
ATOM      2  O   UNL     1      -1.379   5.244  25.254  0.00  0.00    -0.347 OA
ENDBRANCH   3   2
ENDBRANCH   4   3
ENDBRANCH   5   4
ENDBRANCH   6   5
ENDBRANCH  12   9
BRANCH  15  17
ATOM     17  C   UNL     1      -3.990  -1.249  24.306  0.00  0.00    +0.138 C 
ATOM     18  C   UNL     1      -4.534  -1.622  23.809  0.00  0.00    +0.027 C 
ATOM     19  C   UNL     1      -4.229  -2.361  23.606  0.00  0.00    +0.019 C 
ATOM     20  C   UNL     1      -3.496  -2.445  23.977  0.00  0.00    +0.073 C 
ATOM     21  N   UNL     1      -3.349  -1.758  24.410  0.00  0.00    -0.266 NA
BRANCH  21  22
ATOM     22  C   UNL     1      -2.679  -1.607  24.866  0.00  0.00    +0.072 C 
BRANCH  22  23
ATOM     23  C   UNL     1      -2.067  -2.159  24.896  0.00  0.00    +0.015 C 
ATOM     24  C   UNL     1      -1.455  -2.712  24.926  0.00  0.00    +0.001 C 
ATOM     25  C   UNL     1      -1.656  -1.736  24.320  0.00  0.00    +0.001 C 
ATOM     26  C   UNL     1      -2.478  -2.583  25.472  0.00  0.00    +0.001 C 
ENDBRANCH  22  23
ENDBRANCH  21  22
ENDBRANCH  15  17
TORSDOF 8
ENDMDL
MODEL 7
REMARK VINA RESULT:      -7.8      2.178      3.009
REMARK  Name = 
REMARK  8 active torsions:
REMARK  status: ('A' for Active; 'I' for Inactive)
REMARK    1  A    between atoms: O_2  and  C_3
REMARK    2  A    between atoms: C_3  and  C_4
REMARK    3  A    between atoms: C_4  and  O_5
REMARK    4  A    between atoms: O_5  and  C_6
REMARK    5  A    between atoms: C_9  and  C_12
REMARK    6  A    between atoms: C_15  and  C_17
REMARK    7  A    between atoms: N_21  and  C_22
REMARK    8  A    between atoms: C_22  and  C_23
REMARK                            x       y       z     vdW  Elec       q    Type
REMARK                         _______ _______ _______ _____ _____    ______ ____
ROOT
ATOM     12  C   UNL     1      -2.045   2.185  24.036  0.00  0.00    +0.205 A 
ATOM     13  N   UNL     1      -2.431   2.576  23.419  0.00  0.00    -0.056 NA
ATOM     14  O   UNL     1      -3.091   2.958  23.734  0.00  0.00    -0.336 OA
ATOM     15  C   UNL     1      -3.113   2.803  24.544  0.00  0.00    +0.251 A 
ATOM     16  N   UNL     1      -2.467   2.325  24.730  0.00  0.00    -0.190 NA
ENDROOT
BRANCH  12   9
ATOM      6  C   UNL     1       0.014   0.829  23.834  0.00  0.00    +0.225 A 
ATOM      7  C   UNL     1       0.047   1.580  24.175  0.00  0.00    +0.058 A 
ATOM      8  C   UNL     1      -0.640   2.032  24.242  0.00  0.00    +0.010 A 
ATOM      9  C   UNL     1      -1.359   1.733  23.968  0.00  0.00    +0.058 A 
ATOM     10  C   UNL     1      -1.390   0.983  23.628  0.00  0.00    +0.105 A 
ATOM     11  N   UNL     1      -0.704   0.530  23.560  0.00  0.00    -0.210 NA
BRANCH   6   5
ATOM      5  O   UNL     1       0.702   0.376  23.766  0.00  0.00    -0.457 OA
BRANCH   5   4
ATOM      4  C   UNL     1       1.091   0.324  23.041  0.00  0.00    +0.239 C 
BRANCH   4   3
ATOM      3  C   UNL     1       1.861   0.027  23.004  0.00  0.00    +0.189 C 
BRANCH   3   2
ATOM      1  C   UNL     1       3.104   0.151  22.314  0.00  0.00    +0.174 C 
ATOM      2  O   UNL     1       2.285   0.065  22.298  0.00  0.00    -0.347 OA
ENDBRANCH   3   2
ENDBRANCH   4   3
ENDBRANCH   5   4
ENDBRANCH   6   5
ENDBRANCH  12   9
BRANCH  15  17
ATOM     17  C   UNL     1      -3.682   3.078  25.075  0.00  0.00    +0.138 C 
ATOM     18  C   UNL     1      -3.605   3.732  25.572  0.00  0.00    +0.027 C 
ATOM     19  C   UNL     1      -4.302   3.806  26.006  0.00  0.00    +0.019 C 
ATOM     20  C   UNL     1      -4.811   3.197  25.777  0.00  0.00    +0.073 C 
ATOM     21  N   UNL     1      -4.427   2.748  25.201  0.00  0.00    -0.266 NA
BRANCH  21  22
ATOM     22  C   UNL     1      -4.735   2.084  24.820  0.00  0.00    +0.072 C 
BRANCH  22  23
ATOM     23  C   UNL     1      -5.477   1.794  25.031  0.00  0.00    +0.015 C 
ATOM     24  C   UNL     1      -6.220   1.504  25.243  0.00  0.00    +0.001 C 
ATOM     25  C   UNL     1      -5.837   2.382  24.577  0.00  0.00    +0.001 C 
ATOM     26  C   UNL     1      -5.118   1.206  25.485  0.00  0.00    +0.001 C 
ENDBRANCH  22  23
ENDBRANCH  21  22
ENDBRANCH  15  17
TORSDOF 8
ENDMDL
MODEL 8
REMARK VINA RESULT:      -6.3     16.228     18.150
REMARK  Name = 
REMARK  8 active torsions:
REMARK  status: ('A' for Active; 'I' for Inactive)
REMARK    1  A    between atoms: O_2  and  C_3
REMARK    2  A    between atoms: C_3  and  C_4
REMARK    3  A    between atoms: C_4  and  O_5
REMARK    4  A    between atoms: O_5  and  C_6
REMARK    5  A    between atoms: C_9  and  C_12
REMARK    6  A    between atoms: C_15  and  C_17
REMARK    7  A    between atoms: N_21  and  C_22
REMARK    8  A    between atoms: C_22  and  C_23
REMARK                            x       y       z     vdW  Elec       q    Type
REMARK                         _______ _______ _______ _____ _____    ______ ____
ROOT
ATOM     12  C   UNL     1      13.310   7.855  20.270  0.00  0.00    +0.205 A 
ATOM     13  N   UNL     1      13.274   7.368  20.936  0.00  0.00    -0.056 NA
ATOM     14  O   UNL     1      13.999   7.417  21.327  0.00  0.00    -0.336 OA
ATOM     15  C   UNL     1      14.483   7.933  20.902  0.00  0.00    +0.251 A 
ATOM     16  N   UNL     1      14.057   8.203  20.249  0.00  0.00    -0.190 NA
ENDROOT
BRANCH  12   9
ATOM      6  C   UNL     1      11.496   8.204  18.624  0.00  0.00    +0.225 A 
ATOM      7  C   UNL     1      11.411   8.481  19.397  0.00  0.00    +0.058 A 
ATOM      8  C   UNL     1      12.015   8.364  19.946  0.00  0.00    +0.010 A 
ATOM      9  C   UNL     1      12.706   7.971  19.722  0.00  0.00    +0.058 A 
ATOM     10  C   UNL     1      12.790   7.695  18.949  0.00  0.00    +0.105 A 
ATOM     11  N   UNL     1      12.185   7.811  18.400  0.00  0.00    -0.210 NA
BRANCH   6   5
ATOM      5  O   UNL     1      10.890   8.321  18.075  0.00  0.00    -0.457 OA
BRANCH   5   4
ATOM      4  C   UNL     1      11.071   8.405  17.274  0.00  0.00    +0.239 C 
BRANCH   4   3
ATOM      3  C   UNL     1      10.472   8.562  16.729  0.00  0.00    +0.189 C 
BRANCH   3   2
ATOM      1  C   UNL     1      11.009   9.093  15.517  0.00  0.00    +0.174 C 
ATOM      2  O   UNL     1      10.619   8.490  15.921  0.00  0.00    -0.347 OA
ENDBRANCH   3   2
ENDBRANCH   4   3
ENDBRANCH   5   4
ENDBRANCH   6   5
ENDBRANCH  12   9
BRANCH  15  17
ATOM     17  C   UNL     1      15.257   8.142  21.097  0.00  0.00    +0.138 C 
ATOM     18  C   UNL     1      15.490   8.835  21.480  0.00  0.00    +0.027 C 
ATOM     19  C   UNL     1      16.311   8.817  21.563  0.00  0.00    +0.019 C 
ATOM     20  C   UNL     1      16.585   8.113  21.230  0.00  0.00    +0.073 C 
ATOM     21  N   UNL     1      15.933   7.696  20.942  0.00  0.00    -0.266 NA
BRANCH  21  22
ATOM     22  C   UNL     1      15.955   6.962  20.566  0.00  0.00    +0.072 C 
BRANCH  22  23
ATOM     23  C   UNL     1      16.680   6.618  20.375  0.00  0.00    +0.015 C 
ATOM     24  C   UNL     1      17.405   6.273  20.183  0.00  0.00    +0.001 C 
ATOM     25  C   UNL     1      16.753   6.342  21.149  0.00  0.00    +0.001 C 
ATOM     26  C   UNL     1      16.607   6.894  19.601  0.00  0.00    +0.001 C 
ENDBRANCH  22  23
ENDBRANCH  21  22
ENDBRANCH  15  17
TORSDOF 8
ENDMDL
MODEL 9
REMARK VINA RESULT:      -6.1     14.820     18.390
REMARK  Name = 
REMARK  8 active torsions:
REMARK  status: ('A' for Active; 'I' for Inactive)
REMARK    1  A    between atoms: O_2  and  C_3
REMARK    2  A    between atoms: C_3  and  C_4
REMARK    3  A    between atoms: C_4  and  O_5
REMARK    4  A    between atoms: O_5  and  C_6
REMARK    5  A    between atoms: C_9  and  C_12
REMARK    6  A    between atoms: C_15  and  C_17
REMARK    7  A    between atoms: N_21  and  C_22
REMARK    8  A    between atoms: C_22  and  C_23
REMARK                            x       y       z     vdW  Elec       q    Type
REMARK                         _______ _______ _______ _____ _____    ______ ____
ROOT
ATOM     12  C   UNL     1      14.147   7.298  18.957  0.00  0.00    +0.205 A 
ATOM     13  N   UNL     1      14.440   7.531  18.221  0.00  0.00    -0.056 NA
ATOM     14  O   UNL     1      15.218   7.262  18.159  0.00  0.00    -0.336 OA
ATOM     15  C   UNL     1      15.405   6.862  18.856  0.00  0.00    +0.251 A 
ATOM     16  N   UNL     1      14.744   6.885  19.349  0.00  0.00    -0.190 NA
ENDROOT
BRANCH  12   9
ATOM      6  C   UNL     1      11.879   7.758  19.832  0.00  0.00    +0.225 A 
ATOM      7  C   UNL     1      12.397   8.383  19.681  0.00  0.00    +0.058 A 
ATOM      8  C   UNL     1      13.153   8.229  19.389  0.00  0.00    +0.010 A 
ATOM      9  C   UNL     1      13.392   7.451  19.248  0.00  0.00    +0.058 A 
ATOM     10  C   UNL     1      12.873   6.828  19.400  0.00  0.00    +0.105 A 
ATOM     11  N   UNL     1      12.117   6.981  19.691  0.00  0.00    -0.210 NA
BRANCH   6   5
ATOM      5  O   UNL     1      11.122   7.912  20.124  0.00  0.00    -0.457 OA
BRANCH   5   4
ATOM      4  C   UNL     1      11.028   8.363  20.808  0.00  0.00    +0.239 C 
BRANCH   4   3
ATOM      3  C   UNL     1      10.414   8.195  21.333  0.00  0.00    +0.189 C 
BRANCH   3   2
ATOM      1  C   UNL     1      10.314   8.356  22.748  0.00  0.00    +0.174 C 
ATOM      2  O   UNL     1      10.289   8.678  21.990  0.00  0.00    -0.347 OA
ENDBRANCH   3   2
ENDBRANCH   4   3
ENDBRANCH   5   4
ENDBRANCH   6   5
ENDBRANCH  12   9
BRANCH  15  17
ATOM     17  C   UNL     1      16.127   6.503  19.030  0.00  0.00    +0.138 C 
ATOM     18  C   UNL     1      16.503   5.925  18.577  0.00  0.00    +0.027 C 
ATOM     19  C   UNL     1      17.208   5.723  18.954  0.00  0.00    +0.019 C 
ATOM     20  C   UNL     1      17.268   6.177  19.641  0.00  0.00    +0.073 C 
ATOM     21  N   UNL     1      16.600   6.659  19.688  0.00  0.00    -0.266 NA
BRANCH  21  22
ATOM     22  C   UNL     1      16.434   7.200  20.288  0.00  0.00    +0.072 C 
BRANCH  22  23
ATOM     23  C   UNL     1      16.920   7.241  20.953  0.00  0.00    +0.015 C 
ATOM     24  C   UNL     1      17.405   7.281  21.619  0.00  0.00    +0.001 C 
ATOM     25  C   UNL     1      17.367   7.832  20.592  0.00  0.00    +0.001 C 
ATOM     26  C   UNL     1      16.473   6.648  21.315  0.00  0.00    +0.001 C 
ENDBRANCH  22  23
ENDBRANCH  21  22
ENDBRANCH  15  17
TORSDOF 8
ENDMDL
MODEL 10
REMARK VINA RESULT:      -5.0     16.742     19.033
REMARK  Name = 
REMARK  8 active torsions:
REMARK  status: ('A' for Active; 'I' for Inactive)
REMARK    1  A    between atoms: O_2  and  C_3
REMARK    2  A    between atoms: C_3  and  C_4
REMARK    3  A    between atoms: C_4  and  O_5
REMARK    4  A    between atoms: O_5  and  C_6
REMARK    5  A    between atoms: C_9  and  C_12
REMARK    6  A    between atoms: C_15  and  C_17
REMARK    7  A    between atoms: N_21  and  C_22
REMARK    8  A    between atoms: C_22  and  C_23
REMARK                            x       y       z     vdW  Elec       q    Type
REMARK                         _______ _______ _______ _____ _____    ______ ____
ROOT
ATOM     12  C   UNL     1      14.382   7.362  18.864  0.00  0.00    +0.205 A 
ATOM     13  N   UNL     1      14.108   6.786  19.388  0.00  0.00    -0.056 NA
ATOM     14  O   UNL     1      14.755   6.497  19.810  0.00  0.00    -0.336 OA
ATOM     15  C   UNL     1      15.429   6.894  19.547  0.00  0.00    +0.251 A 
ATOM     16  N   UNL     1      15.198   7.428  18.962  0.00  0.00    -0.190 NA
ENDROOT
BRANCH  12   9
ATOM      6  C   UNL     1      12.996   8.660  17.277  0.00  0.00    +0.225 A 
ATOM      7  C   UNL     1      13.647   8.233  17.002  0.00  0.00    +0.058 A 
ATOM      8  C   UNL     1      14.109   7.800  17.531  0.00  0.00    +0.010 A 
ATOM      9  C   UNL     1      13.920   7.794  18.335  0.00  0.00    +0.058 A 
ATOM     10  C   UNL     1      13.270   8.221  18.609  0.00  0.00    +0.105 A 
ATOM     11  N   UNL     1      12.808   8.654  18.080  0.00  0.00    -0.210 NA
BRANCH   6   5
ATOM      5  O   UNL     1      12.534   9.093  16.747  0.00  0.00    -0.457 OA
BRANCH   5   4
ATOM      4  C   UNL     1      11.750   8.875  16.611  0.00  0.00    +0.239 C 
BRANCH   4   3
ATOM      3  C   UNL     1      11.427   8.944  15.855  0.00  0.00    +0.189 C 
BRANCH   3   2
ATOM      1  C   UNL     1      10.076   8.729  16.267  0.00  0.00    +0.174 C 
ATOM      2  O   UNL     1      10.670   8.654  15.701  0.00  0.00    -0.347 OA
ENDBRANCH   3   2
ENDBRANCH   4   3
ENDBRANCH   5   4
ENDBRANCH   6   5
ENDBRANCH  12   9
BRANCH  15  17
ATOM     17  C   UNL     1      16.199   6.777  19.819  0.00  0.00    +0.138 C 
ATOM     18  C   UNL     1      16.684   6.133  19.641  0.00  0.00    +0.027 C 
ATOM     19  C   UNL     1      17.403   6.241  20.030  0.00  0.00    +0.019 C 
ATOM     20  C   UNL     1      17.363   6.952  20.448  0.00  0.00    +0.073 C 
ATOM     21  N   UNL     1      16.618   7.283  20.318  0.00  0.00    -0.266 NA
BRANCH  21  22
ATOM     22  C   UNL     1      16.343   7.994  20.631  0.00  0.00    +0.072 C 
BRANCH  22  23
ATOM     23  C   UNL     1      16.813   8.424  21.154  0.00  0.00    +0.015 C 
ATOM     24  C   UNL     1      17.284   8.856  21.678  0.00  0.00    +0.001 C 
ATOM     25  C   UNL     1      17.309   8.640  20.531  0.00  0.00    +0.001 C 
ATOM     26  C   UNL     1      16.317   8.210  21.778  0.00  0.00    +0.001 C 
ENDBRANCH  22  23
ENDBRANCH  21  22
ENDBRANCH  15  17
TORSDOF 8
ENDMDL
