MODEL 1
REMARK VINA RESULT:     -10.7      0.000      0.000
REMARK  Name = 
REMARK  5 active torsions:
REMARK  status: ('A' for Active; 'I' for Inactive)
REMARK    1  A    between atoms: S_2  and  N_4
REMARK    2  A    between atoms: S_2  and  C_25
REMARK    3  A    between atoms: N_4  and  C_5
REMARK    4  A    between atoms: C_9  and  N_13
REMARK    5  A    between atoms: C_16  and  C_20
REMARK                            x       y       z     vdW  Elec       q    Type
REMARK                         _______ _______ _______ _____ _____    ______ ____
ROOT
ATOM      5  C   UNL     1      -2.101   0.706  23.979  0.00  0.00    +0.157 C 
ATOM      6  C   UNL     1      -1.832   1.486  23.960  0.00  0.00    +0.164 C 
ATOM      7  O   UNL     1      -1.007   1.472  23.968  0.00  0.00    -0.350 OA
ATOM      8  C   UNL     1      -0.766   0.683  23.992  0.00  0.00    +0.166 C 
ATOM      9  C   UNL     1      -0.107   0.187  24.011  0.00  0.00    +0.154 C 
ATOM     10  C   UNL     1      -0.375  -0.592  24.030  0.00  0.00    +0.166 C 
ATOM     11  O   UNL     1      -1.200  -0.579  24.022  0.00  0.00    -0.350 OA
ATOM     12  C   UNL     1      -1.441   0.209  23.998  0.00  0.00    +0.164 C 
ENDROOT
BRANCH   9  13
ATOM     13  N   UNL     1       0.682   0.428  24.012  0.00  0.00    -0.200 NA
ATOM     14  C   UNL     1       1.178   0.218  23.388  0.00  0.00    +0.237 A 
ATOM     15  N   UNL     1       1.968   0.459  23.389  0.00  0.00    -0.209 NA
ATOM     16  C   UNL     1       2.464   0.248  22.765  0.00  0.00    +0.120 A 
ATOM     17  C   UNL     1       2.172  -0.203  22.140  0.00  0.00    +0.043 A 
ATOM     18  C   UNL     1       1.383  -0.445  22.138  0.00  0.00    +0.104 A 
ATOM     19  N   UNL     1       0.886  -0.234  22.763  0.00  0.00    -0.211 NA
BRANCH  16  20
ATOM     20  C   UNL     1       3.253   0.489  22.766  0.00  0.00    +0.163 A 
ATOM     21  C   UNL     1       3.909   0.000  22.879  0.00  0.00    +0.042 A 
ATOM     22  C   UNL     1       4.587   0.469  22.837  0.00  0.00    +0.044 A 
ATOM     23  C   UNL     1       4.349   1.247  22.698  0.00  0.00    +0.180 A 
ATOM     24  O   UNL     1       3.526   1.259  22.654  0.00  0.00    -0.449 OA
ENDBRANCH  16  20
ENDBRANCH   9  13
BRANCH   5   4
ATOM      4  N   UNL     1      -2.889   0.465  23.978  0.00  0.00    -0.074 NA
BRANCH   4   2
ATOM      1  O   UNL     1      -3.362   0.580  25.038  0.00  0.00    -0.152 OA
ATOM      2  S   UNL     1      -3.470   0.949  24.308  0.00  0.00    +0.077 S 
ATOM      3  O   UNL     1      -3.577   1.318  23.578  0.00  0.00    -0.152 OA
BRANCH   2  25
ATOM     25  C   UNL     1      -4.050   1.434  24.638  0.00  0.00    +0.124 A 
ATOM     26  C   UNL     1      -3.937   2.250  24.671  0.00  0.00    +0.020 A 
ATOM     27  C   UNL     1      -4.518   2.733  25.001  0.00  0.00    +0.001 A 
ATOM     28  C   UNL     1      -4.405   3.550  25.034  0.00  0.00    +0.000 A 
ATOM     29  C   UNL     1      -4.986   4.034  25.364  0.00  0.00    +0.000 A 
ATOM     30  C   UNL     1      -5.681   3.701  25.661  0.00  0.00    +0.000 A 
ATOM     31  C   UNL     1      -5.794   2.885  25.628  0.00  0.00    +0.000 A 
ATOM     32  C   UNL     1      -5.213   2.400  25.298  0.00  0.00    +0.000 A 
ATOM     33  C   UNL     1      -5.326   1.585  25.265  0.00  0.00    +0.001 A 
ATOM     34  C   UNL     1      -4.745   1.101  24.935  0.00  0.00    +0.020 A 
ENDBRANCH   2  25
ENDBRANCH   4   2
ENDBRANCH   5   4
TORSDOF 5
ENDMDL
MODEL 2
REMARK VINA RESULT:      -9.7      1.949      2.859
REMARK  Name = 
REMARK  5 active torsions:
REMARK  status: ('A' for Active; 'I' for Inactive)
REMARK    1  A    between atoms: S_2  and  N_4
REMARK    2  A    between atoms: S_2  and  C_25
REMARK    3  A    between atoms: N_4  and  C_5
REMARK    4  A    between atoms: C_9  and  N_13
REMARK    5  A    between atoms: C_16  and  C_20
REMARK                            x       y       z     vdW  Elec       q    Type
REMARK                         _______ _______ _______ _____ _____    ______ ____
ROOT
ATOM      5  C   UNL     1      -1.517   1.128  24.866  0.00  0.00    +0.157 C 
ATOM      6  C   UNL     1      -1.072   0.812  25.486  0.00  0.00    +0.164 C 
ATOM      7  O   UNL     1      -0.274   0.901  25.297  0.00  0.00    -0.350 OA
ATOM      8  C   UNL     1      -0.225   1.271  24.562  0.00  0.00    +0.166 C 
ATOM      9  C   UNL     1       0.298   1.555  23.991  0.00  0.00    +0.154 C 
ATOM     10  C   UNL     1      -0.146   1.871  23.372  0.00  0.00    +0.166 C 
ATOM     11  O   UNL     1      -0.945   1.782  23.560  0.00  0.00    -0.350 OA
ATOM     12  C   UNL     1      -0.993   1.412  24.295  0.00  0.00    +0.164 C 
ENDROOT
BRANCH   9  13
ATOM     13  N   UNL     1       1.122   1.529  24.031  0.00  0.00    -0.200 NA
ATOM     14  C   UNL     1       1.544   1.035  23.523  0.00  0.00    +0.237 A 
ATOM     15  N   UNL     1       2.368   1.009  23.563  0.00  0.00    -0.209 NA
ATOM     16  C   UNL     1       2.791   0.516  23.056  0.00  0.00    +0.120 A 
ATOM     17  C   UNL     1       2.390   0.048  22.507  0.00  0.00    +0.043 A 
ATOM     18  C   UNL     1       1.566   0.074  22.466  0.00  0.00    +0.104 A 
ATOM     19  N   UNL     1       1.143   0.568  22.974  0.00  0.00    -0.211 NA
BRANCH  16  20
ATOM     20  C   UNL     1       3.614   0.489  23.096  0.00  0.00    +0.163 A 
ATOM     21  C   UNL     1       4.072  -0.189  23.204  0.00  0.00    +0.042 A 
ATOM     22  C   UNL     1       4.866   0.037  23.210  0.00  0.00    +0.044 A 
ATOM     23  C   UNL     1       4.897   0.855  23.106  0.00  0.00    +0.180 A 
ATOM     24  O   UNL     1       4.124   1.134  23.035  0.00  0.00    -0.449 OA
ENDBRANCH  16  20
ENDBRANCH   9  13
BRANCH   5   4
ATOM      4  N   UNL     1      -2.340   1.154  24.826  0.00  0.00    -0.074 NA
BRANCH   4   2
ATOM      1  O   UNL     1      -2.864   0.712  23.882  0.00  0.00    -0.152 OA
ATOM      2  S   UNL     1      -2.768   0.468  24.665  0.00  0.00    +0.077 S 
ATOM      3  O   UNL     1      -2.672   0.224  25.447  0.00  0.00    -0.152 OA
BRANCH   2  25
ATOM     25  C   UNL     1      -3.197  -0.219  24.503  0.00  0.00    +0.124 A 
ATOM     26  C   UNL     1      -2.851  -0.958  24.619  0.00  0.00    +0.020 A 
ATOM     27  C   UNL     1      -3.279  -1.644  24.458  0.00  0.00    +0.001 A 
ATOM     28  C   UNL     1      -2.934  -2.384  24.574  0.00  0.00    +0.000 A 
ATOM     29  C   UNL     1      -3.362  -3.069  24.413  0.00  0.00    +0.000 A 
ATOM     30  C   UNL     1      -4.138  -3.016  24.135  0.00  0.00    +0.000 A 
ATOM     31  C   UNL     1      -4.484  -2.276  24.019  0.00  0.00    +0.000 A 
ATOM     32  C   UNL     1      -4.055  -1.590  24.180  0.00  0.00    +0.000 A 
ATOM     33  C   UNL     1      -4.401  -0.850  24.065  0.00  0.00    +0.001 A 
ATOM     34  C   UNL     1      -3.973  -0.165  24.226  0.00  0.00    +0.020 A 
ENDBRANCH   2  25
ENDBRANCH   4   2
ENDBRANCH   5   4
TORSDOF 5
ENDMDL
MODEL 3
REMARK VINA RESULT:      -9.7      1.780      2.443
REMARK  Name = 
REMARK  5 active torsions:
REMARK  status: ('A' for Active; 'I' for Inactive)
REMARK    1  A    between atoms: S_2  and  N_4
REMARK    2  A    between atoms: S_2  and  C_25
REMARK    3  A    between atoms: N_4  and  C_5
REMARK    4  A    between atoms: C_9  and  N_13
REMARK    5  A    between atoms: C_16  and  C_20
REMARK                            x       y       z     vdW  Elec       q    Type
REMARK                         _______ _______ _______ _____ _____    ______ ____
ROOT
ATOM      5  C   UNL     1      -1.762   3.753  25.317  0.00  0.00    +0.157 C 
ATOM      6  C   UNL     1      -1.633   4.011  24.544  0.00  0.00    +0.164 C 
ATOM      7  O   UNL     1      -0.966   3.622  24.253  0.00  0.00    -0.350 OA
ATOM      8  C   UNL     1      -0.682   3.123  24.846  0.00  0.00    +0.166 C 
ATOM      9  C   UNL     1      -0.096   2.574  25.033  0.00  0.00    +0.154 C 
ATOM     10  C   UNL     1      -0.225   2.316  25.805  0.00  0.00    +0.166 C 
ATOM     11  O   UNL     1      -0.892   2.705  26.097  0.00  0.00    -0.350 OA
ATOM     12  C   UNL     1      -1.174   3.203  25.504  0.00  0.00    +0.164 C 
ENDROOT
BRANCH   9  13
ATOM     13  N   UNL     1       0.514   2.327  24.535  0.00  0.00    -0.200 NA
ATOM     14  C   UNL     1       0.499   1.570  24.210  0.00  0.00    +0.237 A 
ATOM     15  N   UNL     1       1.109   1.322  23.712  0.00  0.00    -0.209 NA
ATOM     16  C   UNL     1       1.095   0.565  23.386  0.00  0.00    +0.120 A 
ATOM     17  C   UNL     1       0.470   0.054  23.559  0.00  0.00    +0.043 A 
ATOM     18  C   UNL     1      -0.139   0.300  24.057  0.00  0.00    +0.104 A 
ATOM     19  N   UNL     1      -0.125   1.059  24.382  0.00  0.00    -0.211 NA
BRANCH  16  20
ATOM     20  C   UNL     1       1.704   0.317  22.888  0.00  0.00    +0.163 A 
ATOM     21  C   UNL     1       1.621  -0.162  22.222  0.00  0.00    +0.042 A 
ATOM     22  C   UNL     1       2.368  -0.271  21.890  0.00  0.00    +0.044 A 
ATOM     23  C   UNL     1       2.913   0.142  22.352  0.00  0.00    +0.180 A 
ATOM     24  O   UNL     1       2.503   0.505  22.968  0.00  0.00    -0.449 OA
ENDBRANCH  16  20
ENDBRANCH   9  13
BRANCH   5   4
ATOM      4  N   UNL     1      -2.370   4.000  25.815  0.00  0.00    -0.074 NA
BRANCH   4   2
ATOM      1  O   UNL     1      -3.122   3.373  26.451  0.00  0.00    -0.152 OA
ATOM      2  S   UNL     1      -3.138   3.717  25.701  0.00  0.00    +0.077 S 
ATOM      3  O   UNL     1      -3.153   4.062  24.952  0.00  0.00    -0.152 OA
BRANCH   2  25
ATOM     25  C   UNL     1      -3.905   3.435  25.588  0.00  0.00    +0.124 A 
ATOM     26  C   UNL     1      -4.027   2.658  25.343  0.00  0.00    +0.020 A 
ATOM     27  C   UNL     1      -4.793   2.376  25.230  0.00  0.00    +0.001 A 
ATOM     28  C   UNL     1      -4.916   1.598  24.986  0.00  0.00    +0.000 A 
ATOM     29  C   UNL     1      -5.682   1.316  24.872  0.00  0.00    +0.000 A 
ATOM     30  C   UNL     1      -6.328   1.814  25.003  0.00  0.00    +0.000 A 
ATOM     31  C   UNL     1      -6.206   2.592  25.248  0.00  0.00    +0.000 A 
ATOM     32  C   UNL     1      -5.439   2.874  25.361  0.00  0.00    +0.000 A 
ATOM     33  C   UNL     1      -5.317   3.652  25.605  0.00  0.00    +0.001 A 
ATOM     34  C   UNL     1      -4.551   3.933  25.719  0.00  0.00    +0.020 A 
ENDBRANCH   2  25
ENDBRANCH   4   2
ENDBRANCH   5   4
TORSDOF 5
ENDMDL
MODEL 4
REMARK VINA RESULT:      -9.6      1.423      7.122
REMARK  Name = 
REMARK  5 active torsions:
REMARK  status: ('A' for Active; 'I' for Inactive)
REMARK    1  A    between atoms: S_2  and  N_4
REMARK    2  A    between atoms: S_2  and  C_25
REMARK    3  A    between atoms: N_4  and  C_5
REMARK    4  A    between atoms: C_9  and  N_13
REMARK    5  A    between atoms: C_16  and  C_20
REMARK                            x       y       z     vdW  Elec       q    Type
REMARK                         _______ _______ _______ _____ _____    ______ ____
ROOT
ATOM      5  C   UNL     1       0.548   0.175  23.337  0.00  0.00    +0.157 C 
ATOM      6  C   UNL     1       0.606   0.997  23.390  0.00  0.00    +0.164 C 
ATOM      7  O   UNL     1      -0.051   1.271  23.806  0.00  0.00    -0.350 OA
ATOM      8  C   UNL     1      -0.515   0.621  24.011  0.00  0.00    +0.166 C 
ATOM      9  C   UNL     1      -1.207   0.388  24.394  0.00  0.00    +0.154 C 
ATOM     10  C   UNL     1      -1.265  -0.433  24.341  0.00  0.00    +0.166 C 
ATOM     11  O   UNL     1      -0.608  -0.708  23.925  0.00  0.00    -0.350 OA
ATOM     12  C   UNL     1      -0.145  -0.058  23.721  0.00  0.00    +0.164 C 
ENDROOT
BRANCH   9  13
ATOM     13  N   UNL     1      -1.747   0.889  24.766  0.00  0.00    -0.200 NA
ATOM     14  C   UNL     1      -2.546   0.857  24.565  0.00  0.00    +0.237 A 
ATOM     15  N   UNL     1      -3.086   1.357  24.937  0.00  0.00    -0.209 NA
ATOM     16  C   UNL     1      -3.885   1.325  24.736  0.00  0.00    +0.120 A 
ATOM     17  C   UNL     1      -4.145   0.792  24.162  0.00  0.00    +0.043 A 
ATOM     18  C   UNL     1      -3.606   0.291  23.790  0.00  0.00    +0.104 A 
ATOM     19  N   UNL     1      -2.806   0.323  23.991  0.00  0.00    -0.211 NA
BRANCH  16  20
ATOM     20  C   UNL     1      -4.426   1.826  25.107  0.00  0.00    +0.163 A 
ATOM     21  C   UNL     1      -5.189   1.622  25.347  0.00  0.00    +0.042 A 
ATOM     22  C   UNL     1      -5.534   2.287  25.693  0.00  0.00    +0.044 A 
ATOM     23  C   UNL     1      -4.983   2.901  25.666  0.00  0.00    +0.180 A 
ATOM     24  O   UNL     1      -4.299   2.616  25.305  0.00  0.00    -0.449 OA
ENDBRANCH  16  20
ENDBRANCH   9  13
BRANCH   5   4
ATOM      4  N   UNL     1       1.088  -0.326  22.965  0.00  0.00    -0.074 NA
BRANCH   4   2
ATOM      1  O   UNL     1       1.837   0.179  22.227  0.00  0.00    -0.152 OA
ATOM      2  S   UNL     1       1.894  -0.150  22.982  0.00  0.00    +0.077 S 
ATOM      3  O   UNL     1       1.950  -0.478  23.736  0.00  0.00    -0.152 OA
BRANCH   2  25
ATOM     25  C   UNL     1       2.700   0.027  22.998  0.00  0.00    +0.124 A 
ATOM     26  C   UNL     1       3.226  -0.483  23.375  0.00  0.00    +0.020 A 
ATOM     27  C   UNL     1       4.031  -0.307  23.391  0.00  0.00    +0.001 A 
ATOM     28  C   UNL     1       4.559  -0.817  23.769  0.00  0.00    +0.000 A 
ATOM     29  C   UNL     1       5.364  -0.640  23.784  0.00  0.00    +0.000 A 
ATOM     30  C   UNL     1       5.643   0.047  23.422  0.00  0.00    +0.000 A 
ATOM     31  C   UNL     1       5.117   0.557  23.045  0.00  0.00    +0.000 A 
ATOM     32  C   UNL     1       4.311   0.381  23.029  0.00  0.00    +0.000 A 
ATOM     33  C   UNL     1       3.784   0.891  22.651  0.00  0.00    +0.001 A 
ATOM     34  C   UNL     1       2.979   0.714  22.635  0.00  0.00    +0.020 A 
ENDBRANCH   2  25
ENDBRANCH   4   2
ENDBRANCH   5   4
TORSDOF 5
ENDMDL
MODEL 5
REMARK VINA RESULT:      -8.7      2.869      5.035
REMARK  Name = 
REMARK  5 active torsions:
REMARK  status: ('A' for Active; 'I' for Inactive)
REMARK    1  A    between atoms: S_2  and  N_4
REMARK    2  A    between atoms: S_2  and  C_25
REMARK    3  A    between atoms: N_4  and  C_5
REMARK    4  A    between atoms: C_9  and  N_13
REMARK    5  A    between atoms: C_16  and  C_20
REMARK                            x       y       z     vdW  Elec       q    Type
REMARK                         _______ _______ _______ _____ _____    ______ ____
ROOT
ATOM      5  C   UNL     1      -0.051   1.452  24.716  0.00  0.00    +0.157 C 
ATOM      6  C   UNL     1      -0.126   1.277  23.913  0.00  0.00    +0.164 C 
ATOM      7  O   UNL     1      -0.525   0.558  23.847  0.00  0.00    -0.350 OA
ATOM      8  C   UNL     1      -0.696   0.288  24.607  0.00  0.00    +0.166 C 
ATOM      9  C   UNL     1      -1.047  -0.322  25.036  0.00  0.00    +0.154 C 
ATOM     10  C   UNL     1      -0.972  -0.147  25.838  0.00  0.00    +0.166 C 
ATOM     11  O   UNL     1      -0.574   0.573  25.906  0.00  0.00    -0.350 OA
ATOM     12  C   UNL     1      -0.403   0.841  25.146  0.00  0.00    +0.164 C 
ENDROOT
BRANCH   9  13
ATOM     13  N   UNL     1      -1.411  -0.991  24.719  0.00  0.00    -0.200 NA
ATOM     14  C   UNL     1      -2.222  -1.105  24.813  0.00  0.00    +0.237 A 
ATOM     15  N   UNL     1      -2.585  -1.774  24.496  0.00  0.00    -0.209 NA
ATOM     16  C   UNL     1      -3.396  -1.887  24.590  0.00  0.00    +0.120 A 
ATOM     17  C   UNL     1      -3.845  -1.331  25.001  0.00  0.00    +0.043 A 
ATOM     18  C   UNL     1      -3.483  -0.661  25.319  0.00  0.00    +0.104 A 
ATOM     19  N   UNL     1      -2.671  -0.548  25.225  0.00  0.00    -0.211 NA
BRANCH  16  20
ATOM     20  C   UNL     1      -3.760  -2.557  24.272  0.00  0.00    +0.163 A 
ATOM     21  C   UNL     1      -4.353  -2.559  23.698  0.00  0.00    +0.042 A 
ATOM     22  C   UNL     1      -4.555  -3.344  23.543  0.00  0.00    +0.044 A 
ATOM     23  C   UNL     1      -4.086  -3.826  24.022  0.00  0.00    +0.180 A 
ATOM     24  O   UNL     1      -3.595  -3.339  24.472  0.00  0.00    -0.449 OA
ENDBRANCH  16  20
ENDBRANCH   9  13
BRANCH   5   4
ATOM      4  N   UNL     1       0.312   2.121  25.034  0.00  0.00    -0.074 NA
BRANCH   4   2
ATOM      1  O   UNL     1      -0.062   2.851  25.864  0.00  0.00    -0.152 OA
ATOM      2  S   UNL     1      -0.086   2.844  25.039  0.00  0.00    +0.077 S 
ATOM      3  O   UNL     1      -0.109   2.837  24.214  0.00  0.00    -0.152 OA
BRANCH   2  25
ATOM     25  C   UNL     1      -0.483   3.567  25.044  0.00  0.00    +0.124 A 
ATOM     26  C   UNL     1      -1.238   3.621  25.373  0.00  0.00    +0.020 A 
ATOM     27  C   UNL     1      -1.634   4.344  25.378  0.00  0.00    +0.001 A 
ATOM     28  C   UNL     1      -2.389   4.399  25.706  0.00  0.00    +0.000 A 
ATOM     29  C   UNL     1      -2.786   5.121  25.711  0.00  0.00    +0.000 A 
ATOM     30  C   UNL     1      -2.428   5.791  25.387  0.00  0.00    +0.000 A 
ATOM     31  C   UNL     1      -1.673   5.737  25.059  0.00  0.00    +0.000 A 
ATOM     32  C   UNL     1      -1.276   5.014  25.054  0.00  0.00    +0.000 A 
ATOM     33  C   UNL     1      -0.522   4.960  24.726  0.00  0.00    +0.001 A 
ATOM     34  C   UNL     1      -0.125   4.237  24.721  0.00  0.00    +0.020 A 
ENDBRANCH   2  25
ENDBRANCH   4   2
ENDBRANCH   5   4
TORSDOF 5
ENDMDL
MODEL 6
REMARK VINA RESULT:      -8.6      2.939      5.009
REMARK  Name = 
REMARK  5 active torsions:
REMARK  status: ('A' for Active; 'I' for Inactive)
REMARK    1  A    between atoms: S_2  and  N_4
REMARK    2  A    between atoms: S_2  and  C_25
REMARK    3  A    between atoms: N_4  and  C_5
REMARK    4  A    between atoms: C_9  and  N_13
REMARK    5  A    between atoms: C_16  and  C_20
REMARK                            x       y       z     vdW  Elec       q    Type
REMARK                         _______ _______ _______ _____ _____    ______ ____
ROOT
ATOM      5  C   UNL     1      -0.484  -0.392  24.768  0.00  0.00    +0.157 C 
ATOM      6  C   UNL     1      -0.333  -0.095  24.013  0.00  0.00    +0.164 C 
ATOM      7  O   UNL     1      -0.277   0.726  24.069  0.00  0.00    -0.350 OA
ATOM      8  C   UNL     1      -0.395   0.937  24.857  0.00  0.00    +0.166 C 
ATOM      9  C   UNL     1      -0.433   1.574  25.379  0.00  0.00    +0.154 C 
ATOM     10  C   UNL     1      -0.585   1.278  26.134  0.00  0.00    +0.166 C 
ATOM     11  O   UNL     1      -0.640   0.456  26.079  0.00  0.00    -0.350 OA
ATOM     12  C   UNL     1      -0.523   0.246  25.290  0.00  0.00    +0.164 C 
ENDROOT
BRANCH   9  13
ATOM     13  N   UNL     1      -0.337   2.370  25.182  0.00  0.00    -0.200 NA
ATOM     14  C   UNL     1      -0.946   2.907  25.323  0.00  0.00    +0.237 A 
ATOM     15  N   UNL     1      -0.850   3.702  25.126  0.00  0.00    -0.209 NA
ATOM     16  C   UNL     1      -1.459   4.239  25.267  0.00  0.00    +0.120 A 
ATOM     17  C   UNL     1      -2.166   3.982  25.606  0.00  0.00    +0.043 A 
ATOM     18  C   UNL     1      -2.263   3.187  25.804  0.00  0.00    +0.104 A 
ATOM     19  N   UNL     1      -1.653   2.649  25.662  0.00  0.00    -0.211 NA
BRANCH  16  20
ATOM     20  C   UNL     1      -1.363   5.035  25.070  0.00  0.00    +0.163 A 
ATOM     21  C   UNL     1      -1.954   5.611  25.076  0.00  0.00    +0.042 A 
ATOM     22  C   UNL     1      -1.617   6.326  24.842  0.00  0.00    +0.044 A 
ATOM     23  C   UNL     1      -0.816   6.192  24.691  0.00  0.00    +0.180 A 
ATOM     24  O   UNL     1      -0.660   5.394  24.832  0.00  0.00    -0.449 OA
ENDBRANCH  16  20
ENDBRANCH   9  13
BRANCH   5   4
ATOM      4  N   UNL     1      -0.580  -1.187  24.966  0.00  0.00    -0.074 NA
BRANCH   4   2
ATOM      1  O   UNL     1      -1.044  -1.611  23.982  0.00  0.00    -0.152 OA
ATOM      2  S   UNL     1      -1.280  -1.579  24.772  0.00  0.00    +0.077 S 
ATOM      3  O   UNL     1      -1.516  -1.547  25.562  0.00  0.00    -0.152 OA
BRANCH   2  25
ATOM     25  C   UNL     1      -1.980  -1.971  24.579  0.00  0.00    +0.124 A 
ATOM     26  C   UNL     1      -2.655  -1.540  24.383  0.00  0.00    +0.020 A 
ATOM     27  C   UNL     1      -3.353  -1.932  24.190  0.00  0.00    +0.001 A 
ATOM     28  C   UNL     1      -4.029  -1.501  23.994  0.00  0.00    +0.000 A 
ATOM     29  C   UNL     1      -4.728  -1.893  23.801  0.00  0.00    +0.000 A 
ATOM     30  C   UNL     1      -4.752  -2.719  23.803  0.00  0.00    +0.000 A 
ATOM     31  C   UNL     1      -4.077  -3.150  23.999  0.00  0.00    +0.000 A 
ATOM     32  C   UNL     1      -3.377  -2.758  24.192  0.00  0.00    +0.000 A 
ATOM     33  C   UNL     1      -2.703  -3.189  24.388  0.00  0.00    +0.001 A 
ATOM     34  C   UNL     1      -2.004  -2.797  24.581  0.00  0.00    +0.020 A 
ENDBRANCH   2  25
ENDBRANCH   4   2
ENDBRANCH   5   4
TORSDOF 5
ENDMDL
MODEL 7
REMARK VINA RESULT:      -7.5     16.489     17.568
REMARK  Name = 
REMARK  5 active torsions:
REMARK  status: ('A' for Active; 'I' for Inactive)
REMARK    1  A    between atoms: S_2  and  N_4
REMARK    2  A    between atoms: S_2  and  C_25
REMARK    3  A    between atoms: N_4  and  C_5
REMARK    4  A    between atoms: C_9  and  N_13
REMARK    5  A    between atoms: C_16  and  C_20
REMARK                            x       y       z     vdW  Elec       q    Type
REMARK                         _______ _______ _______ _____ _____    ______ ____
ROOT
ATOM      5  C   UNL     1      -6.023  -9.114   9.885  0.00  0.00    +0.157 C 
ATOM      6  C   UNL     1      -6.225  -8.643  10.532  0.00  0.00    +0.164 C 
ATOM      7  O   UNL     1      -5.816  -8.927  11.190  0.00  0.00    -0.350 OA
ATOM      8  C   UNL     1      -5.362  -9.572  10.950  0.00  0.00    +0.166 C 
ATOM      9  C   UNL     1      -4.829 -10.146  11.208  0.00  0.00    +0.154 C 
ATOM     10  C   UNL     1      -4.628 -10.616  10.561  0.00  0.00    +0.166 C 
ATOM     11  O   UNL     1      -5.036 -10.333   9.902  0.00  0.00    -0.350 OA
ATOM     12  C   UNL     1      -5.490  -9.688  10.143  0.00  0.00    +0.164 C 
ENDROOT
BRANCH   9  13
ATOM     13  N   UNL     1      -4.546 -10.235  11.978  0.00  0.00    -0.200 NA
ATOM     14  C   UNL     1      -3.735 -10.279  12.117  0.00  0.00    +0.237 A 
ATOM     15  N   UNL     1      -3.452 -10.368  12.887  0.00  0.00    -0.209 NA
ATOM     16  C   UNL     1      -2.641 -10.412  13.027  0.00  0.00    +0.120 A 
ATOM     17  C   UNL     1      -2.111 -10.368  12.396  0.00  0.00    +0.043 A 
ATOM     18  C   UNL     1      -2.392 -10.279  11.626  0.00  0.00    +0.104 A 
ATOM     19  N   UNL     1      -3.205 -10.235  11.486  0.00  0.00    -0.211 NA
BRANCH  16  20
ATOM     20  C   UNL     1      -2.358 -10.501  13.797  0.00  0.00    +0.163 A 
ATOM     21  C   UNL     1      -2.807 -10.710  14.457  0.00  0.00    +0.042 A 
ATOM     22  C   UNL     1      -2.305 -10.735  15.111  0.00  0.00    +0.044 A 
ATOM     23  C   UNL     1      -1.545 -10.542  14.854  0.00  0.00    +0.180 A 
ATOM     24  O   UNL     1      -1.578 -10.397  14.042  0.00  0.00    -0.449 OA
ENDBRANCH  16  20
ENDBRANCH   9  13
BRANCH   5   4
ATOM      4  N   UNL     1      -6.306  -9.025   9.115  0.00  0.00    -0.074 NA
BRANCH   4   2
ATOM      1  O   UNL     1      -7.442  -9.282   9.046  0.00  0.00    -0.152 OA
ATOM      2  S   UNL     1      -6.994  -8.593   8.975  0.00  0.00    +0.077 S 
ATOM      3  O   UNL     1      -6.546  -7.903   8.903  0.00  0.00    -0.152 OA
BRANCH   2  25
ATOM     25  C   UNL     1      -7.682  -8.160   8.834  0.00  0.00    +0.124 A 
ATOM     26  C   UNL     1      -7.634  -7.365   8.621  0.00  0.00    +0.020 A 
ATOM     27  C   UNL     1      -8.322  -6.933   8.480  0.00  0.00    +0.001 A 
ATOM     28  C   UNL     1      -8.274  -6.137   8.266  0.00  0.00    +0.000 A 
ATOM     29  C   UNL     1      -8.962  -5.705   8.126  0.00  0.00    +0.000 A 
ATOM     30  C   UNL     1      -9.700  -6.069   8.199  0.00  0.00    +0.000 A 
ATOM     31  C   UNL     1      -9.748  -6.864   8.413  0.00  0.00    +0.000 A 
ATOM     32  C   UNL     1      -9.060  -7.297   8.553  0.00  0.00    +0.000 A 
ATOM     33  C   UNL     1      -9.108  -8.091   8.767  0.00  0.00    +0.001 A 
ATOM     34  C   UNL     1      -8.420  -8.523   8.907  0.00  0.00    +0.020 A 
ENDBRANCH   2  25
ENDBRANCH   4   2
ENDBRANCH   5   4
TORSDOF 5
ENDMDL
MODEL 8
REMARK VINA RESULT:      -7.3     15.132     16.614
REMARK  Name = 
REMARK  5 active torsions:
REMARK  status: ('A' for Active; 'I' for Inactive)
REMARK    1  A    between atoms: S_2  and  N_4
REMARK    2  A    between atoms: S_2  and  C_25
REMARK    3  A    between atoms: N_4  and  C_5
REMARK    4  A    between atoms: C_9  and  N_13
REMARK    5  A    between atoms: C_16  and  C_20
REMARK                            x       y       z     vdW  Elec       q    Type
REMARK                         _______ _______ _______ _____ _____    ______ ____
ROOT
ATOM      5  C   UNL     1      -5.522  -9.716  12.468  0.00  0.00    +0.157 C 
ATOM      6  C   UNL     1      -6.260  -9.416  12.683  0.00  0.00    +0.164 C 
ATOM      7  O   UNL     1      -6.394  -9.614  13.473  0.00  0.00    -0.350 OA
ATOM      8  C   UNL     1      -5.739 -10.035  13.746  0.00  0.00    +0.166 C 
ATOM      9  C   UNL     1      -5.417 -10.416  14.402  0.00  0.00    +0.154 C 
ATOM     10  C   UNL     1      -4.679 -10.716  14.186  0.00  0.00    +0.166 C 
ATOM     11  O   UNL     1      -4.545 -10.519  13.396  0.00  0.00    -0.350 OA
ATOM     12  C   UNL     1      -5.199 -10.098  13.124  0.00  0.00    +0.164 C 
ENDROOT
BRANCH   9  13
ATOM     13  N   UNL     1      -5.770 -10.487  15.144  0.00  0.00    -0.200 NA
ATOM     14  C   UNL     1      -5.305 -10.482  15.825  0.00  0.00    +0.237 A 
ATOM     15  N   UNL     1      -5.659 -10.553  16.567  0.00  0.00    -0.209 NA
ATOM     16  C   UNL     1      -5.194 -10.548  17.248  0.00  0.00    +0.120 A 
ATOM     17  C   UNL     1      -4.374 -10.473  17.187  0.00  0.00    +0.043 A 
ATOM     18  C   UNL     1      -4.020 -10.402  16.446  0.00  0.00    +0.104 A 
ATOM     19  N   UNL     1      -4.486 -10.407  15.764  0.00  0.00    -0.211 NA
BRANCH  16  20
ATOM     20  C   UNL     1      -5.547 -10.619  17.990  0.00  0.00    +0.163 A 
ATOM     21  C   UNL     1      -6.350 -10.747  18.135  0.00  0.00    +0.042 A 
ATOM     22  C   UNL     1      -6.460 -10.781  18.952  0.00  0.00    +0.044 A 
ATOM     23  C   UNL     1      -5.725 -10.675  19.312  0.00  0.00    +0.180 A 
ATOM     24  O   UNL     1      -5.162 -10.575  18.717  0.00  0.00    -0.449 OA
ENDBRANCH  16  20
ENDBRANCH   9  13
BRANCH   5   4
ATOM      4  N   UNL     1      -5.168  -9.646  11.726  0.00  0.00    -0.074 NA
BRANCH   4   2
ATOM      1  O   UNL     1      -5.830 -10.030  10.845  0.00  0.00    -0.152 OA
ATOM      2  S   UNL     1      -5.578  -9.288  11.105  0.00  0.00    +0.077 S 
ATOM      3  O   UNL     1      -5.326  -8.547  11.365  0.00  0.00    -0.152 OA
BRANCH   2  25
ATOM     25  C   UNL     1      -5.988  -8.931  10.484  0.00  0.00    +0.124 A 
ATOM     26  C   UNL     1      -6.809  -8.992  10.442  0.00  0.00    +0.020 A 
ATOM     27  C   UNL     1      -7.218  -8.635   9.822  0.00  0.00    +0.001 A 
ATOM     28  C   UNL     1      -8.040  -8.695   9.779  0.00  0.00    +0.000 A 
ATOM     29  C   UNL     1      -8.448  -8.338   9.159  0.00  0.00    +0.000 A 
ATOM     30  C   UNL     1      -8.035  -7.920   8.579  0.00  0.00    +0.000 A 
ATOM     31  C   UNL     1      -7.214  -7.859   8.621  0.00  0.00    +0.000 A 
ATOM     32  C   UNL     1      -6.804  -8.216   9.242  0.00  0.00    +0.000 A 
ATOM     33  C   UNL     1      -5.983  -8.156   9.284  0.00  0.00    +0.001 A 
ATOM     34  C   UNL     1      -5.575  -8.513   9.904  0.00  0.00    +0.020 A 
ENDBRANCH   2  25
ENDBRANCH   4   2
ENDBRANCH   5   4
TORSDOF 5
ENDMDL
MODEL 9
REMARK VINA RESULT:      -7.0     15.212     17.274
REMARK  Name = 
REMARK  5 active torsions:
REMARK  status: ('A' for Active; 'I' for Inactive)
REMARK    1  A    between atoms: S_2  and  N_4
REMARK    2  A    between atoms: S_2  and  C_25
REMARK    3  A    between atoms: N_4  and  C_5
REMARK    4  A    between atoms: C_9  and  N_13
REMARK    5  A    between atoms: C_16  and  C_20
REMARK                            x       y       z     vdW  Elec       q    Type
REMARK                         _______ _______ _______ _____ _____    ______ ____
ROOT
ATOM      5  C   UNL     1      -5.750 -10.082  13.066  0.00  0.00    +0.157 C 
ATOM      6  C   UNL     1      -6.429  -9.775  12.711  0.00  0.00    +0.164 C 
ATOM      7  O   UNL     1      -7.031  -9.770  13.275  0.00  0.00    -0.350 OA
ATOM      8  C   UNL     1      -6.725 -10.074  13.979  0.00  0.00    +0.166 C 
ATOM      9  C   UNL     1      -6.907 -10.259  14.761  0.00  0.00    +0.154 C 
ATOM     10  C   UNL     1      -6.228 -10.566  15.116  0.00  0.00    +0.166 C 
ATOM     11  O   UNL     1      -5.626 -10.571  14.552  0.00  0.00    -0.350 OA
ATOM     12  C   UNL     1      -5.933 -10.267  13.850  0.00  0.00    +0.164 C 
ENDROOT
BRANCH   9  13
ATOM     13  N   UNL     1      -7.639 -10.155  15.127  0.00  0.00    -0.200 NA
ATOM     14  C   UNL     1      -7.680  -9.858  15.895  0.00  0.00    +0.237 A 
ATOM     15  N   UNL     1      -8.412  -9.755  16.260  0.00  0.00    -0.209 NA
ATOM     16  C   UNL     1      -8.453  -9.458  17.028  0.00  0.00    +0.120 A 
ATOM     17  C   UNL     1      -7.760  -9.264  17.432  0.00  0.00    +0.043 A 
ATOM     18  C   UNL     1      -7.027  -9.367  17.068  0.00  0.00    +0.104 A 
ATOM     19  N   UNL     1      -6.987  -9.665  16.299  0.00  0.00    -0.211 NA
BRANCH  16  20
ATOM     20  C   UNL     1      -9.185  -9.354  17.393  0.00  0.00    +0.163 A 
ATOM     21  C   UNL     1      -9.561  -9.897  17.888  0.00  0.00    +0.042 A 
ATOM     22  C   UNL     1     -10.279  -9.569  18.129  0.00  0.00    +0.044 A 
ATOM     23  C   UNL     1     -10.346  -8.823  17.783  0.00  0.00    +0.180 A 
ATOM     24  O   UNL     1      -9.670  -8.691  17.328  0.00  0.00    -0.449 OA
ENDBRANCH  16  20
ENDBRANCH   9  13
BRANCH   5   4
ATOM      4  N   UNL     1      -5.018 -10.186  12.702  0.00  0.00    -0.074 NA
BRANCH   4   2
ATOM      1  O   UNL     1      -4.820  -9.197  12.115  0.00  0.00    -0.152 OA
ATOM      2  S   UNL     1      -4.921  -9.989  11.906  0.00  0.00    +0.077 S 
ATOM      3  O   UNL     1      -5.022 -10.781  11.698  0.00  0.00    -0.152 OA
BRANCH   2  25
ATOM     25  C   UNL     1      -4.823  -9.792  11.111  0.00  0.00    +0.124 A 
ATOM     26  C   UNL     1      -5.026 -10.334  10.524  0.00  0.00    +0.020 A 
ATOM     27  C   UNL     1      -4.929 -10.137   9.729  0.00  0.00    +0.001 A 
ATOM     28  C   UNL     1      -5.132 -10.679   9.141  0.00  0.00    +0.000 A 
ATOM     29  C   UNL     1      -5.034 -10.481   8.346  0.00  0.00    +0.000 A 
ATOM     30  C   UNL     1      -4.733  -9.741   8.139  0.00  0.00    +0.000 A 
ATOM     31  C   UNL     1      -4.530  -9.199   8.726  0.00  0.00    +0.000 A 
ATOM     32  C   UNL     1      -4.627  -9.396   9.521  0.00  0.00    +0.000 A 
ATOM     33  C   UNL     1      -4.424  -8.855  10.109  0.00  0.00    +0.001 A 
ATOM     34  C   UNL     1      -4.522  -9.052  10.903  0.00  0.00    +0.020 A 
ENDBRANCH   2  25
ENDBRANCH   4   2
ENDBRANCH   5   4
TORSDOF 5
ENDMDL
MODEL 10
REMARK VINA RESULT:      -6.7     14.615     15.543
REMARK  Name = 
REMARK  5 active torsions:
REMARK  status: ('A' for Active; 'I' for Inactive)
REMARK    1  A    between atoms: S_2  and  N_4
REMARK    2  A    between atoms: S_2  and  C_25
REMARK    3  A    between atoms: N_4  and  C_5
REMARK    4  A    between atoms: C_9  and  N_13
REMARK    5  A    between atoms: C_16  and  C_20
REMARK                            x       y       z     vdW  Elec       q    Type
REMARK                         _______ _______ _______ _____ _____    ______ ____
ROOT
ATOM      5  C   UNL     1      -7.138 -10.118  15.547  0.00  0.00    +0.157 C 
ATOM      6  C   UNL     1      -6.511  -9.650  15.809  0.00  0.00    +0.164 C 
ATOM      7  O   UNL     1      -5.965  -9.588  15.193  0.00  0.00    -0.350 OA
ATOM      8  C   UNL     1      -6.254 -10.019  14.551  0.00  0.00    +0.166 C 
ATOM      9  C   UNL     1      -6.096 -10.247  13.775  0.00  0.00    +0.154 C 
ATOM     10  C   UNL     1      -6.723 -10.716  13.514  0.00  0.00    +0.166 C 
ATOM     11  O   UNL     1      -7.269 -10.777  14.129  0.00  0.00    -0.350 OA
ATOM     12  C   UNL     1      -6.980 -10.347  14.770  0.00  0.00    +0.164 C 
ENDROOT
BRANCH   9  13
ATOM     13  N   UNL     1      -5.429 -10.043  13.335  0.00  0.00    -0.200 NA
ATOM     14  C   UNL     1      -5.472 -10.001  12.513  0.00  0.00    +0.237 A 
ATOM     15  N   UNL     1      -4.804  -9.797  12.074  0.00  0.00    -0.209 NA
ATOM     16  C   UNL     1      -4.848  -9.755  11.252  0.00  0.00    +0.120 A 
ATOM     17  C   UNL     1      -5.560  -9.917  10.868  0.00  0.00    +0.043 A 
ATOM     18  C   UNL     1      -6.228 -10.121  11.306  0.00  0.00    +0.104 A 
ATOM     19  N   UNL     1      -6.184 -10.163  12.129  0.00  0.00    -0.211 NA
BRANCH  16  20
ATOM     20  C   UNL     1      -4.180  -9.551  10.812  0.00  0.00    +0.163 A 
ATOM     21  C   UNL     1      -4.165  -9.377  10.005  0.00  0.00    +0.042 A 
ATOM     22  C   UNL     1      -3.386  -9.203   9.796  0.00  0.00    +0.044 A 
ATOM     23  C   UNL     1      -2.920  -9.270  10.473  0.00  0.00    +0.180 A 
ATOM     24  O   UNL     1      -3.411  -9.485  11.101  0.00  0.00    -0.449 OA
ENDBRANCH  16  20
ENDBRANCH   9  13
BRANCH   5   4
ATOM      4  N   UNL     1      -7.806 -10.323  15.986  0.00  0.00    -0.074 NA
BRANCH   4   2
ATOM      1  O   UNL     1      -8.894 -10.003  15.712  0.00  0.00    -0.152 OA
ATOM      2  S   UNL     1      -8.324  -9.736  16.246  0.00  0.00    +0.077 S 
ATOM      3  O   UNL     1      -7.754  -9.470  16.780  0.00  0.00    -0.152 OA
BRANCH   2  25
ATOM     25  C   UNL     1      -8.843  -9.150  16.507  0.00  0.00    +0.124 A 
ATOM     26  C   UNL     1      -9.131  -8.587  15.977  0.00  0.00    +0.020 A 
ATOM     27  C   UNL     1      -9.649  -8.002  16.238  0.00  0.00    +0.001 A 
ATOM     28  C   UNL     1      -9.937  -7.439  15.708  0.00  0.00    +0.000 A 
ATOM     29  C   UNL     1     -10.455  -6.853  15.969  0.00  0.00    +0.000 A 
ATOM     30  C   UNL     1     -10.686  -6.830  16.762  0.00  0.00    +0.000 A 
ATOM     31  C   UNL     1     -10.398  -7.392  17.291  0.00  0.00    +0.000 A 
ATOM     32  C   UNL     1      -9.880  -7.978  17.031  0.00  0.00    +0.000 A 
ATOM     33  C   UNL     1      -9.592  -8.540  17.561  0.00  0.00    +0.001 A 
ATOM     34  C   UNL     1      -9.074  -9.126  17.300  0.00  0.00    +0.020 A 
ENDBRANCH   2  25
ENDBRANCH   4   2
ENDBRANCH   5   4
TORSDOF 5
ENDMDL
