MODEL 1
REMARK VINA RESULT:     -13.2      0.000      0.000
REMARK  Name = 
REMARK  5 active torsions:
REMARK  status: ('A' for Active; 'I' for Inactive)
REMARK    1  A    between atoms: C_2  and  C_3
REMARK    2  A    between atoms: C_3  and  S_4
REMARK    3  A    between atoms: S_4  and  N_7
REMARK    4  A    between atoms: C_14  and  C_21
REMARK    5  A    between atoms: C_24  and  O_25
REMARK                            x       y       z     vdW  Elec       q    Type
REMARK                         _______ _______ _______ _____ _____    ______ ____
ROOT
ATOM      7  N   UNL     1      -3.960   3.160  25.082  0.00  0.00    -0.159 NA
ATOM      8  C   UNL     1      -4.794   3.134  25.128  0.00  0.00    +0.097 C 
ATOM      9  C   UNL     1      -4.937   2.166  24.986  0.00  0.00    +0.041 C 
ATOM     10  C   UNL     1      -5.220   1.409  24.886  0.00  0.00    +0.011 C 
ATOM     11  C   UNL     1      -4.598   1.733  24.899  0.00  0.00    +0.056 C 
ATOM     12  C   UNL     1      -4.475   2.670  25.037  0.00  0.00    +0.101 C 
ATOM     13  C   UNL     1      -3.697   1.567  24.819  0.00  0.00    +0.041 A 
ATOM     14  C   UNL     1      -3.169   0.947  24.691  0.00  0.00    +0.012 A 
ATOM     15  C   UNL     1      -2.358   1.095  24.665  0.00  0.00    +0.006 A 
ATOM     16  C   UNL     1      -2.075   1.863  24.767  0.00  0.00    +0.061 A 
ATOM     17  C   UNL     1      -2.603   2.484  24.895  0.00  0.00    +0.261 A 
ATOM     18  O   UNL     1      -2.320   3.252  24.997  0.00  0.00    -0.267 OA
ATOM     19  N   UNL     1      -3.414   2.336  24.921  0.00  0.00    -0.299 N 
ATOM     20  C   UNL     1      -3.995   2.003  24.904  0.00  0.00    +0.110 C 
ENDROOT
BRANCH  14  21
ATOM     21  C   UNL     1      -3.452   0.179  24.588  0.00  0.00    +0.001 A 
ATOM     22  C   UNL     1      -3.549  -0.316  25.242  0.00  0.00    +0.003 A 
ATOM     23  C   UNL     1      -3.832  -1.084  25.139  0.00  0.00    +0.037 A 
ATOM     24  C   UNL     1      -4.018  -1.358  24.384  0.00  0.00    +0.139 A 
ATOM     27  C   UNL     1      -3.921  -0.864  23.731  0.00  0.00    +0.037 A 
ATOM     28  C   UNL     1      -3.638  -0.096  23.833  0.00  0.00    +0.003 A 
BRANCH  24  25
ATOM     25  O   UNL     1      -4.301  -2.126  24.282  0.00  0.00    -0.471 OA
ATOM     26  C   UNL     1      -3.778  -2.764  24.299  0.00  0.00    +0.252 C 
ENDBRANCH  24  25
ENDBRANCH  14  21
BRANCH   7   4
ATOM      4  S   UNL     1      -3.198   3.478  25.085  0.00  0.00    +0.044 S 
ATOM      5  O   UNL     1      -3.242   3.592  24.269  0.00  0.00    -0.157 OA
ATOM      6  O   UNL     1      -3.155   3.364  25.901  0.00  0.00    -0.157 OA
BRANCH   4   3
ATOM      3  C   UNL     1      -2.437   3.796  25.089  0.00  0.00    +0.169 C 
BRANCH   3   2
ATOM      1  C   UNL     1      -1.574   4.928  25.209  0.00  0.00    +0.002 C 
ATOM      2  C   UNL     1      -2.322   4.589  25.284  0.00  0.00    +0.027 C 
ENDBRANCH   3   2
ENDBRANCH   4   3
ENDBRANCH   7   4
TORSDOF 5
ENDMDL
MODEL 2
REMARK VINA RESULT:     -12.5      1.138      2.065
REMARK  Name = 
REMARK  5 active torsions:
REMARK  status: ('A' for Active; 'I' for Inactive)
REMARK    1  A    between atoms: C_2  and  C_3
REMARK    2  A    between atoms: C_3  and  S_4
REMARK    3  A    between atoms: S_4  and  N_7
REMARK    4  A    between atoms: C_14  and  C_21
REMARK    5  A    between atoms: C_24  and  O_25
REMARK                            x       y       z     vdW  Elec       q    Type
REMARK                         _______ _______ _______ _____ _____    ______ ____
ROOT
ATOM      7  N   UNL     1      -3.530   2.473  24.476  0.00  0.00    -0.159 NA
ATOM      8  C   UNL     1      -2.783   2.424  24.103  0.00  0.00    +0.097 C 
ATOM      9  C   UNL     1      -2.678   1.442  24.072  0.00  0.00    +0.041 C 
ATOM     10  C   UNL     1      -2.443   0.669  23.971  0.00  0.00    +0.011 C 
ATOM     11  C   UNL     1      -2.993   1.013  24.239  0.00  0.00    +0.056 C 
ATOM     12  C   UNL     1      -3.080   1.964  24.262  0.00  0.00    +0.101 C 
ATOM     13  C   UNL     1      -3.803   0.870  24.648  0.00  0.00    +0.041 A 
ATOM     14  C   UNL     1      -4.291   0.257  24.906  0.00  0.00    +0.012 A 
ATOM     15  C   UNL     1      -5.014   0.428  25.264  0.00  0.00    +0.006 A 
ATOM     16  C   UNL     1      -5.249   1.213  25.365  0.00  0.00    +0.061 A 
ATOM     17  C   UNL     1      -4.761   1.826  25.107  0.00  0.00    +0.261 A 
ATOM     18  O   UNL     1      -4.996   2.611  25.208  0.00  0.00    -0.267 OA
ATOM     19  N   UNL     1      -4.038   1.654  24.749  0.00  0.00    -0.299 N 
ATOM     20  C   UNL     1      -3.526   1.302  24.500  0.00  0.00    +0.110 C 
ENDROOT
BRANCH  14  21
ATOM     21  C   UNL     1      -4.056  -0.528  24.805  0.00  0.00    +0.001 A 
ATOM     22  C   UNL     1      -4.255  -0.932  24.115  0.00  0.00    +0.003 A 
ATOM     23  C   UNL     1      -4.020  -1.717  24.014  0.00  0.00    +0.037 A 
ATOM     24  C   UNL     1      -3.586  -2.097  24.604  0.00  0.00    +0.139 A 
ATOM     27  C   UNL     1      -3.387  -1.692  25.295  0.00  0.00    +0.037 A 
ATOM     28  C   UNL     1      -3.622  -0.907  25.395  0.00  0.00    +0.003 A 
BRANCH  24  25
ATOM     25  O   UNL     1      -3.351  -2.880  24.504  0.00  0.00    -0.471 OA
ATOM     26  C   UNL     1      -2.575  -3.054  24.281  0.00  0.00    +0.252 C 
ENDBRANCH  24  25
ENDBRANCH  14  21
BRANCH   7   4
ATOM      4  S   UNL     1      -4.204   2.815  24.807  0.00  0.00    +0.044 S 
ATOM      5  O   UNL     1      -3.829   2.844  25.541  0.00  0.00    -0.157 OA
ATOM      6  O   UNL     1      -4.579   2.787  24.072  0.00  0.00    -0.157 OA
BRANCH   4   3
ATOM      3  C   UNL     1      -4.879   3.158  25.137  0.00  0.00    +0.169 C 
BRANCH   3   2
ATOM      1  C   UNL     1      -5.612   4.322  25.522  0.00  0.00    +0.002 C 
ATOM      2  C   UNL     1      -4.922   3.976  25.229  0.00  0.00    +0.027 C 
ENDBRANCH   3   2
ENDBRANCH   4   3
ENDBRANCH   7   4
TORSDOF 5
ENDMDL
MODEL 3
REMARK VINA RESULT:     -12.3      1.057      2.123
REMARK  Name = 
REMARK  5 active torsions:
REMARK  status: ('A' for Active; 'I' for Inactive)
REMARK    1  A    between atoms: C_2  and  C_3
REMARK    2  A    between atoms: C_3  and  S_4
REMARK    3  A    between atoms: S_4  and  N_7
REMARK    4  A    between atoms: C_14  and  C_21
REMARK    5  A    between atoms: C_24  and  O_25
REMARK                            x       y       z     vdW  Elec       q    Type
REMARK                         _______ _______ _______ _____ _____    ______ ____
ROOT
ATOM      7  N   UNL     1      -1.055   2.344  25.293  0.00  0.00    -0.159 NA
ATOM      8  C   UNL     1      -0.511   1.741  25.487  0.00  0.00    +0.097 C 
ATOM      9  C   UNL     1      -1.073   0.948  25.311  0.00  0.00    +0.041 C 
ATOM     10  C   UNL     1      -1.399   0.208  25.213  0.00  0.00    +0.011 C 
ATOM     11  C   UNL     1      -1.598   0.876  25.135  0.00  0.00    +0.056 C 
ATOM     12  C   UNL     1      -1.041   1.632  25.310  0.00  0.00    +0.101 C 
ATOM     13  C   UNL     1      -2.317   1.390  24.883  0.00  0.00    +0.041 A 
ATOM     14  C   UNL     1      -3.096   1.316  24.621  0.00  0.00    +0.012 A 
ATOM     15  C   UNL     1      -3.542   1.991  24.460  0.00  0.00    +0.006 A 
ATOM     16  C   UNL     1      -3.208   2.740  24.559  0.00  0.00    +0.061 A 
ATOM     17  C   UNL     1      -2.430   2.813  24.821  0.00  0.00    +0.261 A 
ATOM     18  O   UNL     1      -2.097   3.561  24.921  0.00  0.00    -0.267 OA
ATOM     19  N   UNL     1      -1.984   2.138  24.983  0.00  0.00    -0.299 N 
ATOM     20  C   UNL     1      -1.820   1.492  25.049  0.00  0.00    +0.110 C 
ENDROOT
BRANCH  14  21
ATOM     21  C   UNL     1      -3.429   0.568  24.522  0.00  0.00    +0.001 A 
ATOM     22  C   UNL     1      -3.391   0.194  23.787  0.00  0.00    +0.003 A 
ATOM     23  C   UNL     1      -3.724  -0.554  23.688  0.00  0.00    +0.037 A 
ATOM     24  C   UNL     1      -4.095  -0.929  24.322  0.00  0.00    +0.139 A 
ATOM     27  C   UNL     1      -4.133  -0.555  25.056  0.00  0.00    +0.037 A 
ATOM     28  C   UNL     1      -3.800   0.194  25.156  0.00  0.00    +0.003 A 
BRANCH  24  25
ATOM     25  O   UNL     1      -4.428  -1.676  24.222  0.00  0.00    -0.471 OA
ATOM     26  C   UNL     1      -3.941  -2.338  24.142  0.00  0.00    +0.252 C 
ENDBRANCH  24  25
ENDBRANCH  14  21
BRANCH   7   4
ATOM      4  S   UNL     1      -1.351   3.107  25.180  0.00  0.00    +0.044 S 
ATOM      5  O   UNL     1      -1.606   3.123  25.965  0.00  0.00    -0.157 OA
ATOM      6  O   UNL     1      -1.095   3.090  24.396  0.00  0.00    -0.157 OA
BRANCH   4   3
ATOM      3  C   UNL     1      -1.647   3.869  25.068  0.00  0.00    +0.169 C 
BRANCH   3   2
ATOM      1  C   UNL     1      -1.459   5.285  25.105  0.00  0.00    +0.002 C 
ATOM      2  C   UNL     1      -1.150   4.521  25.154  0.00  0.00    +0.027 C 
ENDBRANCH   3   2
ENDBRANCH   4   3
ENDBRANCH   7   4
TORSDOF 5
ENDMDL
MODEL 4
REMARK VINA RESULT:     -12.2      1.467      4.152
REMARK  Name = 
REMARK  5 active torsions:
REMARK  status: ('A' for Active; 'I' for Inactive)
REMARK    1  A    between atoms: C_2  and  C_3
REMARK    2  A    between atoms: C_3  and  S_4
REMARK    3  A    between atoms: S_4  and  N_7
REMARK    4  A    between atoms: C_14  and  C_21
REMARK    5  A    between atoms: C_24  and  O_25
REMARK                            x       y       z     vdW  Elec       q    Type
REMARK                         _______ _______ _______ _____ _____    ______ ____
ROOT
ATOM      7  N   UNL     1      -4.200   0.371  24.651  0.00  0.00    -0.159 NA
ATOM      8  C   UNL     1      -4.799   0.953  24.668  0.00  0.00    +0.097 C 
ATOM      9  C   UNL     1      -4.239   1.763  24.755  0.00  0.00    +0.041 C 
ATOM     10  C   UNL     1      -3.927   2.512  24.826  0.00  0.00    +0.011 C 
ATOM     11  C   UNL     1      -3.690   1.853  24.787  0.00  0.00    +0.056 C 
ATOM     12  C   UNL     1      -4.244   1.080  24.703  0.00  0.00    +0.101 C 
ATOM     13  C   UNL     1      -2.910   1.366  24.785  0.00  0.00    +0.041 A 
ATOM     14  C   UNL     1      -2.093   1.467  24.830  0.00  0.00    +0.012 A 
ATOM     15  C   UNL     1      -1.595   0.809  24.803  0.00  0.00    +0.006 A 
ATOM     16  C   UNL     1      -1.914   0.052  24.731  0.00  0.00    +0.061 A 
ATOM     17  C   UNL     1      -2.732  -0.048  24.686  0.00  0.00    +0.261 A 
ATOM     18  O   UNL     1      -3.051  -0.805  24.614  0.00  0.00    -0.267 OA
ATOM     19  N   UNL     1      -3.229   0.609  24.713  0.00  0.00    -0.299 N 
ATOM     20  C   UNL     1      -3.430   1.246  24.753  0.00  0.00    +0.110 C 
ENDROOT
BRANCH  14  21
ATOM     21  C   UNL     1      -1.773   2.224  24.902  0.00  0.00    +0.001 A 
ATOM     22  C   UNL     1      -1.562   2.648  24.227  0.00  0.00    +0.003 A 
ATOM     23  C   UNL     1      -1.242   3.406  24.299  0.00  0.00    +0.037 A 
ATOM     24  C   UNL     1      -1.134   3.739  25.046  0.00  0.00    +0.139 A 
ATOM     27  C   UNL     1      -1.345   3.314  25.721  0.00  0.00    +0.037 A 
ATOM     28  C   UNL     1      -1.665   2.557  25.649  0.00  0.00    +0.003 A 
BRANCH  24  25
ATOM     25  O   UNL     1      -0.815   4.495  25.118  0.00  0.00    -0.471 OA
ATOM     26  C   UNL     1      -1.310   5.156  25.102  0.00  0.00    +0.252 C 
ENDBRANCH  24  25
ENDBRANCH  14  21
BRANCH   7   4
ATOM      4  S   UNL     1      -3.856  -0.378  24.610  0.00  0.00    +0.044 S 
ATOM      5  O   UNL     1      -3.816  -0.314  23.788  0.00  0.00    -0.157 OA
ATOM      6  O   UNL     1      -3.896  -0.442  25.432  0.00  0.00    -0.157 OA
BRANCH   4   3
ATOM      3  C   UNL     1      -3.512  -1.128  24.568  0.00  0.00    +0.169 C 
BRANCH   3   2
ATOM      1  C   UNL     1      -3.644  -2.544  24.432  0.00  0.00    +0.002 C 
ATOM      2  C   UNL     1      -3.984  -1.792  24.442  0.00  0.00    +0.027 C 
ENDBRANCH   3   2
ENDBRANCH   4   3
ENDBRANCH   7   4
TORSDOF 5
ENDMDL
