MODEL 1
REMARK VINA RESULT:     -11.6      0.000      0.000
REMARK  Name = 
REMARK  7 active torsions:
REMARK  status: ('A' for Active; 'I' for Inactive)
REMARK    1  A    between atoms: C_2  and  C_3
REMARK    2  A    between atoms: C_3  and  C_4
REMARK    3  A    between atoms: C_9  and  C_10
REMARK    4  A    between atoms: C_10  and  C_11
REMARK    5  A    between atoms: C_14  and  C_15
REMARK    6  A    between atoms: C_15  and  S_16
REMARK    7  A    between atoms: S_16  and  C_17
REMARK                            x       y       z     vdW  Elec       q    Type
REMARK                         _______ _______ _______ _____ _____    ______ ____
ROOT
ATOM      4  C   UNL     1      -3.049   3.486  24.933  0.00  0.00    +0.012 C 
ATOM      5  C   UNL     1      -2.709   3.948  25.526  0.00  0.00    +0.019 C 
ATOM      6  C   UNL     1      -3.148   4.151  26.194  0.00  0.00    +0.089 C 
ATOM      7  N   UNL     1      -3.929   3.891  26.270  0.00  0.00    -0.218 NA
ATOM      8  C   UNL     1      -4.268   3.429  25.677  0.00  0.00    +0.089 C 
ATOM      9  C   UNL     1      -3.829   3.226  25.009  0.00  0.00    +0.024 C 
ENDROOT
BRANCH   4   3
ATOM      3  C   UNL     1      -2.610   3.284  24.265  0.00  0.00    +0.087 C 
BRANCH   3   2
ATOM      1  O   UNL     1      -1.280   3.653  24.636  0.00  0.00    -0.273 OA
ATOM      2  C   UNL     1      -1.810   3.095  24.339  0.00  0.00    +0.247 C 
ATOM     24  N   UNL     1      -1.540   2.348  24.116  0.00  0.00    -0.154 NA
ATOM     25  C   UNL     1      -0.741   2.160  24.190  0.00  0.00    +0.186 A 
ATOM     26  N   UNL     1      -0.392   1.439  23.991  0.00  0.00    -0.221 NA
ATOM     27  C   UNL     1       0.415   1.493  24.154  0.00  0.00    +0.108 A 
ATOM     28  C   UNL     1       0.565   2.246  24.454  0.00  0.00    +0.059 A 
ATOM     29  S   UNL     1      -0.150   2.659  24.476  0.00  0.00    -0.049 S 
ENDBRANCH   3   2
ENDBRANCH   4   3
BRANCH   9  10
ATOM     10  C   UNL     1      -4.169   2.765  24.416  0.00  0.00    +0.051 C 
BRANCH  10  11
ATOM     11  C   UNL     1      -4.538   2.052  24.609  0.00  0.00    +0.100 A 
ATOM     12  N   UNL     1      -5.305   1.966  24.899  0.00  0.00    -0.082 NA
ATOM     13  O   UNL     1      -5.445   1.162  25.015  0.00  0.00    -0.357 OA
ATOM     14  C   UNL     1      -4.764   0.751  24.796  0.00  0.00    +0.165 A 
ATOM     23  C   UNL     1      -4.203   1.300  24.545  0.00  0.00    +0.054 A 
BRANCH  14  15
ATOM     15  C   UNL     1      -4.663  -0.068  24.823  0.00  0.00    +0.129 C 
BRANCH  15  16
ATOM     16  S   UNL     1      -4.028  -0.419  24.429  0.00  0.00    -0.105 S 
BRANCH  16  17
ATOM     17  C   UNL     1      -3.912  -1.234  24.478  0.00  0.00    +0.026 A 
ATOM     18  C   UNL     1      -3.499  -1.553  25.118  0.00  0.00    +0.006 A 
ATOM     19  C   UNL     1      -3.383  -2.368  25.167  0.00  0.00    +0.001 A 
ATOM     20  C   UNL     1      -3.679  -2.864  24.578  0.00  0.00    +0.000 A 
ATOM     21  C   UNL     1      -4.092  -2.544  23.939  0.00  0.00    +0.001 A 
ATOM     22  C   UNL     1      -4.208  -1.729  23.890  0.00  0.00    +0.006 A 
ENDBRANCH  16  17
ENDBRANCH  15  16
ENDBRANCH  14  15
ENDBRANCH  10  11
ENDBRANCH   9  10
TORSDOF 7
ENDMDL
MODEL 2
REMARK VINA RESULT:     -11.2      1.698      3.304
REMARK  Name = 
REMARK  7 active torsions:
REMARK  status: ('A' for Active; 'I' for Inactive)
REMARK    1  A    between atoms: C_2  and  C_3
REMARK    2  A    between atoms: C_3  and  C_4
REMARK    3  A    between atoms: C_9  and  C_10
REMARK    4  A    between atoms: C_10  and  C_11
REMARK    5  A    between atoms: C_14  and  C_15
REMARK    6  A    between atoms: C_15  and  S_16
REMARK    7  A    between atoms: S_16  and  C_17
REMARK                            x       y       z     vdW  Elec       q    Type
REMARK                         _______ _______ _______ _____ _____    ______ ____
ROOT
ATOM      4  C   UNL     1      -1.370   2.783  25.123  0.00  0.00    +0.012 C 
ATOM      5  C   UNL     1      -1.310   3.244  25.805  0.00  0.00    +0.019 C 
ATOM      6  C   UNL     1      -0.697   3.112  26.340  0.00  0.00    +0.089 C 
ATOM      7  N   UNL     1      -0.143   2.517  26.194  0.00  0.00    -0.218 NA
ATOM      8  C   UNL     1      -0.202   2.056  25.513  0.00  0.00    +0.089 C 
ATOM      9  C   UNL     1      -0.816   2.188  24.977  0.00  0.00    +0.024 C 
ENDROOT
BRANCH   4   3
ATOM      3  C   UNL     1      -1.983   2.915  24.588  0.00  0.00    +0.087 C 
BRANCH   3   2
ATOM      1  O   UNL     1      -2.785   3.958  25.146  0.00  0.00    -0.273 OA
ATOM      2  C   UNL     1      -2.713   3.189  24.857  0.00  0.00    +0.247 C 
ATOM     24  N   UNL     1      -3.373   2.694  24.837  0.00  0.00    -0.154 NA
ATOM     25  C   UNL     1      -4.102   2.968  25.105  0.00  0.00    +0.186 A 
ATOM     26  N   UNL     1      -4.807   2.538  25.119  0.00  0.00    -0.221 NA
ATOM     27  C   UNL     1      -5.396   3.024  25.430  0.00  0.00    +0.108 A 
ATOM     28  C   UNL     1      -5.057   3.754  25.608  0.00  0.00    +0.059 A 
ATOM     29  S   UNL     1      -4.257   3.719  25.407  0.00  0.00    -0.049 S 
ENDBRANCH   3   2
ENDBRANCH   4   3
BRANCH   9  10
ATOM     10  C   UNL     1      -0.876   1.727  24.297  0.00  0.00    +0.051 C 
BRANCH  10  11
ATOM     11  C   UNL     1      -0.846   0.904  24.352  0.00  0.00    +0.100 A 
ATOM     12  N   UNL     1      -0.166   0.449  24.455  0.00  0.00    -0.082 NA
ATOM     13  O   UNL     1      -0.390  -0.343  24.481  0.00  0.00    -0.357 OA
ATOM     14  C   UNL     1      -1.210  -0.379  24.393  0.00  0.00    +0.165 A 
ATOM     23  C   UNL     1      -1.492   0.392  24.314  0.00  0.00    +0.054 A 
BRANCH  14  15
ATOM     15  C   UNL     1      -1.668  -1.066  24.387  0.00  0.00    +0.129 C 
BRANCH  15  16
ATOM     16  S   UNL     1      -2.403  -1.076  24.761  0.00  0.00    -0.105 S 
BRANCH  16  17
ATOM     17  C   UNL     1      -2.959  -1.651  24.562  0.00  0.00    +0.026 A 
ATOM     18  C   UNL     1      -2.839  -2.436  24.787  0.00  0.00    +0.006 A 
ATOM     19  C   UNL     1      -3.395  -3.012  24.588  0.00  0.00    +0.001 A 
ATOM     20  C   UNL     1      -4.071  -2.803  24.163  0.00  0.00    +0.000 A 
ATOM     21  C   UNL     1      -4.191  -2.019  23.939  0.00  0.00    +0.001 A 
ATOM     22  C   UNL     1      -3.635  -1.443  24.138  0.00  0.00    +0.006 A 
ENDBRANCH  16  17
ENDBRANCH  15  16
ENDBRANCH  14  15
ENDBRANCH  10  11
ENDBRANCH   9  10
TORSDOF 7
ENDMDL
MODEL 3
REMARK VINA RESULT:     -10.4      1.648      5.283
REMARK  Name = 
REMARK  7 active torsions:
REMARK  status: ('A' for Active; 'I' for Inactive)
REMARK    1  A    between atoms: C_2  and  C_3
REMARK    2  A    between atoms: C_3  and  C_4
REMARK    3  A    between atoms: C_9  and  C_10
REMARK    4  A    between atoms: C_10  and  C_11
REMARK    5  A    between atoms: C_14  and  C_15
REMARK    6  A    between atoms: C_15  and  S_16
REMARK    7  A    between atoms: S_16  and  C_17
REMARK                            x       y       z     vdW  Elec       q    Type
REMARK                         _______ _______ _______ _____ _____    ______ ____
ROOT
ATOM      4  C   UNL     1      -3.299  -0.280  24.781  0.00  0.00    +0.012 C 
ATOM      5  C   UNL     1      -3.687  -0.709  25.369  0.00  0.00    +0.019 C 
ATOM      6  C   UNL     1      -3.263  -1.232  25.845  0.00  0.00    +0.089 C 
ATOM      7  N   UNL     1      -2.450  -1.326  25.734  0.00  0.00    -0.218 NA
ATOM      8  C   UNL     1      -2.063  -0.898  25.146  0.00  0.00    +0.089 C 
ATOM      9  C   UNL     1      -2.486  -0.374  24.669  0.00  0.00    +0.024 C 
ENDROOT
BRANCH   4   3
ATOM      3  C   UNL     1      -3.722   0.243  24.304  0.00  0.00    +0.087 C 
BRANCH   3   2
ATOM      1  O   UNL     1      -5.031   0.282  24.877  0.00  0.00    -0.273 OA
ATOM      2  C   UNL     1      -4.351   0.673  24.621  0.00  0.00    +0.247 C 
ATOM     24  N   UNL     1      -4.301   1.494  24.683  0.00  0.00    -0.154 NA
ATOM     25  C   UNL     1      -4.929   1.923  25.000  0.00  0.00    +0.186 A 
ATOM     26  N   UNL     1      -4.958   2.743  25.095  0.00  0.00    -0.221 NA
ATOM     27  C   UNL     1      -5.686   2.935  25.431  0.00  0.00    +0.108 A 
ATOM     28  C   UNL     1      -6.108   2.235  25.544  0.00  0.00    +0.059 A 
ATOM     29  S   UNL     1      -5.640   1.610  25.277  0.00  0.00    -0.049 S 
ENDBRANCH   3   2
ENDBRANCH   4   3
BRANCH   9  10
ATOM     10  C   UNL     1      -2.099   0.055  24.081  0.00  0.00    +0.051 C 
BRANCH  10  11
ATOM     11  C   UNL     1      -1.471   0.552  24.280  0.00  0.00    +0.100 A 
ATOM     12  N   UNL     1      -0.710   0.313  24.489  0.00  0.00    -0.082 NA
ATOM     13  O   UNL     1      -0.263   0.988  24.642  0.00  0.00    -0.357 OA
ATOM     14  C   UNL     1      -0.748   1.646  24.528  0.00  0.00    +0.165 A 
ATOM     23  C   UNL     1      -1.494   1.377  24.304  0.00  0.00    +0.054 A 
BRANCH  14  15
ATOM     15  C   UNL     1      -0.525   2.435  24.621  0.00  0.00    +0.129 C 
BRANCH  15  16
ATOM     16  S   UNL     1      -0.793   2.866  25.273  0.00  0.00    -0.105 S 
BRANCH  16  17
ATOM     17  C   UNL     1      -0.956   3.670  25.196  0.00  0.00    +0.026 A 
ATOM     18  C   UNL     1      -1.659   3.979  25.498  0.00  0.00    +0.006 A 
ATOM     19  C   UNL     1      -1.823   4.784  25.421  0.00  0.00    +0.001 A 
ATOM     20  C   UNL     1      -1.283   5.281  25.042  0.00  0.00    +0.000 A 
ATOM     21  C   UNL     1      -0.580   4.971  24.741  0.00  0.00    +0.001 A 
ATOM     22  C   UNL     1      -0.417   4.167  24.818  0.00  0.00    +0.006 A 
ENDBRANCH  16  17
ENDBRANCH  15  16
ENDBRANCH  14  15
ENDBRANCH  10  11
ENDBRANCH   9  10
TORSDOF 7
ENDMDL
MODEL 4
REMARK VINA RESULT:     -10.3      1.972      4.808
REMARK  Name = 
REMARK  7 active torsions:
REMARK  status: ('A' for Active; 'I' for Inactive)
REMARK    1  A    between atoms: C_2  and  C_3
REMARK    2  A    between atoms: C_3  and  C_4
REMARK    3  A    between atoms: C_9  and  C_10
REMARK    4  A    between atoms: C_10  and  C_11
REMARK    5  A    between atoms: C_14  and  C_15
REMARK    6  A    between atoms: C_15  and  S_16
REMARK    7  A    between atoms: S_16  and  C_17
REMARK                            x       y       z     vdW  Elec       q    Type
REMARK                         _______ _______ _______ _____ _____    ______ ____
ROOT
ATOM      4  C   UNL     1      -0.503   0.104  24.689  0.00  0.00    +0.012 C 
ATOM      5  C   UNL     1      -0.216  -0.305  24.032  0.00  0.00    +0.019 C 
ATOM      6  C   UNL     1       0.223   0.093  23.458  0.00  0.00    +0.089 C 
ATOM      7  N   UNL     1       0.376   0.900  23.541  0.00  0.00    -0.218 NA
ATOM      8  C   UNL     1       0.090   1.309  24.197  0.00  0.00    +0.089 C 
ATOM      9  C   UNL     1      -0.350   0.912  24.771  0.00  0.00    +0.024 C 
ENDROOT
BRANCH   4   3
ATOM      3  C   UNL     1      -0.942  -0.293  25.262  0.00  0.00    +0.087 C 
BRANCH   3   2
ATOM      1  O   UNL     1      -0.957  -1.657  24.837  0.00  0.00    -0.273 OA
ATOM      2  C   UNL     1      -1.362  -0.974  25.062  0.00  0.00    +0.247 C 
ATOM     24  N   UNL     1      -2.186  -0.974  25.086  0.00  0.00    -0.154 NA
ATOM     25  C   UNL     1      -2.605  -1.654  24.886  0.00  0.00    +0.186 A 
ATOM     26  N   UNL     1      -3.427  -1.735  24.885  0.00  0.00    -0.221 NA
ATOM     27  C   UNL     1      -3.607  -2.506  24.649  0.00  0.00    +0.108 A 
ATOM     28  C   UNL     1      -2.897  -2.901  24.506  0.00  0.00    +0.059 A 
ATOM     29  S   UNL     1      -2.278  -2.374  24.652  0.00  0.00    -0.049 S 
ENDBRANCH   3   2
ENDBRANCH   4   3
BRANCH   9  10
ATOM     10  C   UNL     1      -0.637   1.320  25.427  0.00  0.00    +0.051 C 
BRANCH  10  11
ATOM     11  C   UNL     1      -1.067   2.016  25.324  0.00  0.00    +0.100 A 
ATOM     12  N   UNL     1      -0.768   2.737  25.057  0.00  0.00    -0.082 NA
ATOM     13  O   UNL     1      -1.389   3.279  25.038  0.00  0.00    -0.357 OA
ATOM     14  C   UNL     1      -2.072   2.894  25.292  0.00  0.00    +0.165 A 
ATOM     23  C   UNL     1      -1.874   2.113  25.469  0.00  0.00    +0.054 A 
BRANCH  14  15
ATOM     15  C   UNL     1      -2.823   3.231  25.358  0.00  0.00    +0.129 C 
BRANCH  15  16
ATOM     16  S   UNL     1      -3.415   3.028  24.820  0.00  0.00    -0.105 S 
BRANCH  16  17
ATOM     17  C   UNL     1      -4.207   3.066  25.046  0.00  0.00    +0.026 A 
ATOM     18  C   UNL     1      -4.706   2.422  24.910  0.00  0.00    +0.006 A 
ATOM     19  C   UNL     1      -5.498   2.460  25.135  0.00  0.00    +0.001 A 
ATOM     20  C   UNL     1      -5.793   3.141  25.497  0.00  0.00    +0.000 A 
ATOM     21  C   UNL     1      -5.294   3.784  25.633  0.00  0.00    +0.001 A 
ATOM     22  C   UNL     1      -4.502   3.746  25.407  0.00  0.00    +0.006 A 
ENDBRANCH  16  17
ENDBRANCH  15  16
ENDBRANCH  14  15
ENDBRANCH  10  11
ENDBRANCH   9  10
TORSDOF 7
ENDMDL
MODEL 5
REMARK VINA RESULT:     -10.0      2.530      4.432
REMARK  Name = 
REMARK  7 active torsions:
REMARK  status: ('A' for Active; 'I' for Inactive)
REMARK    1  A    between atoms: C_2  and  C_3
REMARK    2  A    between atoms: C_3  and  C_4
REMARK    3  A    between atoms: C_9  and  C_10
REMARK    4  A    between atoms: C_10  and  C_11
REMARK    5  A    between atoms: C_14  and  C_15
REMARK    6  A    between atoms: C_15  and  S_16
REMARK    7  A    between atoms: S_16  and  C_17
REMARK                            x       y       z     vdW  Elec       q    Type
REMARK                         _______ _______ _______ _____ _____    ______ ____
ROOT
ATOM      4  C   UNL     1       0.160   0.215  23.639  0.00  0.00    +0.012 C 
ATOM      5  C   UNL     1       0.345  -0.581  23.752  0.00  0.00    +0.019 C 
ATOM      6  C   UNL     1      -0.110  -1.042  24.263  0.00  0.00    +0.089 C 
ATOM      7  N   UNL     1      -0.751  -0.706  24.662  0.00  0.00    -0.218 NA
ATOM      8  C   UNL     1      -0.935   0.089  24.549  0.00  0.00    +0.089 C 
ATOM      9  C   UNL     1      -0.481   0.551  24.038  0.00  0.00    +0.024 C 
ENDROOT
BRANCH   4   3
ATOM      3  C   UNL     1       0.615   0.676  23.128  0.00  0.00    +0.087 C 
BRANCH   3   2
ATOM      1  O   UNL     1       1.550  -0.275  22.615  0.00  0.00    -0.273 OA
ATOM      2  C   UNL     1       1.392   0.458  22.958  0.00  0.00    +0.247 C 
ATOM     24  N   UNL     1       2.012   0.973  23.131  0.00  0.00    -0.154 NA
ATOM     25  C   UNL     1       2.789   0.756  22.962  0.00  0.00    +0.186 A 
ATOM     26  N   UNL     1       3.462   1.212  23.103  0.00  0.00    -0.221 NA
ATOM     27  C   UNL     1       4.119   0.782  22.850  0.00  0.00    +0.108 A 
ATOM     28  C   UNL     1       3.852   0.061  22.551  0.00  0.00    +0.059 A 
ATOM     29  S   UNL     1       3.030   0.045  22.621  0.00  0.00    -0.049 S 
ENDBRANCH   3   2
ENDBRANCH   4   3
BRANCH   9  10
ATOM     10  C   UNL     1      -0.665   1.346  23.925  0.00  0.00    +0.051 C 
BRANCH  10  11
ATOM     11  C   UNL     1      -1.454   1.583  23.875  0.00  0.00    +0.100 A 
ATOM     12  N   UNL     1      -1.923   1.570  23.197  0.00  0.00    -0.082 NA
ATOM     13  O   UNL     1      -2.670   1.854  23.398  0.00  0.00    -0.357 OA
ATOM     14  C   UNL     1      -2.664   2.043  24.201  0.00  0.00    +0.165 A 
ATOM     23  C   UNL     1      -1.912   1.876  24.496  0.00  0.00    +0.054 A 
BRANCH  14  15
ATOM     15  C   UNL     1      -3.298   2.346  24.633  0.00  0.00    +0.129 C 
BRANCH  15  16
ATOM     16  S   UNL     1      -4.066   2.285  24.337  0.00  0.00    -0.105 S 
BRANCH  16  17
ATOM     17  C   UNL     1      -4.711   2.411  24.835  0.00  0.00    +0.026 A 
ATOM     18  C   UNL     1      -4.843   3.159  25.157  0.00  0.00    +0.006 A 
ATOM     19  C   UNL     1      -5.488   3.285  25.655  0.00  0.00    +0.001 A 
ATOM     20  C   UNL     1      -6.002   2.663  25.832  0.00  0.00    +0.000 A 
ATOM     21  C   UNL     1      -5.869   1.916  25.509  0.00  0.00    +0.001 A 
ATOM     22  C   UNL     1      -5.224   1.790  25.011  0.00  0.00    +0.006 A 
ENDBRANCH  16  17
ENDBRANCH  15  16
ENDBRANCH  14  15
ENDBRANCH  10  11
ENDBRANCH   9  10
TORSDOF 7
ENDMDL
