MODEL 1
REMARK VINA RESULT:      -9.7      0.000      0.000
REMARK  Name = 
REMARK  7 active torsions:
REMARK  status: ('A' for Active; 'I' for Inactive)
REMARK    1  A    between atoms: C_2  and  C_3
REMARK    2  A    between atoms: C_3  and  C_4
REMARK    3  A    between atoms: N_6  and  C_7
REMARK    4  A    between atoms: C_7  and  C_8
REMARK    5  A    between atoms: C_15  and  C_16
REMARK    6  A    between atoms: N_18  and  C_19
REMARK    7  A    between atoms: C_19  and  C_20
REMARK                            x       y       z     vdW  Elec       q    Type
REMARK                         _______ _______ _______ _____ _____    ______ ____
ROOT
ATOM      8  C   UNL     1      -0.877  -0.601  25.034  0.00  0.00    +0.082 C 
ATOM      9  C   UNL     1      -0.618  -0.186  24.428  0.00  0.00    +0.019 C 
ATOM     10  C   UNL     1      -0.413   0.597  24.446  0.00  0.00    +0.013 C 
ATOM     11  C   UNL     1      -0.139   0.888  23.643  0.00  0.00    +0.018 C 
ATOM     12  C   UNL     1      -0.362   0.449  24.072  0.00  0.00    +0.072 C 
ATOM     13  N   UNL     1      -0.666   0.197  25.044  0.00  0.00    -0.272 NA
ATOM     14  C   UNL     1      -0.662   0.820  25.711  0.00  0.00    +0.081 C 
ATOM     15  C   UNL     1      -0.412   1.190  25.092  0.00  0.00    +0.094 C 
ENDROOT
BRANCH  15  16
ATOM     16  C   UNL     1      -0.187   1.983  25.042  0.00  0.00    +0.243 C 
ATOM     17  O   UNL     1       0.599   2.179  24.887  0.00  0.00    -0.273 OA
ATOM     18  N   UNL     1      -0.748   2.577  25.147  0.00  0.00    -0.200 NA
BRANCH  18  19
ATOM     19  C   UNL     1      -0.524   3.370  25.097  0.00  0.00    +0.143 C 
BRANCH  19  20
ATOM     20  C   UNL     1      -1.088   3.965  25.189  0.00  0.00    +0.019 A 
ATOM     21  C   UNL     1      -0.904   4.743  24.986  0.00  0.00    +0.001 A 
ATOM     22  C   UNL     1      -1.468   5.338  25.077  0.00  0.00    +0.020 A 
ATOM     23  C   UNL     1      -2.216   5.155  25.372  0.00  0.00    +0.099 A 
ATOM     24  N   UNL     1      -2.401   4.377  25.575  0.00  0.00    -0.243 NA
ATOM     25  C   UNL     1      -1.836   3.782  25.484  0.00  0.00    +0.096 A 
ENDBRANCH  19  20
ENDBRANCH  18  19
ENDBRANCH  15  16
BRANCH   8   7
ATOM      7  C   UNL     1      -1.149  -1.293  25.389  0.00  0.00    +0.145 C 
BRANCH   7   6
ATOM      4  C   UNL     1      -2.811  -2.342  24.555  0.00  0.00    +0.103 A 
ATOM      5  C   UNL     1      -2.502  -1.760  25.051  0.00  0.00    +0.113 A 
ATOM      6  N   UNL     1      -1.680  -1.782  24.987  0.00  0.00    -0.229 N 
ATOM     26  N   UNL     1      -1.481  -2.377  24.452  0.00  0.00    -0.064 NA
ATOM     27  N   UNL     1      -2.181  -2.723  24.184  0.00  0.00    -0.133 NA
BRANCH   4   3
ATOM      3  C   UNL     1      -3.611  -2.512  24.448  0.00  0.00    +0.085 C 
BRANCH   3   2
ATOM      1  O   UNL     1      -4.770  -2.372  23.623  0.00  0.00    -0.220 OA
ATOM      2  C   UNL     1      -4.059  -2.071  23.914  0.00  0.00    +0.189 C 
ENDBRANCH   3   2
ENDBRANCH   4   3
ENDBRANCH   7   6
ENDBRANCH   8   7
TORSDOF 7
ENDMDL
MODEL 2
REMARK VINA RESULT:      -9.7      2.103      5.964
REMARK  Name = 
REMARK  7 active torsions:
REMARK  status: ('A' for Active; 'I' for Inactive)
REMARK    1  A    between atoms: C_2  and  C_3
REMARK    2  A    between atoms: C_3  and  C_4
REMARK    3  A    between atoms: N_6  and  C_7
REMARK    4  A    between atoms: C_7  and  C_8
REMARK    5  A    between atoms: C_15  and  C_16
REMARK    6  A    between atoms: N_18  and  C_19
REMARK    7  A    between atoms: C_19  and  C_20
REMARK                            x       y       z     vdW  Elec       q    Type
REMARK                         _______ _______ _______ _____ _____    ______ ____
ROOT
ATOM      8  C   UNL     1      -3.586   3.181  24.616  0.00  0.00    +0.082 C 
ATOM      9  C   UNL     1      -4.188   2.921  25.035  0.00  0.00    +0.019 C 
ATOM     10  C   UNL     1      -4.505   2.177  24.994  0.00  0.00    +0.013 C 
ATOM     11  C   UNL     1      -5.194   2.076  25.558  0.00  0.00    +0.018 C 
ATOM     12  C   UNL     1      -4.706   2.397  25.267  0.00  0.00    +0.072 C 
ATOM     13  N   UNL     1      -3.914   2.424  24.580  0.00  0.00    -0.272 NA
ATOM     14  C   UNL     1      -3.704   1.691  24.079  0.00  0.00    +0.081 C 
ATOM     15  C   UNL     1      -4.297   1.475  24.509  0.00  0.00    +0.094 C 
ENDROOT
BRANCH  15  16
ATOM     16  C   UNL     1      -4.666   0.737  24.516  0.00  0.00    +0.243 C 
ATOM     17  O   UNL     1      -5.489   0.687  24.485  0.00  0.00    -0.273 OA
ATOM     18  N   UNL     1      -4.212   0.050  24.554  0.00  0.00    -0.200 NA
BRANCH  18  19
ATOM     19  C   UNL     1      -4.580  -0.689  24.561  0.00  0.00    +0.143 C 
BRANCH  19  20
ATOM     20  C   UNL     1      -4.126  -1.376  24.606  0.00  0.00    +0.019 A 
ATOM     21  C   UNL     1      -4.123  -1.910  23.978  0.00  0.00    +0.001 A 
ATOM     22  C   UNL     1      -3.669  -2.598  24.022  0.00  0.00    +0.020 A 
ATOM     23  C   UNL     1      -3.218  -2.751  24.695  0.00  0.00    +0.099 A 
ATOM     24  N   UNL     1      -3.220  -2.216  25.324  0.00  0.00    -0.243 NA
ATOM     25  C   UNL     1      -3.674  -1.529  25.279  0.00  0.00    +0.096 A 
ENDBRANCH  19  20
ENDBRANCH  18  19
ENDBRANCH  15  16
BRANCH   8   7
ATOM      7  C   UNL     1      -3.044   3.758  24.387  0.00  0.00    +0.145 C 
BRANCH   7   6
ATOM      4  C   UNL     1      -1.121   3.758  25.314  0.00  0.00    +0.103 A 
ATOM      5  C   UNL     1      -1.658   3.450  24.769  0.00  0.00    +0.113 A 
ATOM      6  N   UNL     1      -2.358   3.880  24.831  0.00  0.00    -0.229 N 
ATOM     26  N   UNL     1      -2.255   4.454  25.415  0.00  0.00    -0.064 NA
ATOM     27  N   UNL     1      -1.490   4.378  25.713  0.00  0.00    -0.133 NA
BRANCH   4   3
ATOM      3  C   UNL     1      -0.350   3.492  25.438  0.00  0.00    +0.085 C 
BRANCH   3   2
ATOM      1  O   UNL     1       0.558   2.569  26.045  0.00  0.00    -0.220 OA
ATOM      2  C   UNL     1      -0.214   2.825  25.905  0.00  0.00    +0.189 C 
ENDBRANCH   3   2
ENDBRANCH   4   3
ENDBRANCH   7   6
ENDBRANCH   8   7
TORSDOF 7
ENDMDL
MODEL 3
REMARK VINA RESULT:      -9.6      2.387      3.049
REMARK  Name = 
REMARK  7 active torsions:
REMARK  status: ('A' for Active; 'I' for Inactive)
REMARK    1  A    between atoms: C_2  and  C_3
REMARK    2  A    between atoms: C_3  and  C_4
REMARK    3  A    between atoms: N_6  and  C_7
REMARK    4  A    between atoms: C_7  and  C_8
REMARK    5  A    between atoms: C_15  and  C_16
REMARK    6  A    between atoms: N_18  and  C_19
REMARK    7  A    between atoms: C_19  and  C_20
REMARK                            x       y       z     vdW  Elec       q    Type
REMARK                         _______ _______ _______ _____ _____    ______ ____
ROOT
ATOM      8  C   UNL     1      -4.176  -0.275  24.247  0.00  0.00    +0.082 C 
ATOM      9  C   UNL     1      -4.522   0.218  24.740  0.00  0.00    +0.019 C 
ATOM     10  C   UNL     1      -4.416   1.020  24.758  0.00  0.00    +0.013 C 
ATOM     11  C   UNL     1      -4.905   1.408  25.401  0.00  0.00    +0.018 C 
ATOM     12  C   UNL     1      -4.678   0.909  25.045  0.00  0.00    +0.072 C 
ATOM     13  N   UNL     1      -4.073   0.544  24.271  0.00  0.00    -0.272 NA
ATOM     14  C   UNL     1      -3.560   1.109  23.771  0.00  0.00    +0.081 C 
ATOM     15  C   UNL     1      -3.920   1.558  24.272  0.00  0.00    +0.094 C 
ENDROOT
BRANCH  15  16
ATOM     16  C   UNL     1      -3.857   2.378  24.344  0.00  0.00    +0.243 C 
ATOM     17  O   UNL     1      -4.518   2.855  24.213  0.00  0.00    -0.273 OA
ATOM     18  N   UNL     1      -3.134   2.720  24.545  0.00  0.00    -0.200 NA
BRANCH  18  19
ATOM     19  C   UNL     1      -3.071   3.539  24.617  0.00  0.00    +0.143 C 
BRANCH  19  20
ATOM     20  C   UNL     1      -2.340   3.883  24.784  0.00  0.00    +0.019 A 
ATOM     21  C   UNL     1      -2.306   4.624  25.145  0.00  0.00    +0.001 A 
ATOM     22  C   UNL     1      -1.575   4.969  25.313  0.00  0.00    +0.020 A 
ATOM     23  C   UNL     1      -0.879   4.572  25.119  0.00  0.00    +0.099 A 
ATOM     24  N   UNL     1      -0.912   3.831  24.758  0.00  0.00    -0.243 NA
ATOM     25  C   UNL     1      -1.643   3.487  24.590  0.00  0.00    +0.096 A 
ENDBRANCH  19  20
ENDBRANCH  18  19
ENDBRANCH  15  16
BRANCH   8   7
ATOM      7  C   UNL     1      -4.028  -1.026  23.940  0.00  0.00    +0.145 C 
BRANCH   7   6
ATOM      4  C   UNL     1      -2.406  -2.153  24.750  0.00  0.00    +0.103 A 
ATOM      5  C   UNL     1      -2.694  -1.557  24.258  0.00  0.00    +0.113 A 
ATOM      6  N   UNL     1      -3.515  -1.539  24.334  0.00  0.00    -0.229 N 
ATOM     26  N   UNL     1      -3.734  -2.123  24.873  0.00  0.00    -0.064 NA
ATOM     27  N   UNL     1      -3.048  -2.503  25.130  0.00  0.00    -0.133 NA
BRANCH   4   3
ATOM      3  C   UNL     1      -1.613  -2.361  24.845  0.00  0.00    +0.085 C 
BRANCH   3   2
ATOM      1  O   UNL     1      -0.326  -2.027  25.368  0.00  0.00    -0.220 OA
ATOM      2  C   UNL     1      -1.063  -1.793  25.080  0.00  0.00    +0.189 C 
ENDBRANCH   3   2
ENDBRANCH   4   3
ENDBRANCH   7   6
ENDBRANCH   8   7
TORSDOF 7
ENDMDL
MODEL 4
REMARK VINA RESULT:      -9.5      1.458      5.141
REMARK  Name = 
REMARK  7 active torsions:
REMARK  status: ('A' for Active; 'I' for Inactive)
REMARK    1  A    between atoms: C_2  and  C_3
REMARK    2  A    between atoms: C_3  and  C_4
REMARK    3  A    between atoms: N_6  and  C_7
REMARK    4  A    between atoms: C_7  and  C_8
REMARK    5  A    between atoms: C_15  and  C_16
REMARK    6  A    between atoms: N_18  and  C_19
REMARK    7  A    between atoms: C_19  and  C_20
REMARK                            x       y       z     vdW  Elec       q    Type
REMARK                         _______ _______ _______ _____ _____    ______ ____
ROOT
ATOM      8  C   UNL     1      -0.419   1.965  25.374  0.00  0.00    +0.082 C 
ATOM      9  C   UNL     1      -0.256   1.593  24.710  0.00  0.00    +0.019 C 
ATOM     10  C   UNL     1      -0.419   0.816  24.552  0.00  0.00    +0.013 C 
ATOM     11  C   UNL     1      -0.151   0.579  23.729  0.00  0.00    +0.018 C 
ATOM     12  C   UNL     1      -0.238   0.986  24.233  0.00  0.00    +0.072 C 
ATOM     13  N   UNL     1      -0.581   1.173  25.205  0.00  0.00    -0.272 NA
ATOM     14  C   UNL     1      -0.976   0.513  25.697  0.00  0.00    +0.081 C 
ATOM     15  C   UNL     1      -0.799   0.186  25.030  0.00  0.00    +0.094 C 
ENDROOT
BRANCH  15  16
ATOM     16  C   UNL     1      -0.936  -0.597  24.806  0.00  0.00    +0.243 C 
ATOM     17  O   UNL     1      -0.300  -1.100  24.657  0.00  0.00    -0.273 OA
ATOM     18  N   UNL     1      -1.709  -0.874  24.732  0.00  0.00    -0.200 NA
BRANCH  18  19
ATOM     19  C   UNL     1      -1.846  -1.656  24.508  0.00  0.00    +0.143 C 
BRANCH  19  20
ATOM     20  C   UNL     1      -2.620  -1.935  24.436  0.00  0.00    +0.019 A 
ATOM     21  C   UNL     1      -3.177  -1.499  24.013  0.00  0.00    +0.001 A 
ATOM     22  C   UNL     1      -3.951  -1.776  23.940  0.00  0.00    +0.020 A 
ATOM     23  C   UNL     1      -4.166  -2.491  24.291  0.00  0.00    +0.099 A 
ATOM     24  N   UNL     1      -3.609  -2.928  24.715  0.00  0.00    -0.243 NA
ATOM     25  C   UNL     1      -2.835  -2.649  24.787  0.00  0.00    +0.096 A 
ENDBRANCH  19  20
ENDBRANCH  18  19
ENDBRANCH  15  16
BRANCH   8   7
ATOM      7  C   UNL     1      -0.425   2.629  25.863  0.00  0.00    +0.145 C 
BRANCH   7   6
ATOM      4  C   UNL     1      -2.054   4.000  25.719  0.00  0.00    +0.103 A 
ATOM      5  C   UNL     1      -1.727   3.297  26.000  0.00  0.00    +0.113 A 
ATOM      6  N   UNL     1      -0.954   3.244  25.717  0.00  0.00    -0.229 N 
ATOM     26  N   UNL     1      -0.804   3.915  25.261  0.00  0.00    -0.064 NA
ATOM     27  N   UNL     1      -1.483   4.382  25.263  0.00  0.00    -0.133 NA
BRANCH   4   3
ATOM      3  C   UNL     1      -2.818   4.273  25.869  0.00  0.00    +0.085 C 
BRANCH   3   2
ATOM      1  O   UNL     1      -4.233   4.130  25.728  0.00  0.00    -0.220 OA
ATOM      2  C   UNL     1      -3.469   3.857  25.578  0.00  0.00    +0.189 C 
ENDBRANCH   3   2
ENDBRANCH   4   3
ENDBRANCH   7   6
ENDBRANCH   8   7
TORSDOF 7
ENDMDL
MODEL 5
REMARK VINA RESULT:      -9.1      1.815      2.295
REMARK  Name = 
REMARK  7 active torsions:
REMARK  status: ('A' for Active; 'I' for Inactive)
REMARK    1  A    between atoms: C_2  and  C_3
REMARK    2  A    between atoms: C_3  and  C_4
REMARK    3  A    between atoms: N_6  and  C_7
REMARK    4  A    between atoms: C_7  and  C_8
REMARK    5  A    between atoms: C_15  and  C_16
REMARK    6  A    between atoms: N_18  and  C_19
REMARK    7  A    between atoms: C_19  and  C_20
REMARK                            x       y       z     vdW  Elec       q    Type
REMARK                         _______ _______ _______ _____ _____    ______ ____
ROOT
ATOM      8  C   UNL     1      -0.573   0.386  24.601  0.00  0.00    +0.082 C 
ATOM      9  C   UNL     1      -0.541   0.953  25.133  0.00  0.00    +0.019 C 
ATOM     10  C   UNL     1      -0.987   1.629  25.130  0.00  0.00    +0.013 C 
ATOM     11  C   UNL     1      -0.800   2.156  25.831  0.00  0.00    +0.018 C 
ATOM     12  C   UNL     1      -0.742   1.628  25.451  0.00  0.00    +0.072 C 
ATOM     13  N   UNL     1      -1.024   1.078  24.604  0.00  0.00    -0.272 NA
ATOM     14  C   UNL     1      -1.664   1.392  24.034  0.00  0.00    +0.081 C 
ATOM     15  C   UNL     1      -1.602   1.925  24.577  0.00  0.00    +0.094 C 
ENDROOT
BRANCH  15  16
ATOM     16  C   UNL     1      -2.024   2.633  24.633  0.00  0.00    +0.243 C 
ATOM     17  O   UNL     1      -1.640   3.352  24.505  0.00  0.00    -0.273 OA
ATOM     18  N   UNL     1      -2.827   2.619  24.815  0.00  0.00    -0.200 NA
BRANCH  18  19
ATOM     19  C   UNL     1      -3.249   3.327  24.871  0.00  0.00    +0.143 C 
BRANCH  19  20
ATOM     20  C   UNL     1      -4.031   3.320  25.134  0.00  0.00    +0.019 A 
ATOM     21  C   UNL     1      -4.602   2.890  24.723  0.00  0.00    +0.001 A 
ATOM     22  C   UNL     1      -5.384   2.884  24.985  0.00  0.00    +0.020 A 
ATOM     23  C   UNL     1      -5.595   3.307  25.661  0.00  0.00    +0.099 A 
ATOM     24  N   UNL     1      -5.024   3.738  26.073  0.00  0.00    -0.243 NA
ATOM     25  C   UNL     1      -4.242   3.744  25.810  0.00  0.00    +0.096 A 
ENDBRANCH  19  20
ENDBRANCH  18  19
ENDBRANCH  15  16
BRANCH   8   7
ATOM      7  C   UNL     1      -0.340  -0.338  24.282  0.00  0.00    +0.145 C 
BRANCH   7   6
ATOM      4  C   UNL     1      -1.496  -2.094  24.652  0.00  0.00    +0.103 A 
ATOM      5  C   UNL     1      -1.335  -1.417  24.207  0.00  0.00    +0.113 A 
ATOM      6  N   UNL     1      -0.688  -1.037  24.549  0.00  0.00    -0.229 N 
ATOM     26  N   UNL     1      -0.449  -1.478  25.204  0.00  0.00    -0.064 NA
ATOM     27  N   UNL     1      -0.949  -2.131  25.267  0.00  0.00    -0.133 NA
BRANCH   4   3
ATOM      3  C   UNL     1      -2.100  -2.637  24.505  0.00  0.00    +0.085 C 
BRANCH   3   2
ATOM      1  O   UNL     1      -3.489  -2.975  24.512  0.00  0.00    -0.220 OA
ATOM      2  C   UNL     1      -2.882  -2.442  24.682  0.00  0.00    +0.189 C 
ENDBRANCH   3   2
ENDBRANCH   4   3
ENDBRANCH   7   6
ENDBRANCH   8   7
TORSDOF 7
ENDMDL
MODEL 6
REMARK VINA RESULT:      -9.0      2.776      3.568
REMARK  Name = 
REMARK  7 active torsions:
REMARK  status: ('A' for Active; 'I' for Inactive)
REMARK    1  A    between atoms: C_2  and  C_3
REMARK    2  A    between atoms: C_3  and  C_4
REMARK    3  A    between atoms: N_6  and  C_7
REMARK    4  A    between atoms: C_7  and  C_8
REMARK    5  A    between atoms: C_15  and  C_16
REMARK    6  A    between atoms: N_18  and  C_19
REMARK    7  A    between atoms: C_19  and  C_20
REMARK                            x       y       z     vdW  Elec       q    Type
REMARK                         _______ _______ _______ _____ _____    ______ ____
ROOT
ATOM      8  C   UNL     1      -1.039   1.571  23.817  0.00  0.00    +0.082 C 
ATOM      9  C   UNL     1      -1.593   1.705  23.287  0.00  0.00    +0.019 C 
ATOM     10  C   UNL     1      -2.281   2.113  23.416  0.00  0.00    +0.013 C 
ATOM     11  C   UNL     1      -2.787   2.157  22.677  0.00  0.00    +0.018 C 
ATOM     12  C   UNL     1      -2.266   1.987  23.032  0.00  0.00    +0.072 C 
ATOM     13  N   UNL     1      -1.743   1.986  23.941  0.00  0.00    -0.272 NA
ATOM     14  C   UNL     1      -2.087   2.397  24.679  0.00  0.00    +0.081 C 
ATOM     15  C   UNL     1      -2.606   2.506  24.130  0.00  0.00    +0.094 C 
ENDROOT
BRANCH  15  16
ATOM     16  C   UNL     1      -3.323   2.910  24.195  0.00  0.00    +0.243 C 
ATOM     17  O   UNL     1      -3.426   3.631  23.808  0.00  0.00    -0.273 OA
ATOM     18  N   UNL     1      -3.936   2.591  24.645  0.00  0.00    -0.200 NA
BRANCH  18  19
ATOM     19  C   UNL     1      -4.653   2.995  24.710  0.00  0.00    +0.143 C 
BRANCH  19  20
ATOM     20  C   UNL     1      -5.259   2.687  25.178  0.00  0.00    +0.019 A 
ATOM     21  C   UNL     1      -5.719   2.062  24.898  0.00  0.00    +0.001 A 
ATOM     22  C   UNL     1      -6.325   1.753  25.365  0.00  0.00    +0.020 A 
ATOM     23  C   UNL     1      -6.470   2.070  26.113  0.00  0.00    +0.099 A 
ATOM     24  N   UNL     1      -6.010   2.695  26.393  0.00  0.00    -0.243 NA
ATOM     25  C   UNL     1      -5.404   3.003  25.925  0.00  0.00    +0.096 A 
ENDBRANCH  19  20
ENDBRANCH  18  19
ENDBRANCH  15  16
BRANCH   8   7
ATOM      7  C   UNL     1      -0.316   1.260  24.063  0.00  0.00    +0.145 C 
BRANCH   7   6
ATOM      4  C   UNL     1      -0.244  -0.842  24.427  0.00  0.00    +0.103 A 
ATOM      5  C   UNL     1      -0.493  -0.083  24.634  0.00  0.00    +0.113 A 
ATOM      6  N   UNL     1      -0.200   0.443  24.070  0.00  0.00    -0.229 N 
ATOM     26  N   UNL     1       0.229   0.010  23.515  0.00  0.00    -0.064 NA
ATOM     27  N   UNL     1       0.201  -0.785  23.736  0.00  0.00    -0.133 NA
BRANCH   4   3
ATOM      3  C   UNL     1      -0.413  -1.536  24.840  0.00  0.00    +0.085 C 
BRANCH   3   2
ATOM      1  O   UNL     1      -1.307  -2.611  25.138  0.00  0.00    -0.220 OA
ATOM      2  C   UNL     1      -1.153  -1.892  24.763  0.00  0.00    +0.189 C 
ENDBRANCH   3   2
ENDBRANCH   4   3
ENDBRANCH   7   6
ENDBRANCH   8   7
TORSDOF 7
ENDMDL
MODEL 7
REMARK VINA RESULT:      -8.8      1.806      5.217
REMARK  Name = 
REMARK  7 active torsions:
REMARK  status: ('A' for Active; 'I' for Inactive)
REMARK    1  A    between atoms: C_2  and  C_3
REMARK    2  A    between atoms: C_3  and  C_4
REMARK    3  A    between atoms: N_6  and  C_7
REMARK    4  A    between atoms: C_7  and  C_8
REMARK    5  A    between atoms: C_15  and  C_16
REMARK    6  A    between atoms: N_18  and  C_19
REMARK    7  A    between atoms: C_19  and  C_20
REMARK                            x       y       z     vdW  Elec       q    Type
REMARK                         _______ _______ _______ _____ _____    ______ ____
ROOT
ATOM      8  C   UNL     1      -1.600   2.673  24.975  0.00  0.00    +0.082 C 
ATOM      9  C   UNL     1      -1.166   2.217  25.432  0.00  0.00    +0.019 C 
ATOM     10  C   UNL     1      -1.035   1.426  25.321  0.00  0.00    +0.013 C 
ATOM     11  C   UNL     1      -0.507   1.082  25.959  0.00  0.00    +0.018 C 
ATOM     12  C   UNL     1      -0.841   1.553  25.653  0.00  0.00    +0.072 C 
ATOM     13  N   UNL     1      -1.462   1.866  24.869  0.00  0.00    -0.272 NA
ATOM     14  C   UNL     1      -1.745   1.277  24.232  0.00  0.00    +0.081 C 
ATOM     15  C   UNL     1      -1.312   0.865  24.706  0.00  0.00    +0.094 C 
ENDROOT
BRANCH  15  16
ATOM     16  C   UNL     1      -1.139   0.059  24.651  0.00  0.00    +0.243 C 
ATOM     17  O   UNL     1      -0.368  -0.186  24.487  0.00  0.00    -0.273 OA
ATOM     18  N   UNL     1      -1.736  -0.498  24.759  0.00  0.00    -0.200 NA
BRANCH  18  19
ATOM     19  C   UNL     1      -1.563  -1.304  24.704  0.00  0.00    +0.143 C 
BRANCH  19  20
ATOM     20  C   UNL     1      -2.175  -1.857  24.705  0.00  0.00    +0.019 A 
ATOM     21  C   UNL     1      -2.825  -1.752  25.200  0.00  0.00    +0.001 A 
ATOM     22  C   UNL     1      -3.438  -2.305  25.203  0.00  0.00    +0.020 A 
ATOM     23  C   UNL     1      -3.398  -2.965  24.709  0.00  0.00    +0.099 A 
ATOM     24  N   UNL     1      -2.747  -3.071  24.213  0.00  0.00    -0.243 NA
ATOM     25  C   UNL     1      -2.135  -2.517  24.211  0.00  0.00    +0.096 A 
ENDBRANCH  19  20
ENDBRANCH  18  19
ENDBRANCH  15  16
BRANCH   8   7
ATOM      7  C   UNL     1      -1.935   3.396  24.762  0.00  0.00    +0.145 C 
BRANCH   7   6
ATOM      4  C   UNL     1      -3.863   3.954  25.488  0.00  0.00    +0.103 A 
ATOM      5  C   UNL     1      -3.383   3.590  24.924  0.00  0.00    +0.113 A 
ATOM      6  N   UNL     1      -2.599   3.677  25.164  0.00  0.00    -0.229 N 
ATOM     26  N   UNL     1      -2.594   4.093  25.876  0.00  0.00    -0.064 NA
ATOM     27  N   UNL     1      -3.376   4.264  26.076  0.00  0.00    -0.133 NA
BRANCH   4   3
ATOM      3  C   UNL     1      -4.687   3.998  25.467  0.00  0.00    +0.085 C 
BRANCH   3   2
ATOM      1  O   UNL     1      -5.961   3.431  25.780  0.00  0.00    -0.220 OA
ATOM      2  C   UNL     1      -5.141   3.360  25.728  0.00  0.00    +0.189 C 
ENDBRANCH   3   2
ENDBRANCH   4   3
ENDBRANCH   7   6
ENDBRANCH   8   7
TORSDOF 7
ENDMDL
