MODEL 1
REMARK VINA RESULT:      -8.7      0.000      0.000
REMARK  Name = 
REMARK  6 active torsions:
REMARK  status: ('A' for Active; 'I' for Inactive)
REMARK    1  A    between atoms: O_2  and  C_3
REMARK    2  A    between atoms: C_3  and  C_4
REMARK    3  A    between atoms: N_6  and  C_7
REMARK    4  A    between atoms: C_9  and  C_10
REMARK    5  A    between atoms: C_10  and  C_11
REMARK    6  A    between atoms: C_14  and  C_15
REMARK                            x       y       z     vdW  Elec       q    Type
REMARK                         _______ _______ _______ _____ _____    ______ ____
ROOT
ATOM      7  C   UNL     1      -4.015   2.406  24.951  0.00  0.00    +0.095 C 
ATOM      8  C   UNL     1      -3.696   1.656  24.821  0.00  0.00    +0.022 C 
ATOM      9  C   UNL     1      -4.452   1.327  24.868  0.00  0.00    +0.009 C 
ATOM     18  C   UNL     1      -4.770   2.077  24.997  0.00  0.00    +0.019 C 
ATOM     19  C   UNL     1      -5.580   1.933  25.073  0.00  0.00    +0.002 C 
ATOM     20  C   UNL     1      -5.257   2.729  25.134  0.00  0.00    +0.002 C 
ENDROOT
BRANCH   7   6
ATOM      4  C   UNL     1      -2.888   3.280  25.039  0.00  0.00    +0.272 C 
ATOM      5  O   UNL     1      -2.381   2.629  25.010  0.00  0.00    -0.271 OA
ATOM      6  N   UNL     1      -3.706   3.168  25.009  0.00  0.00    -0.205 NA
BRANCH   4   3
ATOM      3  C   UNL     1      -2.578   4.042  25.097  0.00  0.00    +0.229 C 
BRANCH   3   2
ATOM      1  C   UNL     1      -1.450   4.916  25.168  0.00  0.00    +0.175 C 
ATOM      2  O   UNL     1      -1.762   4.152  25.149  0.00  0.00    -0.342 OA
ENDBRANCH   3   2
ENDBRANCH   4   3
ENDBRANCH   7   6
BRANCH   9  10
ATOM     10  C   UNL     1      -4.761   0.564  24.810  0.00  0.00    +0.049 C 
BRANCH  10  11
ATOM     11  C   UNL     1      -4.257  -0.077  24.684  0.00  0.00    +0.100 A 
ATOM     12  N   UNL     1      -3.888  -0.272  23.972  0.00  0.00    -0.082 NA
ATOM     13  O   UNL     1      -3.436  -0.951  24.096  0.00  0.00    -0.355 OA
ATOM     14  C   UNL     1      -3.526  -1.175  24.885  0.00  0.00    +0.187 A 
ATOM     17  C   UNL     1      -4.033  -0.635  25.248  0.00  0.00    +0.056 A 
BRANCH  14  15
ATOM     15  C   UNL     1      -3.170  -1.826  25.247  0.00  0.00    +0.249 C 
ATOM     16  O   UNL     1      -3.502  -2.576  25.167  0.00  0.00    -0.212 OA
ENDBRANCH  14  15
ENDBRANCH  10  11
ENDBRANCH   9  10
TORSDOF 6
ENDMDL
MODEL 2
REMARK VINA RESULT:      -8.7      1.012      4.372
REMARK  Name = 
REMARK  6 active torsions:
REMARK  status: ('A' for Active; 'I' for Inactive)
REMARK    1  A    between atoms: O_2  and  C_3
REMARK    2  A    between atoms: C_3  and  C_4
REMARK    3  A    between atoms: N_6  and  C_7
REMARK    4  A    between atoms: C_9  and  C_10
REMARK    5  A    between atoms: C_10  and  C_11
REMARK    6  A    between atoms: C_14  and  C_15
REMARK                            x       y       z     vdW  Elec       q    Type
REMARK                         _______ _______ _______ _____ _____    ______ ____
ROOT
ATOM      7  C   UNL     1      -4.565   1.539  24.981  0.00  0.00    +0.095 C 
ATOM      8  C   UNL     1      -3.887   2.007  24.942  0.00  0.00    +0.022 C 
ATOM      9  C   UNL     1      -4.345   2.680  25.080  0.00  0.00    +0.009 C 
ATOM     18  C   UNL     1      -5.022   2.212  25.119  0.00  0.00    +0.019 C 
ATOM     19  C   UNL     1      -5.626   2.756  25.263  0.00  0.00    +0.002 C 
ATOM     20  C   UNL     1      -5.788   1.913  25.189  0.00  0.00    +0.002 C 
ENDROOT
BRANCH   7   6
ATOM      4  C   UNL     1      -4.127   0.219  24.652  0.00  0.00    +0.272 C 
ATOM      5  O   UNL     1      -3.380   0.514  24.464  0.00  0.00    -0.271 OA
ATOM      6  N   UNL     1      -4.720   0.732  24.910  0.00  0.00    -0.205 NA
BRANCH   4   3
ATOM      3  C   UNL     1      -4.282  -0.588  24.581  0.00  0.00    +0.229 C 
BRANCH   3   2
ATOM      1  C   UNL     1      -4.134  -1.819  23.870  0.00  0.00    +0.175 C 
ATOM      2  O   UNL     1      -3.982  -1.011  23.939  0.00  0.00    -0.342 OA
ENDBRANCH   3   2
ENDBRANCH   4   3
ENDBRANCH   7   6
BRANCH   9  10
ATOM     10  C   UNL     1      -4.189   3.487  25.151  0.00  0.00    +0.049 C 
BRANCH  10  11
ATOM     11  C   UNL     1      -3.444   3.744  25.398  0.00  0.00    +0.100 A 
ATOM     12  N   UNL     1      -3.173   3.763  26.176  0.00  0.00    -0.082 NA
ATOM     13  O   UNL     1      -2.402   4.057  26.170  0.00  0.00    -0.355 OA
ATOM     14  C   UNL     1      -2.198   4.219  25.387  0.00  0.00    +0.187 A 
ATOM     17  C   UNL     1      -2.843   4.026  24.910  0.00  0.00    +0.056 A 
BRANCH  14  15
ATOM     15  C   UNL     1      -1.475   4.522  25.127  0.00  0.00    +0.249 C 
ATOM     16  O   UNL     1      -1.329   5.333  25.168  0.00  0.00    -0.212 OA
ENDBRANCH  14  15
ENDBRANCH  10  11
ENDBRANCH   9  10
TORSDOF 6
ENDMDL
MODEL 3
REMARK VINA RESULT:      -8.3      2.030      3.773
REMARK  Name = 
REMARK  6 active torsions:
REMARK  status: ('A' for Active; 'I' for Inactive)
REMARK    1  A    between atoms: O_2  and  C_3
REMARK    2  A    between atoms: C_3  and  C_4
REMARK    3  A    between atoms: N_6  and  C_7
REMARK    4  A    between atoms: C_9  and  C_10
REMARK    5  A    between atoms: C_10  and  C_11
REMARK    6  A    between atoms: C_14  and  C_15
REMARK                            x       y       z     vdW  Elec       q    Type
REMARK                         _______ _______ _______ _____ _____    ______ ____
ROOT
ATOM      7  C   UNL     1      -2.862  -0.098  24.528  0.00  0.00    +0.095 C 
ATOM      8  C   UNL     1      -3.147   0.665  24.664  0.00  0.00    +0.022 C 
ATOM      9  C   UNL     1      -3.921   0.378  24.640  0.00  0.00    +0.009 C 
ATOM     18  C   UNL     1      -3.636  -0.383  24.505  0.00  0.00    +0.019 C 
ATOM     19  C   UNL     1      -4.322  -0.839  24.450  0.00  0.00    +0.002 C 
ATOM     20  C   UNL     1      -3.539  -1.191  24.368  0.00  0.00    +0.002 C 
ENDROOT
BRANCH   7   6
ATOM      4  C   UNL     1      -1.445   0.050  24.425  0.00  0.00    +0.272 C 
ATOM      5  O   UNL     1      -1.526   0.869  24.482  0.00  0.00    -0.271 OA
ATOM      6  N   UNL     1      -2.113  -0.434  24.449  0.00  0.00    -0.205 NA
BRANCH   4   3
ATOM      3  C   UNL     1      -0.696  -0.286  24.346  0.00  0.00    +0.229 C 
BRANCH   3   2
ATOM      1  C   UNL     1       0.522  -0.342  23.600  0.00  0.00    +0.175 C 
ATOM      2  O   UNL     1      -0.123   0.087  23.883  0.00  0.00    -0.342 OA
ENDBRANCH   3   2
ENDBRANCH   4   3
ENDBRANCH   7   6
BRANCH   9  10
ATOM     10  C   UNL     1      -4.670   0.715  24.720  0.00  0.00    +0.049 C 
BRANCH  10  11
ATOM     11  C   UNL     1      -4.750   1.535  24.774  0.00  0.00    +0.100 A 
ATOM     12  N   UNL     1      -4.625   2.076  24.164  0.00  0.00    -0.082 NA
ATOM     13  O   UNL     1      -4.767   2.833  24.460  0.00  0.00    -0.355 OA
ATOM     14  C   UNL     1      -4.980   2.759  25.254  0.00  0.00    +0.187 A 
ATOM     17  C   UNL     1      -4.970   1.957  25.448  0.00  0.00    +0.056 A 
BRANCH  14  15
ATOM     15  C   UNL     1      -5.171   3.379  25.764  0.00  0.00    +0.249 C 
ATOM     16  O   UNL     1      -5.915   3.732  25.725  0.00  0.00    -0.212 OA
ENDBRANCH  14  15
ENDBRANCH  10  11
ENDBRANCH   9  10
TORSDOF 6
ENDMDL
MODEL 4
REMARK VINA RESULT:      -8.1      2.236      3.579
REMARK  Name = 
REMARK  6 active torsions:
REMARK  status: ('A' for Active; 'I' for Inactive)
REMARK    1  A    between atoms: O_2  and  C_3
REMARK    2  A    between atoms: C_3  and  C_4
REMARK    3  A    between atoms: N_6  and  C_7
REMARK    4  A    between atoms: C_9  and  C_10
REMARK    5  A    between atoms: C_10  and  C_11
REMARK    6  A    between atoms: C_14  and  C_15
REMARK                            x       y       z     vdW  Elec       q    Type
REMARK                         _______ _______ _______ _____ _____    ______ ____
ROOT
ATOM      7  C   UNL     1      -3.882  -0.548  24.674  0.00  0.00    +0.095 C 
ATOM      8  C   UNL     1      -3.089  -0.480  24.890  0.00  0.00    +0.022 C 
ATOM      9  C   UNL     1      -2.953  -1.252  24.633  0.00  0.00    +0.009 C 
ATOM     18  C   UNL     1      -3.746  -1.320  24.418  0.00  0.00    +0.019 C 
ATOM     19  C   UNL     1      -3.799  -2.087  24.117  0.00  0.00    +0.002 C 
ATOM     20  C   UNL     1      -4.485  -1.567  24.148  0.00  0.00    +0.002 C 
ENDROOT
BRANCH   7   6
ATOM      4  C   UNL     1      -4.446   0.742  24.916  0.00  0.00    +0.272 C 
ATOM      5  O   UNL     1      -3.697   1.035  25.099  0.00  0.00    -0.271 OA
ATOM      6  N   UNL     1      -4.539  -0.050  24.704  0.00  0.00    -0.205 NA
BRANCH   4   3
ATOM      3  C   UNL     1      -5.103   1.240  24.946  0.00  0.00    +0.229 C 
BRANCH   3   2
ATOM      1  C   UNL     1      -5.704   2.469  25.361  0.00  0.00    +0.175 C 
ATOM      2  O   UNL     1      -5.035   1.992  25.280  0.00  0.00    -0.342 OA
ENDBRANCH   3   2
ENDBRANCH   4   3
ENDBRANCH   7   6
BRANCH   9  10
ATOM     10  C   UNL     1      -2.295  -1.750  24.604  0.00  0.00    +0.049 C 
BRANCH  10  11
ATOM     11  C   UNL     1      -1.535  -1.434  24.670  0.00  0.00    +0.100 A 
ATOM     12  N   UNL     1      -1.125  -1.302  25.372  0.00  0.00    -0.082 NA
ATOM     13  O   UNL     1      -0.389  -0.981  25.181  0.00  0.00    -0.355 OA
ATOM     14  C   UNL     1      -0.346  -0.916  24.360  0.00  0.00    +0.187 A 
ATOM     17  C   UNL     1      -1.054  -1.196  24.044  0.00  0.00    +0.056 A 
BRANCH  14  15
ATOM     15  C   UNL     1       0.295  -0.622  23.930  0.00  0.00    +0.249 C 
ATOM     16  O   UNL     1       0.278   0.150  23.640  0.00  0.00    -0.212 OA
ENDBRANCH  14  15
ENDBRANCH  10  11
ENDBRANCH   9  10
TORSDOF 6
ENDMDL
MODEL 5
REMARK VINA RESULT:      -8.1      2.656      4.035
REMARK  Name = 
REMARK  6 active torsions:
REMARK  status: ('A' for Active; 'I' for Inactive)
REMARK    1  A    between atoms: O_2  and  C_3
REMARK    2  A    between atoms: C_3  and  C_4
REMARK    3  A    between atoms: N_6  and  C_7
REMARK    4  A    between atoms: C_9  and  C_10
REMARK    5  A    between atoms: C_10  and  C_11
REMARK    6  A    between atoms: C_14  and  C_15
REMARK                            x       y       z     vdW  Elec       q    Type
REMARK                         _______ _______ _______ _____ _____    ______ ____
ROOT
ATOM      7  C   UNL     1      -1.299   3.004  24.802  0.00  0.00    +0.095 C 
ATOM      8  C   UNL     1      -2.098   2.831  24.911  0.00  0.00    +0.022 C 
ATOM      9  C   UNL     1      -2.236   3.614  25.132  0.00  0.00    +0.009 C 
ATOM     18  C   UNL     1      -1.437   3.787  25.023  0.00  0.00    +0.019 C 
ATOM     19  C   UNL     1      -1.385   4.588  25.212  0.00  0.00    +0.002 C 
ATOM     20  C   UNL     1      -0.692   4.137  24.969  0.00  0.00    +0.002 C 
ENDROOT
BRANCH   7   6
ATOM      4  C   UNL     1      -0.714   1.775  24.367  0.00  0.00    +0.272 C 
ATOM      5  O   UNL     1      -1.454   1.411  24.398  0.00  0.00    -0.271 OA
ATOM      6  N   UNL     1      -0.636   2.571  24.569  0.00  0.00    -0.205 NA
BRANCH   4   3
ATOM      3  C   UNL     1      -0.051   1.342  24.134  0.00  0.00    +0.229 C 
BRANCH   3   2
ATOM      1  C   UNL     1       0.511   0.216  23.458  0.00  0.00    +0.175 C 
ATOM      2  O   UNL     1      -0.146   0.611  23.763  0.00  0.00    -0.342 OA
ENDBRANCH   3   2
ENDBRANCH   4   3
ENDBRANCH   7   6
BRANCH   9  10
ATOM     10  C   UNL     1      -2.900   4.046  25.365  0.00  0.00    +0.049 C 
BRANCH  10  11
ATOM     11  C   UNL     1      -3.656   3.735  25.249  0.00  0.00    +0.100 A 
ATOM     12  N   UNL     1      -4.047   3.668  24.527  0.00  0.00    -0.082 NA
ATOM     13  O   UNL     1      -4.786   3.329  24.667  0.00  0.00    -0.355 OA
ATOM     14  C   UNL     1      -4.850   3.186  25.478  0.00  0.00    +0.187 A 
ATOM     17  C   UNL     1      -4.152   3.438  25.837  0.00  0.00    +0.056 A 
BRANCH  14  15
ATOM     15  C   UNL     1      -5.500   2.851  25.860  0.00  0.00    +0.249 C 
ATOM     16  O   UNL     1      -5.862   2.179  25.548  0.00  0.00    -0.212 OA
ENDBRANCH  14  15
ENDBRANCH  10  11
ENDBRANCH   9  10
TORSDOF 6
ENDMDL
