MODEL 1
REMARK VINA RESULT:     -12.1      0.000      0.000
REMARK  Name = 
REMARK  7 active torsions:
REMARK  status: ('A' for Active; 'I' for Inactive)
REMARK    1  A    between atoms: C_5  and  C_6
REMARK    2  A    between atoms: C_6  and  C_7
REMARK    3  A    between atoms: C_10  and  C_11
REMARK    4  A    between atoms: C_11  and  N_12
REMARK    5  A    between atoms: C_20  and  C_21
REMARK    6  A    between atoms: C_21  and  N_22
REMARK    7  A    between atoms: C_23  and  C_25
REMARK                            x       y       z     vdW  Elec       q    Type
REMARK                         _______ _______ _______ _____ _____    ______ ____
ROOT
ATOM      1  O   UNL     1      -5.759   3.386  26.045  0.00  0.00    -0.220 OA
ATOM      2  C   UNL     1      -5.397   2.800  25.591  0.00  0.00    +0.181 C 
ATOM      3  C   UNL     1      -5.848   2.186  25.276  0.00  0.00    +0.038 C 
ATOM      4  C   UNL     1      -5.485   1.599  24.822  0.00  0.00    +0.033 C 
ATOM      5  C   UNL     1      -4.673   1.627  24.684  0.00  0.00    +0.121 C 
ATOM     19  O   UNL     1      -4.222   2.242  25.000  0.00  0.00    -0.354 OA
ATOM     20  C   UNL     1      -4.584   2.828  25.453  0.00  0.00    +0.167 C 
ENDROOT
BRANCH   5   6
ATOM      6  C   UNL     1      -4.310   1.040  24.230  0.00  0.00    +0.079 C 
BRANCH   6   7
ATOM      7  C   UNL     1      -4.099   0.322  24.577  0.00  0.00    +0.103 A 
ATOM      8  N   UNL     1      -4.562  -0.361  24.597  0.00  0.00    -0.082 NA
ATOM      9  O   UNL     1      -4.137  -0.944  24.996  0.00  0.00    -0.357 OA
ATOM     10  C   UNL     1      -3.413  -0.622  25.224  0.00  0.00    +0.170 A 
ATOM     18  C   UNL     1      -3.390   0.161  24.965  0.00  0.00    +0.055 A 
BRANCH  10  11
ATOM     11  C   UNL     1      -2.816  -1.013  25.638  0.00  0.00    +0.141 C 
BRANCH  11  12
ATOM     12  N   UNL     1      -2.184  -1.351  25.231  0.00  0.00    -0.262 NA
ATOM     13  C   UNL     1      -2.281  -2.073  24.844  0.00  0.00    +0.105 C 
ATOM     14  C   UNL     1      -1.648  -2.410  24.436  0.00  0.00    +0.159 C 
ATOM     15  O   UNL     1      -0.918  -2.026  24.415  0.00  0.00    -0.351 OA
ATOM     16  C   UNL     1      -0.822  -1.304  24.802  0.00  0.00    +0.159 C 
ATOM     17  C   UNL     1      -1.454  -0.966  25.210  0.00  0.00    +0.105 C 
ENDBRANCH  11  12
ENDBRANCH  10  11
ENDBRANCH   6   7
ENDBRANCH   5   6
BRANCH  20  21
ATOM     21  C   UNL     1      -4.133   3.442  25.769  0.00  0.00    +0.147 C 
BRANCH  21  22
ATOM     22  N   UNL     1      -3.388   3.612  25.454  0.00  0.00    -0.199 NA
ATOM     23  C   UNL     1      -2.861   4.088  25.875  0.00  0.00    +0.265 C 
ATOM     24  O   UNL     1      -3.079   4.393  26.610  0.00  0.00    -0.268 OA
BRANCH  23  25
ATOM     25  C   UNL     1      -2.119   4.258  25.560  0.00  0.00    +0.055 A 
ATOM     26  C   UNL     1      -1.963   5.007  25.251  0.00  0.00    +0.005 A 
ATOM     27  C   UNL     1      -1.219   5.177  24.936  0.00  0.00    +0.000 A 
ATOM     28  C   UNL     1      -0.632   4.598  24.931  0.00  0.00    +0.000 A 
ATOM     29  C   UNL     1      -0.788   3.849  25.239  0.00  0.00    +0.000 A 
ATOM     30  C   UNL     1      -1.530   3.679  25.554  0.00  0.00    +0.005 A 
ENDBRANCH  23  25
ENDBRANCH  21  22
ENDBRANCH  20  21
TORSDOF 7
ENDMDL
MODEL 2
REMARK VINA RESULT:     -11.9      1.304      4.179
REMARK  Name = 
REMARK  7 active torsions:
REMARK  status: ('A' for Active; 'I' for Inactive)
REMARK    1  A    between atoms: C_5  and  C_6
REMARK    2  A    between atoms: C_6  and  C_7
REMARK    3  A    between atoms: C_10  and  C_11
REMARK    4  A    between atoms: C_11  and  N_12
REMARK    5  A    between atoms: C_20  and  C_21
REMARK    6  A    between atoms: C_21  and  N_22
REMARK    7  A    between atoms: C_23  and  C_25
REMARK                            x       y       z     vdW  Elec       q    Type
REMARK                         _______ _______ _______ _____ _____    ______ ____
ROOT
ATOM      1  O   UNL     1      -6.180   1.653  25.800  0.00  0.00    -0.220 OA
ATOM      2  C   UNL     1      -5.616   2.191  25.534  0.00  0.00    +0.181 C 
ATOM      3  C   UNL     1      -5.675   2.987  25.742  0.00  0.00    +0.038 C 
ATOM      4  C   UNL     1      -5.111   3.527  25.475  0.00  0.00    +0.033 C 
ATOM      5  C   UNL     1      -4.487   3.270  25.000  0.00  0.00    +0.121 C 
ATOM     19  O   UNL     1      -4.428   2.474  24.792  0.00  0.00    -0.354 OA
ATOM     20  C   UNL     1      -4.992   1.935  25.058  0.00  0.00    +0.167 C 
ENDROOT
BRANCH   5   6
ATOM      6  C   UNL     1      -3.922   3.810  24.733  0.00  0.00    +0.079 C 
BRANCH   6   7
ATOM      7  C   UNL     1      -3.194   3.869  25.117  0.00  0.00    +0.103 A 
ATOM      8  N   UNL     1      -3.081   4.001  25.924  0.00  0.00    -0.082 NA
ATOM      9  O   UNL     1      -2.269   4.020  26.066  0.00  0.00    -0.357 OA
ATOM     10  C   UNL     1      -1.881   3.900  25.348  0.00  0.00    +0.170 A 
ATOM     18  C   UNL     1      -2.453   3.807  24.762  0.00  0.00    +0.055 A 
BRANCH  10  11
ATOM     11  C   UNL     1      -1.063   3.877  25.237  0.00  0.00    +0.141 C 
BRANCH  11  12
ATOM     12  N   UNL     1      -0.666   3.155  25.241  0.00  0.00    -0.262 NA
ATOM     13  C   UNL     1      -0.428   2.811  24.530  0.00  0.00    +0.105 C 
ATOM     14  C   UNL     1      -0.031   2.088  24.535  0.00  0.00    +0.159 C 
ATOM     15  O   UNL     1       0.129   1.709  25.250  0.00  0.00    -0.351 OA
ATOM     16  C   UNL     1      -0.109   2.053  25.961  0.00  0.00    +0.159 C 
ATOM     17  C   UNL     1      -0.507   2.776  25.957  0.00  0.00    +0.105 C 
ENDBRANCH  11  12
ENDBRANCH  10  11
ENDBRANCH   6   7
ENDBRANCH   5   6
BRANCH  20  21
ATOM     21  C   UNL     1      -4.933   1.139  24.850  0.00  0.00    +0.147 C 
BRANCH  21  22
ATOM     22  N   UNL     1      -4.264   0.705  25.063  0.00  0.00    -0.199 NA
ATOM     23  C   UNL     1      -4.147  -0.051  24.755  0.00  0.00    +0.265 C 
ATOM     24  O   UNL     1      -4.699  -0.373  24.233  0.00  0.00    -0.268 OA
BRANCH  23  25
ATOM     25  C   UNL     1      -3.478  -0.484  24.968  0.00  0.00    +0.055 A 
ATOM     26  C   UNL     1      -2.803  -0.459  24.495  0.00  0.00    +0.005 A 
ATOM     27  C   UNL     1      -2.133  -0.893  24.709  0.00  0.00    +0.000 A 
ATOM     28  C   UNL     1      -2.141  -1.351  25.395  0.00  0.00    +0.000 A 
ATOM     29  C   UNL     1      -2.817  -1.376  25.868  0.00  0.00    +0.000 A 
ATOM     30  C   UNL     1      -3.485  -0.943  25.654  0.00  0.00    +0.005 A 
ENDBRANCH  23  25
ENDBRANCH  21  22
ENDBRANCH  20  21
TORSDOF 7
ENDMDL
MODEL 3
REMARK VINA RESULT:     -11.8      1.489      5.130
REMARK  Name = 
REMARK  7 active torsions:
REMARK  status: ('A' for Active; 'I' for Inactive)
REMARK    1  A    between atoms: C_5  and  C_6
REMARK    2  A    between atoms: C_6  and  C_7
REMARK    3  A    between atoms: C_10  and  C_11
REMARK    4  A    between atoms: C_11  and  N_12
REMARK    5  A    between atoms: C_20  and  C_21
REMARK    6  A    between atoms: C_21  and  N_22
REMARK    7  A    between atoms: C_23  and  C_25
REMARK                            x       y       z     vdW  Elec       q    Type
REMARK                         _______ _______ _______ _____ _____    ______ ____
ROOT
ATOM      1  O   UNL     1       0.359   1.456  24.442  0.00  0.00    -0.220 OA
ATOM      2  C   UNL     1      -0.169   1.985  24.788  0.00  0.00    +0.181 C 
ATOM      3  C   UNL     1      -0.078   2.796  24.669  0.00  0.00    +0.038 C 
ATOM      4  C   UNL     1      -0.607   3.327  25.016  0.00  0.00    +0.033 C 
ATOM      5  C   UNL     1      -1.227   3.045  25.481  0.00  0.00    +0.121 C 
ATOM     19  O   UNL     1      -1.318   2.233  25.600  0.00  0.00    -0.354 OA
ATOM     20  C   UNL     1      -0.790   1.704  25.254  0.00  0.00    +0.167 C 
ENDROOT
BRANCH   5   6
ATOM      6  C   UNL     1      -1.757   3.575  25.828  0.00  0.00    +0.079 C 
BRANCH   6   7
ATOM      7  C   UNL     1      -2.494   3.708  25.482  0.00  0.00    +0.103 A 
ATOM      8  N   UNL     1      -2.627   3.994  24.720  0.00  0.00    -0.082 NA
ATOM      9  O   UNL     1      -3.442   4.041  24.605  0.00  0.00    -0.357 OA
ATOM     10  C   UNL     1      -3.813   3.783  25.296  0.00  0.00    +0.170 A 
ATOM     18  C   UNL     1      -3.227   3.577  25.838  0.00  0.00    +0.055 A 
BRANCH  10  11
ATOM     11  C   UNL     1      -4.627   3.739  25.422  0.00  0.00    +0.141 C 
BRANCH  11  12
ATOM     12  N   UNL     1      -5.020   3.020  25.335  0.00  0.00    -0.262 NA
ATOM     13  C   UNL     1      -5.385   2.668  25.987  0.00  0.00    +0.105 C 
ATOM     14  C   UNL     1      -5.778   1.948  25.900  0.00  0.00    +0.159 C 
ATOM     15  O   UNL     1      -5.806   1.579  25.162  0.00  0.00    -0.351 OA
ATOM     16  C   UNL     1      -5.440   1.930  24.512  0.00  0.00    +0.159 C 
ATOM     17  C   UNL     1      -5.048   2.650  24.598  0.00  0.00    +0.105 C 
ENDBRANCH  11  12
ENDBRANCH  10  11
ENDBRANCH   6   7
ENDBRANCH   5   6
BRANCH  20  21
ATOM     21  C   UNL     1      -0.881   0.893  25.373  0.00  0.00    +0.147 C 
BRANCH  21  22
ATOM     22  N   UNL     1      -1.606   0.531  25.216  0.00  0.00    -0.199 NA
ATOM     23  C   UNL     1      -1.727  -0.259  25.421  0.00  0.00    +0.265 C 
ATOM     24  O   UNL     1      -1.121  -0.687  25.783  0.00  0.00    -0.268 OA
BRANCH  23  25
ATOM     25  C   UNL     1      -2.451  -0.619  25.264  0.00  0.00    +0.055 A 
ATOM     26  C   UNL     1      -2.682  -0.758  24.484  0.00  0.00    +0.005 A 
ATOM     27  C   UNL     1      -3.408  -1.119  24.327  0.00  0.00    +0.000 A 
ATOM     28  C   UNL     1      -3.901  -1.341  24.950  0.00  0.00    +0.000 A 
ATOM     29  C   UNL     1      -3.670  -1.203  25.729  0.00  0.00    +0.000 A 
ATOM     30  C   UNL     1      -2.945  -0.842  25.886  0.00  0.00    +0.005 A 
ENDBRANCH  23  25
ENDBRANCH  21  22
ENDBRANCH  20  21
TORSDOF 7
ENDMDL
MODEL 4
REMARK VINA RESULT:     -11.7      1.779      4.076
REMARK  Name = 
REMARK  7 active torsions:
REMARK  status: ('A' for Active; 'I' for Inactive)
REMARK    1  A    between atoms: C_5  and  C_6
REMARK    2  A    between atoms: C_6  and  C_7
REMARK    3  A    between atoms: C_10  and  C_11
REMARK    4  A    between atoms: C_11  and  N_12
REMARK    5  A    between atoms: C_20  and  C_21
REMARK    6  A    between atoms: C_21  and  N_22
REMARK    7  A    between atoms: C_23  and  C_25
REMARK                            x       y       z     vdW  Elec       q    Type
REMARK                         _______ _______ _______ _____ _____    ______ ____
ROOT
ATOM      1  O   UNL     1      -5.067   2.795  24.096  0.00  0.00    -0.220 OA
ATOM      2  C   UNL     1      -4.316   2.922  24.413  0.00  0.00    +0.181 C 
ATOM      3  C   UNL     1      -3.903   3.612  24.231  0.00  0.00    +0.038 C 
ATOM      4  C   UNL     1      -3.151   3.739  24.547  0.00  0.00    +0.033 C 
ATOM      5  C   UNL     1      -2.813   3.175  25.045  0.00  0.00    +0.121 C 
ATOM     19  O   UNL     1      -3.226   2.484  25.227  0.00  0.00    -0.354 OA
ATOM     20  C   UNL     1      -3.977   2.358  24.911  0.00  0.00    +0.167 C 
ENDROOT
BRANCH   5   6
ATOM      6  C   UNL     1      -2.061   3.301  25.361  0.00  0.00    +0.079 C 
BRANCH   6   7
ATOM      7  C   UNL     1      -1.399   2.970  24.997  0.00  0.00    +0.103 A 
ATOM      8  N   UNL     1      -1.072   3.206  24.277  0.00  0.00    -0.082 NA
ATOM      9  O   UNL     1      -0.419   2.727  24.124  0.00  0.00    -0.357 OA
ATOM     10  C   UNL     1      -0.342   2.194  24.750  0.00  0.00    +0.170 A 
ATOM     18  C   UNL     1      -0.947   2.345  25.289  0.00  0.00    +0.055 A 
BRANCH  10  11
ATOM     11  C   UNL     1       0.240   1.613  24.823  0.00  0.00    +0.141 C 
BRANCH  11  12
ATOM     12  N   UNL     1       0.206   0.935  24.355  0.00  0.00    -0.262 NA
ATOM     13  C   UNL     1       0.664   0.884  23.669  0.00  0.00    +0.105 C 
ATOM     14  C   UNL     1       0.630   0.206  23.201  0.00  0.00    +0.159 C 
ATOM     15  O   UNL     1       0.139  -0.422  23.418  0.00  0.00    -0.351 OA
ATOM     16  C   UNL     1      -0.317  -0.370  24.103  0.00  0.00    +0.159 C 
ATOM     17  C   UNL     1      -0.284   0.307  24.571  0.00  0.00    +0.105 C 
ENDBRANCH  11  12
ENDBRANCH  10  11
ENDBRANCH   6   7
ENDBRANCH   5   6
BRANCH  20  21
ATOM     21  C   UNL     1      -4.390   1.667  25.093  0.00  0.00    +0.147 C 
BRANCH  21  22
ATOM     22  N   UNL     1      -4.076   0.932  24.889  0.00  0.00    -0.199 NA
ATOM     23  C   UNL     1      -4.417   0.241  25.183  0.00  0.00    +0.265 C 
ATOM     24  O   UNL     1      -5.073   0.286  25.681  0.00  0.00    -0.268 OA
BRANCH  23  25
ATOM     25  C   UNL     1      -4.103  -0.493  24.979  0.00  0.00    +0.055 A 
ATOM     26  C   UNL     1      -3.687  -0.934  25.539  0.00  0.00    +0.005 A 
ATOM     27  C   UNL     1      -3.372  -1.669  25.335  0.00  0.00    +0.000 A 
ATOM     28  C   UNL     1      -3.473  -1.963  24.571  0.00  0.00    +0.000 A 
ATOM     29  C   UNL     1      -3.890  -1.523  24.011  0.00  0.00    +0.000 A 
ATOM     30  C   UNL     1      -4.204  -0.789  24.215  0.00  0.00    +0.005 A 
ENDBRANCH  23  25
ENDBRANCH  21  22
ENDBRANCH  20  21
TORSDOF 7
ENDMDL
MODEL 5
REMARK VINA RESULT:     -11.6      1.278      3.490
REMARK  Name = 
REMARK  7 active torsions:
REMARK  status: ('A' for Active; 'I' for Inactive)
REMARK    1  A    between atoms: C_5  and  C_6
REMARK    2  A    between atoms: C_6  and  C_7
REMARK    3  A    between atoms: C_10  and  C_11
REMARK    4  A    between atoms: C_11  and  N_12
REMARK    5  A    between atoms: C_20  and  C_21
REMARK    6  A    between atoms: C_21  and  N_22
REMARK    7  A    between atoms: C_23  and  C_25
REMARK                            x       y       z     vdW  Elec       q    Type
REMARK                         _______ _______ _______ _____ _____    ______ ____
ROOT
ATOM      1  O   UNL     1      -1.721   4.951  24.986  0.00  0.00    -0.220 OA
ATOM      2  C   UNL     1      -1.440   4.209  25.208  0.00  0.00    +0.181 C 
ATOM      3  C   UNL     1      -0.644   4.020  25.100  0.00  0.00    +0.038 C 
ATOM      4  C   UNL     1      -0.361   3.277  25.323  0.00  0.00    +0.033 C 
ATOM      5  C   UNL     1      -0.876   2.723  25.654  0.00  0.00    +0.121 C 
ATOM     19  O   UNL     1      -1.672   2.912  25.762  0.00  0.00    -0.354 OA
ATOM     20  C   UNL     1      -1.953   3.654  25.539  0.00  0.00    +0.167 C 
ENDROOT
BRANCH   5   6
ATOM      6  C   UNL     1      -0.593   1.980  25.877  0.00  0.00    +0.079 C 
BRANCH   6   7
ATOM      7  C   UNL     1      -0.792   1.313  25.434  0.00  0.00    +0.103 A 
ATOM      8  N   UNL     1      -0.726   1.238  24.614  0.00  0.00    -0.082 NA
ATOM      9  O   UNL     1      -0.985   0.484  24.407  0.00  0.00    -0.357 OA
ATOM     10  C   UNL     1      -1.210   0.092  25.097  0.00  0.00    +0.170 A 
ATOM     18  C   UNL     1      -1.091   0.605  25.731  0.00  0.00    +0.055 A 
BRANCH  10  11
ATOM     11  C   UNL     1      -1.504  -0.678  25.144  0.00  0.00    +0.141 C 
BRANCH  11  12
ATOM     12  N   UNL     1      -2.313  -0.816  25.072  0.00  0.00    -0.262 NA
ATOM     13  C   UNL     1      -2.651  -0.911  24.325  0.00  0.00    +0.105 C 
ATOM     14  C   UNL     1      -3.461  -1.049  24.253  0.00  0.00    +0.159 C 
ATOM     15  O   UNL     1      -3.934  -1.093  24.928  0.00  0.00    -0.351 OA
ATOM     16  C   UNL     1      -3.596  -0.998  25.674  0.00  0.00    +0.159 C 
ATOM     17  C   UNL     1      -2.786  -0.860  25.747  0.00  0.00    +0.105 C 
ENDBRANCH  11  12
ENDBRANCH  10  11
ENDBRANCH   6   7
ENDBRANCH   5   6
BRANCH  20  21
ATOM     21  C   UNL     1      -2.749   3.842  25.647  0.00  0.00    +0.147 C 
BRANCH  21  22
ATOM     22  N   UNL     1      -3.333   3.289  25.461  0.00  0.00    -0.199 NA
ATOM     23  C   UNL     1      -4.128   3.470  25.588  0.00  0.00    +0.265 C 
ATOM     24  O   UNL     1      -4.339   4.205  25.900  0.00  0.00    -0.268 OA
BRANCH  23  25
ATOM     25  C   UNL     1      -4.711   2.918  25.402  0.00  0.00    +0.055 A 
ATOM     26  C   UNL     1      -4.745   2.593  24.644  0.00  0.00    +0.005 A 
ATOM     27  C   UNL     1      -5.328   2.040  24.458  0.00  0.00    +0.000 A 
ATOM     28  C   UNL     1      -5.878   1.813  25.029  0.00  0.00    +0.000 A 
ATOM     29  C   UNL     1      -5.845   2.138  25.787  0.00  0.00    +0.000 A 
ATOM     30  C   UNL     1      -5.262   2.690  25.973  0.00  0.00    +0.005 A 
ENDBRANCH  23  25
ENDBRANCH  21  22
ENDBRANCH  20  21
TORSDOF 7
ENDMDL
MODEL 6
REMARK VINA RESULT:     -11.6      1.476      4.009
REMARK  Name = 
REMARK  7 active torsions:
REMARK  status: ('A' for Active; 'I' for Inactive)
REMARK    1  A    between atoms: C_5  and  C_6
REMARK    2  A    between atoms: C_6  and  C_7
REMARK    3  A    between atoms: C_10  and  C_11
REMARK    4  A    between atoms: C_11  and  N_12
REMARK    5  A    between atoms: C_20  and  C_21
REMARK    6  A    between atoms: C_21  and  N_22
REMARK    7  A    between atoms: C_23  and  C_25
REMARK                            x       y       z     vdW  Elec       q    Type
REMARK                         _______ _______ _______ _____ _____    ______ ____
ROOT
ATOM      1  O   UNL     1      -4.664  -1.364  24.046  0.00  0.00    -0.220 OA
ATOM      2  C   UNL     1      -3.954  -1.206  24.435  0.00  0.00    +0.181 C 
ATOM      3  C   UNL     1      -3.341  -1.757  24.415  0.00  0.00    +0.038 C 
ATOM      4  C   UNL     1      -2.630  -1.599  24.804  0.00  0.00    +0.033 C 
ATOM      5  C   UNL     1      -2.534  -0.890  25.214  0.00  0.00    +0.121 C 
ATOM     19  O   UNL     1      -3.148  -0.338  25.235  0.00  0.00    -0.354 OA
ATOM     20  C   UNL     1      -3.857  -0.496  24.846  0.00  0.00    +0.167 C 
ENDROOT
BRANCH   5   6
ATOM      6  C   UNL     1      -1.824  -0.732  25.604  0.00  0.00    +0.079 C 
BRANCH   6   7
ATOM      7  C   UNL     1      -1.293  -0.185  25.288  0.00  0.00    +0.103 A 
ATOM      8  N   UNL     1      -0.993  -0.188  24.519  0.00  0.00    -0.082 NA
ATOM      9  O   UNL     1      -0.484   0.455  24.442  0.00  0.00    -0.357 OA
ATOM     10  C   UNL     1      -0.468   0.857  25.162  0.00  0.00    +0.170 A 
ATOM     18  C   UNL     1      -0.968   0.461  25.685  0.00  0.00    +0.055 A 
BRANCH  10  11
ATOM     11  C   UNL     1      -0.029   1.535  25.331  0.00  0.00    +0.141 C 
BRANCH  11  12
ATOM     12  N   UNL     1      -0.343   2.280  25.169  0.00  0.00    -0.262 NA
ATOM     13  C   UNL     1      -0.686   2.723  25.775  0.00  0.00    +0.105 C 
ATOM     14  C   UNL     1      -1.000   3.469  25.613  0.00  0.00    +0.159 C 
ATOM     15  O   UNL     1      -0.972   3.772  24.846  0.00  0.00    -0.351 OA
ATOM     16  C   UNL     1      -0.629   3.328  24.241  0.00  0.00    +0.159 C 
ATOM     17  C   UNL     1      -0.314   2.583  24.402  0.00  0.00    +0.105 C 
ENDBRANCH  11  12
ENDBRANCH  10  11
ENDBRANCH   6   7
ENDBRANCH   5   6
BRANCH  20  21
ATOM     21  C   UNL     1      -4.470   0.055  24.866  0.00  0.00    +0.147 C 
BRANCH  21  22
ATOM     22  N   UNL     1      -4.302   0.862  24.814  0.00  0.00    -0.199 NA
ATOM     23  C   UNL     1      -4.905   1.416  24.917  0.00  0.00    +0.265 C 
ATOM     24  O   UNL     1      -5.675   1.164  25.073  0.00  0.00    -0.268 OA
BRANCH  23  25
ATOM     25  C   UNL     1      -4.737   2.221  24.865  0.00  0.00    +0.055 A 
ATOM     26  C   UNL     1      -4.430   2.534  24.166  0.00  0.00    +0.005 A 
ATOM     27  C   UNL     1      -4.261   3.341  24.114  0.00  0.00    +0.000 A 
ATOM     28  C   UNL     1      -4.400   3.833  24.761  0.00  0.00    +0.000 A 
ATOM     29  C   UNL     1      -4.707   3.521  25.460  0.00  0.00    +0.000 A 
ATOM     30  C   UNL     1      -4.875   2.715  25.512  0.00  0.00    +0.005 A 
ENDBRANCH  23  25
ENDBRANCH  21  22
ENDBRANCH  20  21
TORSDOF 7
ENDMDL
MODEL 7
REMARK VINA RESULT:     -11.6      1.403      4.107
REMARK  Name = 
REMARK  7 active torsions:
REMARK  status: ('A' for Active; 'I' for Inactive)
REMARK    1  A    between atoms: C_5  and  C_6
REMARK    2  A    between atoms: C_6  and  C_7
REMARK    3  A    between atoms: C_10  and  C_11
REMARK    4  A    between atoms: C_11  and  N_12
REMARK    5  A    between atoms: C_20  and  C_21
REMARK    6  A    between atoms: C_21  and  N_22
REMARK    7  A    between atoms: C_23  and  C_25
REMARK                            x       y       z     vdW  Elec       q    Type
REMARK                         _______ _______ _______ _____ _____    ______ ____
ROOT
ATOM      1  O   UNL     1      -0.529  -1.484  25.341  0.00  0.00    -0.220 OA
ATOM      2  C   UNL     1      -1.289  -1.311  25.072  0.00  0.00    +0.181 C 
ATOM      3  C   UNL     1      -1.897  -1.859  25.176  0.00  0.00    +0.038 C 
ATOM      4  C   UNL     1      -2.659  -1.687  24.907  0.00  0.00    +0.033 C 
ATOM      5  C   UNL     1      -2.811  -0.967  24.534  0.00  0.00    +0.121 C 
ATOM     19  O   UNL     1      -2.203  -0.419  24.431  0.00  0.00    -0.354 OA
ATOM     20  C   UNL     1      -1.443  -0.591  24.700  0.00  0.00    +0.167 C 
ENDROOT
BRANCH   5   6
ATOM      6  C   UNL     1      -3.572  -0.795  24.265  0.00  0.00    +0.079 C 
BRANCH   6   7
ATOM      7  C   UNL     1      -4.022  -0.216  24.644  0.00  0.00    +0.103 A 
ATOM      8  N   UNL     1      -4.204  -0.192  25.449  0.00  0.00    -0.082 NA
ATOM      9  O   UNL     1      -4.664   0.478  25.586  0.00  0.00    -0.357 OA
ATOM     10  C   UNL     1      -4.767   0.868  24.866  0.00  0.00    +0.170 A 
ATOM     18  C   UNL     1      -4.371   0.439  24.284  0.00  0.00    +0.055 A 
BRANCH  10  11
ATOM     11  C   UNL     1      -5.192   1.566  24.750  0.00  0.00    +0.141 C 
BRANCH  11  12
ATOM     12  N   UNL     1      -4.822   2.296  24.847  0.00  0.00    -0.262 NA
ATOM     13  C   UNL     1      -4.450   2.659  24.206  0.00  0.00    +0.105 C 
ATOM     14  C   UNL     1      -4.080   3.390  24.304  0.00  0.00    +0.159 C 
ATOM     15  O   UNL     1      -4.081   3.758  25.043  0.00  0.00    -0.351 OA
ATOM     16  C   UNL     1      -4.452   3.395  25.683  0.00  0.00    +0.159 C 
ATOM     17  C   UNL     1      -4.823   2.664  25.586  0.00  0.00    +0.105 C 
ENDBRANCH  11  12
ENDBRANCH  10  11
ENDBRANCH   6   7
ENDBRANCH   5   6
BRANCH  20  21
ATOM     21  C   UNL     1      -0.835  -0.043  24.596  0.00  0.00    +0.147 C 
BRANCH  21  22
ATOM     22  N   UNL     1      -0.937   0.739  24.840  0.00  0.00    -0.199 NA
ATOM     23  C   UNL     1      -0.376   1.310  24.642  0.00  0.00    +0.265 C 
ATOM     24  O   UNL     1       0.289   1.099  24.201  0.00  0.00    -0.268 OA
BRANCH  23  25
ATOM     25  C   UNL     1      -0.478   2.090  24.886  0.00  0.00    +0.055 A 
ATOM     26  C   UNL     1      -0.491   2.698  24.329  0.00  0.00    +0.005 A 
ATOM     27  C   UNL     1      -0.594   3.481  24.573  0.00  0.00    +0.000 A 
ATOM     28  C   UNL     1      -0.684   3.653  25.374  0.00  0.00    +0.000 A 
ATOM     29  C   UNL     1      -0.672   3.045  25.932  0.00  0.00    +0.000 A 
ATOM     30  C   UNL     1      -0.569   2.265  25.688  0.00  0.00    +0.005 A 
ENDBRANCH  23  25
ENDBRANCH  21  22
ENDBRANCH  20  21
TORSDOF 7
ENDMDL
