REMARK  Name = 
REMARK  6 active torsions:
REMARK  status: ('A' for Active; 'I' for Inactive)
REMARK    1  A    between atoms: C_3  and  C_4
REMARK    2  A    between atoms: C_4  and  N_5
REMARK    3  A    between atoms: N_8  and  C_9
REMARK    4  A    between atoms: C_17  and  N_18
REMARK    5  A    between atoms: N_18  and  C_19
REMARK    6  A    between atoms: C_19  and  C_20
REMARK                            x       y       z     vdW  Elec       q    Type
REMARK                         _______ _______ _______ _____ _____    ______ ____
ROOT
ATOM      1  O   UNL     1      -0.363  -4.023   0.000  0.00  0.00    -0.219 OA
ATOM      2  C   UNL     1      -0.192  -4.830   0.000  0.00  0.00    +0.199 C 
ATOM      3  C   UNL     1       0.562  -5.166   0.000  0.00  0.00    +0.169 C 
ATOM     15  O   UNL     1       0.476  -5.986   0.000  0.00  0.00    -0.350 OA
ATOM     16  C   UNL     1      -0.331  -6.158   0.000  0.00  0.00    +0.162 C 
ATOM     17  C   UNL     1      -0.744  -5.443   0.000  0.00  0.00    +0.135 C 
ENDROOT
BRANCH   3   4
ATOM      4  C   UNL     1       1.276  -4.753   0.000  0.00  0.00    +0.149 C 
BRANCH   4   5
ATOM      5  N   UNL     1       1.991  -5.166   0.000  0.00  0.00    -0.184 NA
ATOM      6  C   UNL     1       2.705  -4.753   0.000  0.00  0.00    +0.344 C 
ATOM      7  O   UNL     1       2.705  -3.928   0.000  0.00  0.00    -0.249 OA
ATOM      8  N   UNL     1       3.420  -5.166   0.000  0.00  0.00    -0.161 NA
BRANCH   8   9
ATOM      9  C   UNL     1       4.134  -4.753   0.000  0.00  0.00    +0.075 A 
ATOM     10  C   UNL     1       4.134  -3.928   0.000  0.00  0.00    +0.017 A 
ATOM     11  C   UNL     1       4.849  -3.516   0.000  0.00  0.00    +0.001 A 
ATOM     12  C   UNL     1       5.563  -3.928   0.000  0.00  0.00    +0.000 A 
ATOM     13  C   UNL     1       5.563  -4.753   0.000  0.00  0.00    +0.001 A 
ATOM     14  C   UNL     1       4.849  -5.166   0.000  0.00  0.00    +0.017 A 
ENDBRANCH   8   9
ENDBRANCH   4   5
ENDBRANCH   3   4
BRANCH  17  18
ATOM     18  N   UNL     1      -1.564  -5.357   0.000  0.00  0.00    -0.209 NA
BRANCH  18  19
ATOM     19  C   UNL     1      -2.049  -6.024   0.000  0.00  0.00    +0.117 C 
BRANCH  19  20
ATOM     20  C   UNL     1      -2.870  -5.938   0.000  0.00  0.00    +0.014 A 
ATOM     21  C   UNL     1      -3.355  -6.606   0.000  0.00  0.00    +0.000 A 
ATOM     22  C   UNL     1      -4.175  -6.519   0.000  0.00  0.00    +0.020 A 
ATOM     23  C   UNL     1      -4.511  -5.766   0.000  0.00  0.00    +0.099 A 
ATOM     24  N   UNL     1      -4.026  -5.098   0.000  0.00  0.00    -0.243 NA
ATOM     25  C   UNL     1      -3.205  -5.184   0.000  0.00  0.00    +0.096 A 
ENDBRANCH  19  20
ENDBRANCH  18  19
ENDBRANCH  17  18
TORSDOF 6
