REMARK  Name = 
REMARK  7 active torsions:
REMARK  status: ('A' for Active; 'I' for Inactive)
REMARK    1  A    between atoms: C_2  and  C_4
REMARK    2  A    between atoms: C_4  and  O_5
REMARK    3  A    between atoms: O_5  and  C_6
REMARK    4  A    between atoms: C_6  and  C_7
REMARK    5  A    between atoms: N_16  and  C_27
REMARK    6  A    between atoms: N_19  and  C_20
REMARK    7  A    between atoms: C_20  and  C_21
REMARK                            x       y       z     vdW  Elec       q    Type
REMARK                         _______ _______ _______ _____ _____    ______ ____
ROOT
ATOM      7  C   UNL     1      -1.280  -1.264   0.000  0.00  0.00    +0.256 C 
ATOM      8  O   UNL     1      -1.280  -0.439   0.000  0.00  0.00    -0.272 OA
ATOM      9  N   UNL     1      -0.566  -1.676   0.000  0.00  0.00    -0.270 N 
ATOM     10  C   UNL     1      -0.479  -2.497   0.000  0.00  0.00    +0.096 C 
ATOM     11  C   UNL     1       0.328  -2.668   0.000  0.00  0.00    +0.044 C 
ATOM     12  C   UNL     1       0.740  -1.954   0.000  0.00  0.00    +0.106 C 
ATOM     13  C   UNL     1       0.188  -1.341   0.000  0.00  0.00    +0.171 C 
ATOM     14  C   UNL     1       0.443  -0.556   0.000  0.00  0.00    +0.256 C 
ATOM     15  O   UNL     1      -0.109   0.057   0.000  0.00  0.00    -0.272 OA
ATOM     16  N   UNL     1       1.250  -0.384   0.000  0.00  0.00    -0.191 N 
ATOM     17  C   UNL     1       1.802  -0.998   0.000  0.00  0.00    +0.317 C 
ATOM     18  O   UNL     1       2.609  -0.826   0.000  0.00  0.00    -0.252 OA
ATOM     19  N   UNL     1       1.547  -1.782   0.000  0.00  0.00    -0.259 N 
ENDROOT
BRANCH  16  27
ATOM     27  C   UNL     1       1.505   0.400   0.000  0.00  0.00    +0.063 A 
ATOM     28  C   UNL     1       0.953   1.013   0.000  0.00  0.00    +0.029 A 
ATOM     29  C   UNL     1       1.208   1.798   0.000  0.00  0.00    +0.086 A 
ATOM     30 CL   UNL     1       0.656   2.411   0.000  0.00  0.00    -0.080 Cl
ATOM     31  C   UNL     1       2.015   1.969   0.000  0.00  0.00    +0.151 A 
ATOM     32  F   UNL     1       2.270   2.754   0.000  0.00  0.00    -0.203 F 
ATOM     33  C   UNL     1       2.567   1.356   0.000  0.00  0.00    +0.032 A 
ATOM     34  C   UNL     1       2.312   0.572   0.000  0.00  0.00    +0.018 A 
ENDBRANCH  16  27
BRANCH   7   6
ATOM      6  C   UNL     1      -1.995  -1.676   0.000  0.00  0.00    +0.228 C 
BRANCH   6   5
ATOM      5  O   UNL     1      -2.709  -1.264   0.000  0.00  0.00    -0.333 OA
BRANCH   5   4
ATOM      4  C   UNL     1      -3.424  -1.676   0.000  0.00  0.00    +0.257 C 
BRANCH   4   2
ATOM      1  O   UNL     1      -4.853  -1.676   0.000  0.00  0.00    -0.243 OA
ATOM      2  C   UNL     1      -4.138  -1.264   0.000  0.00  0.00    +0.394 C 
ATOM      3  O   UNL     1      -4.138  -0.439   0.000  0.00  0.00    -0.243 OA
ENDBRANCH   4   2
ENDBRANCH   5   4
ENDBRANCH   6   5
ENDBRANCH   7   6
BRANCH  19  20
ATOM     20  C   UNL     1       2.099  -2.395   0.000  0.00  0.00    +0.122 C 
BRANCH  20  21
ATOM     21  C   UNL     1       2.906  -2.224   0.000  0.00  0.00    -0.002 A 
ATOM     22  C   UNL     1       3.161  -1.439   0.000  0.00  0.00    -0.003 A 
ATOM     23  C   UNL     1       3.968  -1.268   0.000  0.00  0.00    -0.000 A 
ATOM     24  C   UNL     1       4.520  -1.881   0.000  0.00  0.00    -0.000 A 
ATOM     25  C   UNL     1       4.265  -2.665   0.000  0.00  0.00    -0.000 A 
ATOM     26  C   UNL     1       3.458  -2.837   0.000  0.00  0.00    -0.003 A 
ENDBRANCH  20  21
ENDBRANCH  19  20
TORSDOF 7
