MODEL 1
REMARK VINA RESULT:      -8.9      0.000      0.000
REMARK  Name = 
REMARK  7 active torsions:
REMARK  status: ('A' for Active; 'I' for Inactive)
REMARK    1  A    between atoms: O_2  and  C_3
REMARK    2  A    between atoms: C_6  and  N_7
REMARK    3  A    between atoms: C_8  and  O_10
REMARK    4  A    between atoms: O_10  and  C_11
REMARK    5  A    between atoms: C_15  and  N_19
REMARK    6  A    between atoms: N_22  and  C_23
REMARK    7  A    between atoms: C_26  and  C_29
REMARK                            x       y       z     vdW  Elec       q    Type
REMARK                         _______ _______ _______ _____ _____    ______ ____
ROOT
ATOM     11  C   UNL     1      -1.460   0.536  24.209  0.00  0.00    +0.229 C 
ATOM     12  C   UNL     1      -1.378   1.246  23.799  0.00  0.00    +0.188 C 
ATOM     13  O   UNL     1      -0.694   1.197  23.340  0.00  0.00    -0.348 OA
ATOM     14  C   UNL     1      -0.354   0.457  23.467  0.00  0.00    +0.168 C 
ATOM     15  C   UNL     1       0.279  -0.031  23.262  0.00  0.00    +0.156 C 
ATOM     16  C   UNL     1       0.196  -0.742  23.672  0.00  0.00    +0.166 C 
ATOM     17  O   UNL     1      -0.487  -0.693  24.131  0.00  0.00    -0.348 OA
ATOM     18  C   UNL     1      -0.828   0.048  24.004  0.00  0.00    +0.186 C 
ENDROOT
BRANCH  15  19
ATOM     19  N   UNL     1       0.887   0.159  22.738  0.00  0.00    -0.184 NA
ATOM     20  C   UNL     1       1.674   0.111  22.984  0.00  0.00    +0.344 C 
ATOM     21  O   UNL     1       1.851  -0.125  23.754  0.00  0.00    -0.249 OA
ATOM     22  N   UNL     1       2.282   0.301  22.461  0.00  0.00    -0.161 NA
BRANCH  22  23
ATOM     23  C   UNL     1       3.068   0.254  22.707  0.00  0.00    +0.075 A 
ATOM     24  C   UNL     1       3.405  -0.480  22.874  0.00  0.00    +0.017 A 
ATOM     25  C   UNL     1       4.190  -0.527  23.120  0.00  0.00    +0.004 A 
ATOM     26  C   UNL     1       4.640   0.161  23.199  0.00  0.00    +0.035 A 
ATOM     27  C   UNL     1       4.303   0.895  23.031  0.00  0.00    +0.004 A 
ATOM     28  C   UNL     1       3.517   0.941  22.785  0.00  0.00    +0.017 A 
BRANCH  26  29
ATOM     29  C   UNL     1       5.426   0.114  23.444  0.00  0.00    +0.173 C 
ATOM     30  C   UNL     1       5.638   0.375  24.198  0.00  0.00    +0.077 C 
ATOM     31  O   UNL     1       6.000  -0.193  22.938  0.00  0.00    -0.291 OA
ENDBRANCH  26  29
ENDBRANCH  22  23
ENDBRANCH  15  19
BRANCH  11  10
ATOM     10  O   UNL     1      -2.069   0.346  24.733  0.00  0.00    -0.432 OA
BRANCH  10   8
ATOM      7  N   UNL     1      -3.437   0.737  24.601  0.00  0.00    -0.142 NA
ATOM      8  C   UNL     1      -2.675   0.888  24.876  0.00  0.00    +0.425 C 
ATOM      9  O   UNL     1      -2.516   1.581  25.295  0.00  0.00    -0.224 OA
BRANCH   7   6
ATOM      3  C   UNL     1      -5.253   2.363  25.030  0.00  0.00    +0.139 A 
ATOM      4  C   UNL     1      -4.669   2.534  24.472  0.00  0.00    +0.038 A 
ATOM      5  C   UNL     1      -4.064   1.991  24.330  0.00  0.00    +0.020 A 
ATOM      6  C   UNL     1      -4.043   1.278  24.744  0.00  0.00    +0.077 A 
ATOM     32  C   UNL     1      -4.626   1.108  25.301  0.00  0.00    +0.020 A 
ATOM     33  C   UNL     1      -5.232   1.650  25.444  0.00  0.00    +0.038 A 
BRANCH   3   2
ATOM      1  C   UNL     1      -5.686   3.633  25.521  0.00  0.00    +0.252 C 
ATOM      2  O   UNL     1      -5.858   2.905  25.172  0.00  0.00    -0.471 OA
ENDBRANCH   3   2
ENDBRANCH   7   6
ENDBRANCH  10   8
ENDBRANCH  11  10
TORSDOF 7
ENDMDL
MODEL 2
REMARK VINA RESULT:      -8.6      0.716      7.688
REMARK  Name = 
REMARK  7 active torsions:
REMARK  status: ('A' for Active; 'I' for Inactive)
REMARK    1  A    between atoms: O_2  and  C_3
REMARK    2  A    between atoms: C_6  and  N_7
REMARK    3  A    between atoms: C_8  and  O_10
REMARK    4  A    between atoms: O_10  and  C_11
REMARK    5  A    between atoms: C_15  and  N_19
REMARK    6  A    between atoms: N_22  and  C_23
REMARK    7  A    between atoms: C_26  and  C_29
REMARK                            x       y       z     vdW  Elec       q    Type
REMARK                         _______ _______ _______ _____ _____    ______ ____
ROOT
ATOM     11  C   UNL     1       0.548   0.098  23.243  0.00  0.00    +0.229 C 
ATOM     12  C   UNL     1       0.551  -0.555  23.747  0.00  0.00    +0.188 C 
ATOM     13  O   UNL     1      -0.136  -0.528  24.202  0.00  0.00    -0.348 OA
ATOM     14  C   UNL     1      -0.564   0.140  23.980  0.00  0.00    +0.168 C 
ATOM     15  C   UNL     1      -1.253   0.571  24.124  0.00  0.00    +0.156 C 
ATOM     16  C   UNL     1      -1.256   1.224  23.620  0.00  0.00    +0.166 C 
ATOM     17  O   UNL     1      -0.569   1.197  23.164  0.00  0.00    -0.348 OA
ATOM     18  C   UNL     1      -0.141   0.528  23.387  0.00  0.00    +0.186 C 
ENDROOT
BRANCH  15  19
ATOM     19  N   UNL     1      -1.836   0.382  24.675  0.00  0.00    -0.184 NA
ATOM     20  C   UNL     1      -2.566   0.766  24.654  0.00  0.00    +0.344 C 
ATOM     21  O   UNL     1      -2.712   1.341  24.080  0.00  0.00    -0.249 OA
ATOM     22  N   UNL     1      -3.149   0.577  25.204  0.00  0.00    -0.161 NA
BRANCH  22  23
ATOM     23  C   UNL     1      -3.879   0.962  25.183  0.00  0.00    +0.075 A 
ATOM     24  C   UNL     1      -4.562   0.541  24.993  0.00  0.00    +0.017 A 
ATOM     25  C   UNL     1      -5.291   0.925  24.971  0.00  0.00    +0.004 A 
ATOM     26  C   UNL     1      -5.337   1.732  25.139  0.00  0.00    +0.035 A 
ATOM     27  C   UNL     1      -4.654   2.154  25.328  0.00  0.00    +0.004 A 
ATOM     28  C   UNL     1      -3.925   1.768  25.350  0.00  0.00    +0.017 A 
BRANCH  26  29
ATOM     29  C   UNL     1      -6.066   2.117  25.117  0.00  0.00    +0.173 C 
ATOM     30  C   UNL     1      -6.209   2.757  25.619  0.00  0.00    +0.077 C 
ATOM     31  O   UNL     1      -6.652   1.864  24.594  0.00  0.00    -0.291 OA
ENDBRANCH  26  29
ENDBRANCH  22  23
ENDBRANCH  15  19
BRANCH  11  10
ATOM     10  O   UNL     1       1.132   0.288  22.691  0.00  0.00    -0.432 OA
BRANCH  10   8
ATOM      7  N   UNL     1       2.522   0.015  22.508  0.00  0.00    -0.142 NA
ATOM      8  C   UNL     1       1.916   0.376  22.934  0.00  0.00    +0.425 C 
ATOM      9  O   UNL     1       2.092   0.827  23.602  0.00  0.00    -0.224 OA
BRANCH   7   6
ATOM      3  C   UNL     1       4.874   0.282  23.234  0.00  0.00    +0.139 A 
ATOM      4  C   UNL     1       4.497   0.890  22.822  0.00  0.00    +0.038 A 
ATOM      5  C   UNL     1       3.714   0.800  22.580  0.00  0.00    +0.020 A 
ATOM      6  C   UNL     1       3.306   0.104  22.750  0.00  0.00    +0.077 A 
ATOM     32  C   UNL     1       3.682  -0.504  23.162  0.00  0.00    +0.020 A 
ATOM     33  C   UNL     1       4.466  -0.415  23.404  0.00  0.00    +0.038 A 
BRANCH   3   2
ATOM      1  C   UNL     1       5.901   0.070  24.205  0.00  0.00    +0.252 C 
ATOM      2  O   UNL     1       5.657   0.371  23.476  0.00  0.00    -0.471 OA
ENDBRANCH   3   2
ENDBRANCH   7   6
ENDBRANCH  10   8
ENDBRANCH  11  10
TORSDOF 7
ENDMDL
MODEL 3
REMARK VINA RESULT:      -7.3     16.502     18.397
REMARK  Name = 
REMARK  7 active torsions:
REMARK  status: ('A' for Active; 'I' for Inactive)
REMARK    1  A    between atoms: O_2  and  C_3
REMARK    2  A    between atoms: C_6  and  N_7
REMARK    3  A    between atoms: C_8  and  O_10
REMARK    4  A    between atoms: O_10  and  C_11
REMARK    5  A    between atoms: C_15  and  N_19
REMARK    6  A    between atoms: N_22  and  C_23
REMARK    7  A    between atoms: C_26  and  C_29
REMARK                            x       y       z     vdW  Elec       q    Type
REMARK                         _______ _______ _______ _____ _____    ______ ____
ROOT
ATOM     11  C   UNL     1      17.042  -5.508  25.790  0.00  0.00    +0.229 C 
ATOM     12  C   UNL     1      17.405  -5.055  26.376  0.00  0.00    +0.188 C 
ATOM     13  O   UNL     1      17.199  -5.373  27.108  0.00  0.00    -0.348 OA
ATOM     14  C   UNL     1      16.709  -6.022  26.976  0.00  0.00    +0.168 C 
ATOM     15  C   UNL     1      16.277  -6.621  27.346  0.00  0.00    +0.156 C 
ATOM     16  C   UNL     1      15.914  -7.074  26.760  0.00  0.00    +0.166 C 
ATOM     17  O   UNL     1      16.121  -6.756  26.028  0.00  0.00    -0.348 OA
ATOM     18  C   UNL     1      16.612  -6.106  26.161  0.00  0.00    +0.186 C 
ENDROOT
BRANCH  15  19
ATOM     19  N   UNL     1      16.219  -6.744  28.160  0.00  0.00    -0.184 NA
ATOM     20  C   UNL     1      15.479  -6.759  28.523  0.00  0.00    +0.344 C 
ATOM     21  O   UNL     1      14.796  -6.650  28.073  0.00  0.00    -0.249 OA
ATOM     22  N   UNL     1      15.421  -6.882  29.337  0.00  0.00    -0.161 NA
BRANCH  22  23
ATOM     23  C   UNL     1      14.681  -6.897  29.700  0.00  0.00    +0.075 A 
ATOM     24  C   UNL     1      14.313  -7.617  29.859  0.00  0.00    +0.017 A 
ATOM     25  C   UNL     1      13.574  -7.632  30.223  0.00  0.00    +0.004 A 
ATOM     26  C   UNL     1      13.200  -6.925  30.428  0.00  0.00    +0.035 A 
ATOM     27  C   UNL     1      13.568  -6.204  30.269  0.00  0.00    +0.004 A 
ATOM     28  C   UNL     1      14.308  -6.190  29.905  0.00  0.00    +0.017 A 
BRANCH  26  29
ATOM     29  C   UNL     1      12.461  -6.939  30.791  0.00  0.00    +0.173 C 
ATOM     30  C   UNL     1      12.382  -7.243  31.555  0.00  0.00    +0.077 C 
ATOM     31  O   UNL     1      11.798  -6.650  30.393  0.00  0.00    -0.291 OA
ENDBRANCH  26  29
ENDBRANCH  22  23
ENDBRANCH  15  19
BRANCH  11  10
ATOM     10  O   UNL     1      17.100  -5.385  24.976  0.00  0.00    -0.432 OA
BRANCH  10   8
ATOM      7  N   UNL     1      16.826  -4.517  23.875  0.00  0.00    -0.142 NA
ATOM      8  C   UNL     1      17.025  -4.624  24.668  0.00  0.00    +0.425 C 
ATOM      9  O   UNL     1      17.149  -3.968  25.154  0.00  0.00    -0.224 OA
BRANCH   7   6
ATOM      3  C   UNL     1      16.601  -2.233  22.948  0.00  0.00    +0.139 A 
ATOM      4  C   UNL     1      17.289  -2.669  22.810  0.00  0.00    +0.038 A 
ATOM      5  C   UNL     1      17.363  -3.430  23.119  0.00  0.00    +0.020 A 
ATOM      6  C   UNL     1      16.751  -3.756  23.566  0.00  0.00    +0.077 A 
ATOM     32  C   UNL     1      16.065  -3.320  23.704  0.00  0.00    +0.020 A 
ATOM     33  C   UNL     1      15.989  -2.559  23.395  0.00  0.00    +0.038 A 
BRANCH   3   2
ATOM      1  C   UNL     1      17.192  -0.986  22.575  0.00  0.00    +0.252 C 
ATOM      2  O   UNL     1      16.527  -1.472  22.639  0.00  0.00    -0.471 OA
ENDBRANCH   3   2
ENDBRANCH   7   6
ENDBRANCH  10   8
ENDBRANCH  11  10
TORSDOF 7
ENDMDL
MODEL 4
REMARK VINA RESULT:      -6.5     16.531     17.864
REMARK  Name = 
REMARK  7 active torsions:
REMARK  status: ('A' for Active; 'I' for Inactive)
REMARK    1  A    between atoms: O_2  and  C_3
REMARK    2  A    between atoms: C_6  and  N_7
REMARK    3  A    between atoms: C_8  and  O_10
REMARK    4  A    between atoms: O_10  and  C_11
REMARK    5  A    between atoms: C_15  and  N_19
REMARK    6  A    between atoms: N_22  and  C_23
REMARK    7  A    between atoms: C_26  and  C_29
REMARK                            x       y       z     vdW  Elec       q    Type
REMARK                         _______ _______ _______ _____ _____    ______ ____
ROOT
ATOM     11  C   UNL     1      16.322  -6.616  28.170  0.00  0.00    +0.229 C 
ATOM     12  C   UNL     1      16.777  -6.021  28.516  0.00  0.00    +0.188 C 
ATOM     13  O   UNL     1      17.110  -5.571  27.910  0.00  0.00    -0.348 OA
ATOM     14  C   UNL     1      16.862  -5.887  27.191  0.00  0.00    +0.168 C 
ATOM     15  C   UNL     1      16.915  -5.806  26.371  0.00  0.00    +0.156 C 
ATOM     16  C   UNL     1      16.460  -6.400  26.025  0.00  0.00    +0.166 C 
ATOM     17  O   UNL     1      16.127  -6.850  26.631  0.00  0.00    -0.348 OA
ATOM     18  C   UNL     1      16.375  -6.533  27.351  0.00  0.00    +0.186 C 
ENDROOT
BRANCH  15  19
ATOM     19  N   UNL     1      17.347  -5.229  25.969  0.00  0.00    -0.184 NA
ATOM     20  C   UNL     1      16.974  -4.749  25.410  0.00  0.00    +0.344 C 
ATOM     21  O   UNL     1      16.170  -4.846  25.254  0.00  0.00    -0.249 OA
ATOM     22  N   UNL     1      17.405  -4.173  25.008  0.00  0.00    -0.161 NA
BRANCH  22  23
ATOM     23  C   UNL     1      17.033  -3.693  24.449  0.00  0.00    +0.075 A 
ATOM     24  C   UNL     1      16.785  -2.935  24.657  0.00  0.00    +0.017 A 
ATOM     25  C   UNL     1      16.413  -2.455  24.099  0.00  0.00    +0.004 A 
ATOM     26  C   UNL     1      16.288  -2.734  23.332  0.00  0.00    +0.035 A 
ATOM     27  C   UNL     1      16.537  -3.493  23.124  0.00  0.00    +0.004 A 
ATOM     28  C   UNL     1      16.909  -3.972  23.683  0.00  0.00    +0.017 A 
BRANCH  26  29
ATOM     29  C   UNL     1      15.917  -2.255  22.774  0.00  0.00    +0.173 C 
ATOM     30  C   UNL     1      15.245  -2.528  22.379  0.00  0.00    +0.077 C 
ATOM     31  O   UNL     1      16.215  -1.504  22.609  0.00  0.00    -0.291 OA
ENDBRANCH  26  29
ENDBRANCH  22  23
ENDBRANCH  15  19
BRANCH  11  10
ATOM     10  O   UNL     1      15.890  -7.192  28.572  0.00  0.00    -0.432 OA
BRANCH  10   8
ATOM      7  N   UNL     1      14.732  -7.450  29.369  0.00  0.00    -0.142 NA
ATOM      8  C   UNL     1      15.380  -6.975  29.183  0.00  0.00    +0.425 C 
ATOM      9  O   UNL     1      15.519  -6.280  29.608  0.00  0.00    -0.224 OA
BRANCH   7   6
ATOM      3  C   UNL     1      13.201  -6.796  31.201  0.00  0.00    +0.139 A 
ATOM      4  C   UNL     1      13.099  -6.480  30.445  0.00  0.00    +0.038 A 
ATOM      5  C   UNL     1      13.610  -6.698  29.835  0.00  0.00    +0.020 A 
ATOM      6  C   UNL     1      14.222  -7.232  29.980  0.00  0.00    +0.077 A 
ATOM     32  C   UNL     1      14.323  -7.547  30.735  0.00  0.00    +0.020 A 
ATOM     33  C   UNL     1      13.813  -7.330  31.346  0.00  0.00    +0.038 A 
BRANCH   3   2
ATOM      1  C   UNL     1      12.621  -5.784  32.026  0.00  0.00    +0.252 C 
ATOM      2  O   UNL     1      12.690  -6.578  31.811  0.00  0.00    -0.471 OA
ENDBRANCH   3   2
ENDBRANCH   7   6
ENDBRANCH  10   8
ENDBRANCH  11  10
TORSDOF 7
ENDMDL
MODEL 5
REMARK VINA RESULT:      -5.5     17.096     19.080
REMARK  Name = 
REMARK  7 active torsions:
REMARK  status: ('A' for Active; 'I' for Inactive)
REMARK    1  A    between atoms: O_2  and  C_3
REMARK    2  A    between atoms: C_6  and  N_7
REMARK    3  A    between atoms: C_8  and  O_10
REMARK    4  A    between atoms: O_10  and  C_11
REMARK    5  A    between atoms: C_15  and  N_19
REMARK    6  A    between atoms: N_22  and  C_23
REMARK    7  A    between atoms: C_26  and  C_29
REMARK                            x       y       z     vdW  Elec       q    Type
REMARK                         _______ _______ _______ _____ _____    ______ ____
ROOT
ATOM     11  C   UNL     1      17.007  -5.896  25.929  0.00  0.00    +0.229 C 
ATOM     12  C   UNL     1      16.823  -6.480  25.377  0.00  0.00    +0.188 C 
ATOM     13  O   UNL     1      16.428  -7.087  25.771  0.00  0.00    -0.348 OA
ATOM     14  C   UNL     1      16.367  -6.878  26.566  0.00  0.00    +0.168 C 
ATOM     15  C   UNL     1      16.085  -7.123  27.302  0.00  0.00    +0.156 C 
ATOM     16  C   UNL     1      16.269  -6.538  27.854  0.00  0.00    +0.166 C 
ATOM     17  O   UNL     1      16.665  -5.932  27.460  0.00  0.00    -0.348 OA
ATOM     18  C   UNL     1      16.725  -6.141  26.664  0.00  0.00    +0.186 C 
ENDROOT
BRANCH  15  19
ATOM     19  N   UNL     1      15.688  -7.829  27.458  0.00  0.00    -0.184 NA
ATOM     20  C   UNL     1      15.677  -8.136  28.224  0.00  0.00    +0.344 C 
ATOM     21  O   UNL     1      16.063  -7.737  28.833  0.00  0.00    -0.249 OA
ATOM     22  N   UNL     1      15.281  -8.842  28.380  0.00  0.00    -0.161 NA
BRANCH  22  23
ATOM     23  C   UNL     1      15.270  -9.149  29.145  0.00  0.00    +0.075 A 
ATOM     24  C   UNL     1      14.664  -8.942  29.665  0.00  0.00    +0.017 A 
ATOM     25  C   UNL     1      14.653  -9.248  30.430  0.00  0.00    +0.004 A 
ATOM     26  C   UNL     1      15.248  -9.764  30.677  0.00  0.00    +0.035 A 
ATOM     27  C   UNL     1      15.855  -9.972  30.157  0.00  0.00    +0.004 A 
ATOM     28  C   UNL     1      15.865  -9.664  29.391  0.00  0.00    +0.017 A 
BRANCH  26  29
ATOM     29  C   UNL     1      15.238 -10.071  31.441  0.00  0.00    +0.173 C 
ATOM     30  C   UNL     1      15.625  -9.672  32.051  0.00  0.00    +0.077 C 
ATOM     31  O   UNL     1      14.841 -10.777  31.598  0.00  0.00    -0.291 OA
ENDBRANCH  26  29
ENDBRANCH  22  23
ENDBRANCH  15  19
BRANCH  11  10
ATOM     10  O   UNL     1      17.404  -5.189  25.773  0.00  0.00    -0.432 OA
BRANCH  10   8
ATOM      7  N   UNL     1      17.048  -3.919  25.222  0.00  0.00    -0.142 NA
ATOM      8  C   UNL     1      17.185  -4.727  25.126  0.00  0.00    +0.425 C 
ATOM      9  O   UNL     1      17.103  -5.073  24.381  0.00  0.00    -0.224 OA
BRANCH   7   6
ATOM      3  C   UNL     1      16.390  -2.532  23.281  0.00  0.00    +0.139 A 
ATOM      4  C   UNL     1      15.816  -2.800  23.810  0.00  0.00    +0.038 A 
ATOM      5  C   UNL     1      16.036  -3.263  24.457  0.00  0.00    +0.020 A 
ATOM      6  C   UNL     1      16.829  -3.457  24.575  0.00  0.00    +0.077 A 
ATOM     32  C   UNL     1      17.402  -3.189  24.046  0.00  0.00    +0.020 A 
ATOM     33  C   UNL     1      17.183  -2.727  23.399  0.00  0.00    +0.038 A 
BRANCH   3   2
ATOM      1  C   UNL     1      16.397  -1.277  22.597  0.00  0.00    +0.252 C 
ATOM      2  O   UNL     1      16.170  -2.070  22.634  0.00  0.00    -0.471 OA
ENDBRANCH   3   2
ENDBRANCH   7   6
ENDBRANCH  10   8
ENDBRANCH  11  10
TORSDOF 7
ENDMDL
