REMARK  Name = 
REMARK  8 active torsions:
REMARK  status: ('A' for Active; 'I' for Inactive)
REMARK    1  A    between atoms: O_2  and  C_3
REMARK    2  A    between atoms: C_6  and  C_9
REMARK    3  A    between atoms: C_11  and  C_12
REMARK    4  A    between atoms: C_12  and  C_13
REMARK    5  A    between atoms: C_18  and  C_19
REMARK    6  A    between atoms: C_19  and  C_20
REMARK    7  A    between atoms: C_25  and  C_26
REMARK    8  A    between atoms: C_26  and  C_27
REMARK                            x       y       z     vdW  Elec       q    Type
REMARK                         _______ _______ _______ _____ _____    ______ ____
ROOT
ATOM     13  C   UNL     1      -0.425  -8.038   0.000  0.00  0.00    +0.024 C 
ATOM     14  C   UNL     1      -0.090  -7.285   0.000  0.00  0.00    +0.089 C 
ATOM     15  N   UNL     1       0.731  -7.198   0.000  0.00  0.00    -0.218 NA
ATOM     16  C   UNL     1       1.216  -7.866   0.000  0.00  0.00    +0.089 C 
ATOM     17  C   UNL     1       0.880  -8.620   0.000  0.00  0.00    +0.019 C 
ATOM     18  C   UNL     1       0.059  -8.706   0.000  0.00  0.00    +0.012 C 
ENDROOT
BRANCH  13  12
ATOM     12  C   UNL     1      -1.246  -8.124   0.000  0.00  0.00    +0.051 C 
BRANCH  12  11
ATOM      9  C   UNL     1      -2.143  -6.188   0.000  0.00  0.00    +0.177 A 
ATOM     10  C   UNL     1      -1.476  -6.672   0.000  0.00  0.00    +0.058 A 
ATOM     11  C   UNL     1      -1.731  -7.457   0.000  0.00  0.00    +0.101 A 
ATOM     35  N   UNL     1      -2.556  -7.457   0.000  0.00  0.00    -0.081 NA
ATOM     36  O   UNL     1      -2.811  -6.672   0.000  0.00  0.00    -0.354 OA
BRANCH   9   6
ATOM      3  C   UNL     1      -2.143  -3.712   0.000  0.00  0.00    +0.139 A 
ATOM      4  C   UNL     1      -1.429  -4.125   0.000  0.00  0.00    +0.037 A 
ATOM      5  C   UNL     1      -1.429  -4.950   0.000  0.00  0.00    +0.006 A 
ATOM      6  C   UNL     1      -2.143  -5.362   0.000  0.00  0.00    +0.037 A 
ATOM      7  C   UNL     1      -2.858  -4.950   0.000  0.00  0.00    +0.006 A 
ATOM      8  C   UNL     1      -2.858  -4.125   0.000  0.00  0.00    +0.037 A 
BRANCH   3   2
ATOM      1  C   UNL     1      -2.858  -2.475   0.000  0.00  0.00    +0.252 C 
ATOM      2  O   UNL     1      -2.143  -2.888   0.000  0.00  0.00    -0.471 OA
ENDBRANCH   3   2
ENDBRANCH   9   6
ENDBRANCH  12  11
ENDBRANCH  13  12
BRANCH  18  19
ATOM     19  C   UNL     1      -0.276  -9.459   0.000  0.00  0.00    +0.085 C 
BRANCH  19  20
ATOM     20  C   UNL     1       0.209 -10.127   0.000  0.00  0.00    +0.226 C 
ATOM     21  O   UNL     1       1.029 -10.041   0.000  0.00  0.00    -0.275 OA
ATOM     22  N   UNL     1      -0.127 -10.880   0.000  0.00  0.00    -0.280 N 
ATOM     23  C   UNL     1       0.358 -11.548   0.000  0.00  0.00    +0.093 C 
ATOM     24  C   UNL     1       0.023 -12.302   0.000  0.00  0.00    +0.022 C 
ATOM     25  C   UNL     1      -0.798 -12.388   0.000  0.00  0.00    +0.008 C 
ATOM     33  C   UNL     1      -1.283 -11.720   0.000  0.00  0.00    +0.022 C 
ATOM     34  C   UNL     1      -0.947 -10.967   0.000  0.00  0.00    +0.093 C 
BRANCH  25  26
ATOM     26  C   UNL     1      -1.133 -13.142   0.000  0.00  0.00    +0.026 C 
BRANCH  26  27
ATOM     27  C   UNL     1      -0.648 -13.809   0.000  0.00  0.00    -0.022 A 
ATOM     28  C   UNL     1       0.172 -13.723   0.000  0.00  0.00    -0.004 A 
ATOM     29  C   UNL     1       0.657 -14.390   0.000  0.00  0.00    -0.000 A 
ATOM     30  C   UNL     1       0.321 -15.144   0.000  0.00  0.00    -0.000 A 
ATOM     31  C   UNL     1      -0.499 -15.230   0.000  0.00  0.00    -0.000 A 
ATOM     32  C   UNL     1      -0.984 -14.563   0.000  0.00  0.00    -0.004 A 
ENDBRANCH  26  27
ENDBRANCH  25  26
ENDBRANCH  19  20
ENDBRANCH  18  19
TORSDOF 8
