MODEL 1
REMARK VINA RESULT:     -12.1      0.000      0.000
REMARK  Name = 
REMARK  6 active torsions:
REMARK  status: ('A' for Active; 'I' for Inactive)
REMARK    1  A    between atoms: O_2  and  C_3
REMARK    2  A    between atoms: C_6  and  C_7
REMARK    3  A    between atoms: C_7  and  N_8
REMARK    4  A    between atoms: N_8  and  C_9
REMARK    5  A    between atoms: C_15  and  C_16
REMARK    6  A    between atoms: C_19  and  C_22
REMARK                            x       y       z     vdW  Elec       q    Type
REMARK                         _______ _______ _______ _____ _____    ______ ____
ROOT
ATOM      9  C   UNL     1      -4.017   1.421  24.797  0.00  0.00    +0.110 C 
ATOM     10  C   UNL     1      -4.500   2.076  24.923  0.00  0.00    +0.198 C 
ATOM     11  O   UNL     1      -4.263   2.866  24.901  0.00  0.00    -0.219 OA
ATOM     12  C   UNL     1      -5.264   1.804  25.077  0.00  0.00    +0.184 C 
ATOM     13  O   UNL     1      -5.924   2.274  25.234  0.00  0.00    -0.220 OA
ATOM     14  C   UNL     1      -5.252   0.980  25.045  0.00  0.00    +0.041 C 
ATOM     15  C   UNL     1      -4.481   0.742  24.872  0.00  0.00    +0.044 C 
ENDROOT
BRANCH  15  16
ATOM     16  C   UNL     1      -4.221  -0.036  24.789  0.00  0.00    -0.021 A 
ATOM     17  C   UNL     1      -3.968  -0.460  25.449  0.00  0.00    -0.004 A 
ATOM     18  C   UNL     1      -3.708  -1.238  25.366  0.00  0.00    +0.004 A 
ATOM     19  C   UNL     1      -3.702  -1.593  24.621  0.00  0.00    +0.071 A 
ATOM     20  C   UNL     1      -3.955  -1.170  23.960  0.00  0.00    +0.004 A 
ATOM     21  C   UNL     1      -4.215  -0.391  24.043  0.00  0.00    -0.004 A 
BRANCH  19  22
ATOM     22  C   UNL     1      -3.443  -2.371  24.537  0.00  0.00    +0.419 C 
ATOM     23  F   UNL     1      -3.183  -3.150  24.453  0.00  0.00    -0.166 F 
ATOM     24  F   UNL     1      -2.676  -2.138  24.733  0.00  0.00    -0.166 F 
ATOM     25  F   UNL     1      -4.208  -2.605  24.341  0.00  0.00    -0.166 F 
ENDBRANCH  19  22
ENDBRANCH  15  16
BRANCH   9   8
ATOM      8  N   UNL     1      -3.209   1.439  24.626  0.00  0.00    -0.212 NA
BRANCH   8   7
ATOM      7  C   UNL     1      -2.752   2.082  24.864  0.00  0.00    +0.115 C 
BRANCH   7   6
ATOM      3  C   UNL     1      -0.299   2.043  24.541  0.00  0.00    +0.139 A 
ATOM      4  C   UNL     1      -0.800   2.116  23.890  0.00  0.00    +0.037 A 
ATOM      5  C   UNL     1      -1.616   2.129  23.997  0.00  0.00    +0.000 A 
ATOM      6  C   UNL     1      -1.934   2.069  24.756  0.00  0.00    -0.005 A 
ATOM     26  C   UNL     1      -1.433   1.996  25.407  0.00  0.00    +0.000 A 
ATOM     27  C   UNL     1      -0.616   1.982  25.300  0.00  0.00    +0.037 A 
BRANCH   3   2
ATOM      1  C   UNL     1       0.866   1.433  23.982  0.00  0.00    +0.252 C 
ATOM      2  O   UNL     1       0.519   2.030  24.433  0.00  0.00    -0.471 OA
ENDBRANCH   3   2
ENDBRANCH   7   6
ENDBRANCH   8   7
ENDBRANCH   9   8
TORSDOF 6
ENDMDL
MODEL 2
REMARK VINA RESULT:     -11.9      2.665      4.399
REMARK  Name = 
REMARK  6 active torsions:
REMARK  status: ('A' for Active; 'I' for Inactive)
REMARK    1  A    between atoms: O_2  and  C_3
REMARK    2  A    between atoms: C_6  and  C_7
REMARK    3  A    between atoms: C_7  and  N_8
REMARK    4  A    between atoms: N_8  and  C_9
REMARK    5  A    between atoms: C_15  and  C_16
REMARK    6  A    between atoms: C_19  and  C_22
REMARK                            x       y       z     vdW  Elec       q    Type
REMARK                         _______ _______ _______ _____ _____    ______ ____
ROOT
ATOM      9  C   UNL     1      -4.604   2.516  25.261  0.00  0.00    +0.110 C 
ATOM     10  C   UNL     1      -5.415   2.606  25.372  0.00  0.00    +0.198 C 
ATOM     11  O   UNL     1      -5.984   2.012  25.303  0.00  0.00    -0.219 OA
ATOM     12  C   UNL     1      -5.561   3.395  25.563  0.00  0.00    +0.184 C 
ATOM     13  O   UNL     1      -6.299   3.729  25.720  0.00  0.00    -0.220 OA
ATOM     14  C   UNL     1      -4.838   3.793  25.571  0.00  0.00    +0.041 C 
ATOM     15  C   UNL     1      -4.246   3.249  25.384  0.00  0.00    +0.044 C 
ENDROOT
BRANCH  15  16
ATOM     16  C   UNL     1      -3.439   3.412  25.329  0.00  0.00    -0.021 A 
ATOM     17  C   UNL     1      -3.095   3.561  24.595  0.00  0.00    -0.004 A 
ATOM     18  C   UNL     1      -2.289   3.724  24.541  0.00  0.00    +0.004 A 
ATOM     19  C   UNL     1      -1.825   3.737  25.223  0.00  0.00    +0.071 A 
ATOM     20  C   UNL     1      -2.168   3.588  25.958  0.00  0.00    +0.004 A 
ATOM     21  C   UNL     1      -2.975   3.425  26.013  0.00  0.00    -0.004 A 
BRANCH  19  22
ATOM     22  C   UNL     1      -1.018   3.900  25.170  0.00  0.00    +0.419 C 
ATOM     23  F   UNL     1      -0.211   4.062  25.117  0.00  0.00    -0.166 F 
ATOM     24  F   UNL     1      -1.171   4.703  25.281  0.00  0.00    -0.166 F 
ATOM     25  F   UNL     1      -0.864   3.097  25.059  0.00  0.00    -0.166 F 
ENDBRANCH  19  22
ENDBRANCH  15  16
BRANCH   9   8
ATOM      8  N   UNL     1      -4.216   1.815  25.061  0.00  0.00    -0.212 NA
BRANCH   8   7
ATOM      7  C   UNL     1      -4.634   1.105  25.038  0.00  0.00    +0.115 C 
BRANCH   7   6
ATOM      3  C   UNL     1      -3.444  -1.018  24.587  0.00  0.00    +0.139 A 
ATOM      4  C   UNL     1      -3.631  -0.806  25.362  0.00  0.00    +0.037 A 
ATOM      5  C   UNL     1      -4.027  -0.099  25.512  0.00  0.00    +0.000 A 
ATOM      6  C   UNL     1      -4.237   0.397  24.888  0.00  0.00    -0.005 A 
ATOM     26  C   UNL     1      -4.051   0.185  24.113  0.00  0.00    +0.000 A 
ATOM     27  C   UNL     1      -3.655  -0.521  23.962  0.00  0.00    +0.037 A 
BRANCH   3   2
ATOM      1  C   UNL     1      -3.440  -2.445  24.525  0.00  0.00    +0.252 C 
ATOM      2  O   UNL     1      -3.048  -1.725  24.436  0.00  0.00    -0.471 OA
ENDBRANCH   3   2
ENDBRANCH   7   6
ENDBRANCH   8   7
ENDBRANCH   9   8
TORSDOF 6
ENDMDL
MODEL 3
REMARK VINA RESULT:     -11.3      2.559      3.717
REMARK  Name = 
REMARK  6 active torsions:
REMARK  status: ('A' for Active; 'I' for Inactive)
REMARK    1  A    between atoms: O_2  and  C_3
REMARK    2  A    between atoms: C_6  and  C_7
REMARK    3  A    between atoms: C_7  and  N_8
REMARK    4  A    between atoms: N_8  and  C_9
REMARK    5  A    between atoms: C_15  and  C_16
REMARK    6  A    between atoms: C_19  and  C_22
REMARK                            x       y       z     vdW  Elec       q    Type
REMARK                         _______ _______ _______ _____ _____    ______ ____
ROOT
ATOM      9  C   UNL     1      -1.951   3.106  25.004  0.00  0.00    +0.110 C 
ATOM     10  C   UNL     1      -1.351   3.665  25.085  0.00  0.00    +0.198 C 
ATOM     11  O   UNL     1      -0.540   3.512  25.081  0.00  0.00    -0.219 OA
ATOM     12  C   UNL     1      -1.703   4.406  25.170  0.00  0.00    +0.184 C 
ATOM     13  O   UNL     1      -1.307   5.124  25.266  0.00  0.00    -0.220 OA
ATOM     14  C   UNL     1      -2.521   4.304  25.142  0.00  0.00    +0.041 C 
ATOM     15  C   UNL     1      -2.675   3.500  25.040  0.00  0.00    +0.044 C 
ENDROOT
BRANCH  15  16
ATOM     16  C   UNL     1      -3.421   3.153  24.983  0.00  0.00    -0.021 A 
ATOM     17  C   UNL     1      -3.732   2.959  24.245  0.00  0.00    -0.004 A 
ATOM     18  C   UNL     1      -4.478   2.612  24.189  0.00  0.00    +0.004 A 
ATOM     19  C   UNL     1      -4.914   2.458  24.872  0.00  0.00    +0.071 A 
ATOM     20  C   UNL     1      -4.603   2.652  25.611  0.00  0.00    +0.004 A 
ATOM     21  C   UNL     1      -3.857   2.999  25.668  0.00  0.00    -0.004 A 
BRANCH  19  22
ATOM     22  C   UNL     1      -5.659   2.111  24.817  0.00  0.00    +0.419 C 
ATOM     23  F   UNL     1      -6.406   1.764  24.762  0.00  0.00    -0.166 F 
ATOM     24  F   UNL     1      -5.311   1.394  24.605  0.00  0.00    -0.166 F 
ATOM     25  F   UNL     1      -6.008   2.828  25.029  0.00  0.00    -0.166 F 
ENDBRANCH  19  22
ENDBRANCH  15  16
BRANCH   9   8
ATOM      8  N   UNL     1      -1.846   2.293  24.906  0.00  0.00    -0.212 NA
BRANCH   8   7
ATOM      7  C   UNL     1      -1.142   1.936  25.144  0.00  0.00    +0.115 C 
BRANCH   7   6
ATOM      3  C   UNL     1      -0.855  -0.512  24.913  0.00  0.00    +0.139 A 
ATOM      4  C   UNL     1      -0.719  -0.017  24.267  0.00  0.00    +0.037 A 
ATOM      5  C   UNL     1      -0.814   0.798  24.344  0.00  0.00    +0.000 A 
ATOM      6  C   UNL     1      -1.046   1.120  25.067  0.00  0.00    -0.005 A 
ATOM     26  C   UNL     1      -1.183   0.626  25.713  0.00  0.00    +0.000 A 
ATOM     27  C   UNL     1      -1.087  -0.189  25.636  0.00  0.00    +0.037 A 
BRANCH   3   2
ATOM      1  C   UNL     1      -1.410  -1.804  24.664  0.00  0.00    +0.252 C 
ATOM      2  O   UNL     1      -0.760  -1.327  24.836  0.00  0.00    -0.471 OA
ENDBRANCH   3   2
ENDBRANCH   7   6
ENDBRANCH   8   7
ENDBRANCH   9   8
TORSDOF 6
ENDMDL
