MODEL 1
REMARK VINA RESULT:     -11.5      0.000      0.000
REMARK  Name = 
REMARK  5 active torsions:
REMARK  status: ('A' for Active; 'I' for Inactive)
REMARK    1  A    between atoms: N_3  and  C_4
REMARK    2  A    between atoms: C_8  and  N_12
REMARK    3  A    between atoms: C_16  and  O_17
REMARK    4  A    between atoms: O_17  and  C_18
REMARK    5  A    between atoms: N_24  and  C_25
REMARK                            x       y       z     vdW  Elec       q    Type
REMARK                         _______ _______ _______ _____ _____    ______ ____
ROOT
ATOM      4  C   UNL     1      -0.489   1.273  25.149  0.00  0.00    +0.156 C 
ATOM      5  C   UNL     1      -0.375   1.152  24.341  0.00  0.00    +0.166 C 
ATOM      6  O   UNL     1      -0.542   0.361  24.176  0.00  0.00    -0.350 OA
ATOM      7  C   UNL     1      -0.760  -0.006  24.881  0.00  0.00    +0.169 C 
ATOM      8  C   UNL     1      -0.999  -0.721  25.216  0.00  0.00    +0.170 C 
ATOM      9  C   UNL     1      -1.114  -0.600  26.024  0.00  0.00    +0.169 C 
ATOM     10  O   UNL     1      -0.946   0.190  26.189  0.00  0.00    -0.350 OA
ATOM     11  C   UNL     1      -0.728   0.557  25.483  0.00  0.00    +0.167 C 
ENDROOT
BRANCH   8  12
ATOM     12  N   UNL     1      -1.105  -1.434  24.813  0.00  0.00    -0.180 N 
ATOM     13  N   UNL     1      -0.510  -1.886  24.462  0.00  0.00    -0.040 NA
ATOM     14  N   UNL     1      -0.861  -2.550  24.122  0.00  0.00    -0.020 NA
ATOM     15  N   UNL     1      -1.672  -2.509  24.263  0.00  0.00    -0.071 NA
ATOM     16  C   UNL     1      -1.823  -1.819  24.690  0.00  0.00    +0.343 A 
BRANCH  16  17
ATOM     17  O   UNL     1      -2.563  -1.561  24.948  0.00  0.00    -0.421 OA
BRANCH  17  18
ATOM     18  C   UNL     1      -3.246  -1.806  24.555  0.00  0.00    +0.149 A 
ATOM     19  C   UNL     1      -3.671  -1.272  24.094  0.00  0.00    +0.038 A 
ATOM     20  C   UNL     1      -4.354  -1.517  23.701  0.00  0.00    +0.003 A 
ATOM     21  C   UNL     1      -4.612  -2.298  23.771  0.00  0.00    +0.000 A 
ATOM     22  C   UNL     1      -4.186  -2.833  24.233  0.00  0.00    +0.003 A 
ATOM     23  C   UNL     1      -3.503  -2.587  24.625  0.00  0.00    +0.038 A 
ENDBRANCH  17  18
ENDBRANCH  16  17
ENDBRANCH   8  12
BRANCH   4   3
ATOM      1  O   UNL     1      -1.326   2.616  24.683  0.00  0.00    -0.249 OA
ATOM      2  C   UNL     1      -0.802   2.657  25.320  0.00  0.00    +0.344 C 
ATOM      3  N   UNL     1      -0.384   1.985  25.552  0.00  0.00    -0.184 NA
ATOM     24  N   UNL     1      -0.697   3.369  25.722  0.00  0.00    -0.161 NA
BRANCH  24  25
ATOM     25  C   UNL     1      -1.115   4.041  25.489  0.00  0.00    +0.075 A 
ATOM     26  C   UNL     1      -1.902   4.137  25.717  0.00  0.00    +0.017 A 
ATOM     27  C   UNL     1      -2.320   4.809  25.484  0.00  0.00    +0.001 A 
ATOM     28  C   UNL     1      -1.951   5.385  25.023  0.00  0.00    +0.000 A 
ATOM     29  C   UNL     1      -1.163   5.290  24.796  0.00  0.00    +0.001 A 
ATOM     30  C   UNL     1      -0.746   4.617  25.029  0.00  0.00    +0.017 A 
ENDBRANCH  24  25
ENDBRANCH   4   3
TORSDOF 5
ENDMDL
MODEL 2
REMARK VINA RESULT:     -10.9      0.615      5.602
REMARK  Name = 
REMARK  5 active torsions:
REMARK  status: ('A' for Active; 'I' for Inactive)
REMARK    1  A    between atoms: N_3  and  C_4
REMARK    2  A    between atoms: C_8  and  N_12
REMARK    3  A    between atoms: C_16  and  O_17
REMARK    4  A    between atoms: O_17  and  C_18
REMARK    5  A    between atoms: N_24  and  C_25
REMARK                            x       y       z     vdW  Elec       q    Type
REMARK                         _______ _______ _______ _____ _____    ______ ____
ROOT
ATOM      4  C   UNL     1      -1.040  -0.310  25.027  0.00  0.00    +0.156 C 
ATOM      5  C   UNL     1      -1.209  -0.209  25.828  0.00  0.00    +0.166 C 
ATOM      6  O   UNL     1      -0.909   0.523  26.061  0.00  0.00    -0.350 OA
ATOM      7  C   UNL     1      -0.555   0.875  25.405  0.00  0.00    +0.169 C 
ATOM      8  C   UNL     1      -0.151   1.544  25.142  0.00  0.00    +0.170 C 
ATOM      9  C   UNL     1       0.019   1.443  24.341  0.00  0.00    +0.169 C 
ATOM     10  O   UNL     1      -0.281   0.711  24.108  0.00  0.00    -0.350 OA
ATOM     11  C   UNL     1      -0.636   0.360  24.765  0.00  0.00    +0.167 C 
ENDROOT
BRANCH   8  12
ATOM     12  N   UNL     1       0.050   2.200  25.601  0.00  0.00    -0.180 N 
ATOM     13  N   UNL     1       0.623   2.221  26.194  0.00  0.00    -0.040 NA
ATOM     14  N   UNL     1       0.639   2.984  26.507  0.00  0.00    -0.020 NA
ATOM     15  N   UNL     1       0.076   3.435  26.108  0.00  0.00    -0.071 NA
ATOM     16  C   UNL     1      -0.288   2.950  25.548  0.00  0.00    +0.343 A 
BRANCH  16  17
ATOM     17  O   UNL     1      -0.887   3.177  25.026  0.00  0.00    -0.421 OA
BRANCH  17  18
ATOM     18  C   UNL     1      -1.263   3.906  25.121  0.00  0.00    +0.149 A 
ATOM     19  C   UNL     1      -0.912   4.592  24.828  0.00  0.00    +0.038 A 
ATOM     20  C   UNL     1      -1.288   5.320  24.923  0.00  0.00    +0.003 A 
ATOM     21  C   UNL     1      -2.015   5.362  25.311  0.00  0.00    +0.000 A 
ATOM     22  C   UNL     1      -2.366   4.674  25.605  0.00  0.00    +0.003 A 
ATOM     23  C   UNL     1      -1.989   3.947  25.510  0.00  0.00    +0.038 A 
ENDBRANCH  17  18
ENDBRANCH  16  17
ENDBRANCH   8  12
BRANCH   4   3
ATOM      1  O   UNL     1      -2.593  -0.866  25.017  0.00  0.00    -0.249 OA
ATOM      2  C   UNL     1      -2.017  -1.245  24.562  0.00  0.00    +0.344 C 
ATOM      3  N   UNL     1      -1.240  -0.966  24.568  0.00  0.00    -0.184 NA
ATOM     24  N   UNL     1      -2.217  -1.900  24.104  0.00  0.00    -0.161 NA
BRANCH  24  25
ATOM     25  C   UNL     1      -2.993  -2.179  24.098  0.00  0.00    +0.075 A 
ATOM     26  C   UNL     1      -3.585  -1.745  23.722  0.00  0.00    +0.017 A 
ATOM     27  C   UNL     1      -4.362  -2.024  23.717  0.00  0.00    +0.001 A 
ATOM     28  C   UNL     1      -4.546  -2.737  24.088  0.00  0.00    +0.000 A 
ATOM     29  C   UNL     1      -3.954  -3.171  24.465  0.00  0.00    +0.001 A 
ATOM     30  C   UNL     1      -3.178  -2.892  24.470  0.00  0.00    +0.017 A 
ENDBRANCH  24  25
ENDBRANCH   4   3
TORSDOF 5
ENDMDL
MODEL 3
REMARK VINA RESULT:     -10.0      2.319      6.228
REMARK  Name = 
REMARK  5 active torsions:
REMARK  status: ('A' for Active; 'I' for Inactive)
REMARK    1  A    between atoms: N_3  and  C_4
REMARK    2  A    between atoms: C_8  and  N_12
REMARK    3  A    between atoms: C_16  and  O_17
REMARK    4  A    between atoms: O_17  and  C_18
REMARK    5  A    between atoms: N_24  and  C_25
REMARK                            x       y       z     vdW  Elec       q    Type
REMARK                         _______ _______ _______ _____ _____    ______ ____
ROOT
ATOM      4  C   UNL     1      -4.191   0.762  24.572  0.00  0.00    +0.156 C 
ATOM      5  C   UNL     1      -3.861   0.895  23.829  0.00  0.00    +0.166 C 
ATOM      6  O   UNL     1      -3.784   1.710  23.727  0.00  0.00    -0.350 OA
ATOM      7  C   UNL     1      -4.067   2.080  24.407  0.00  0.00    +0.169 C 
ATOM      8  C   UNL     1      -4.196   2.812  24.765  0.00  0.00    +0.170 C 
ATOM      9  C   UNL     1      -4.526   2.679  25.509  0.00  0.00    +0.169 C 
ATOM     10  O   UNL     1      -4.603   1.864  25.610  0.00  0.00    -0.350 OA
ATOM     11  C   UNL     1      -4.319   1.494  24.929  0.00  0.00    +0.167 C 
ENDROOT
BRANCH   8  12
ATOM     12  N   UNL     1      -4.023   3.549  24.436  0.00  0.00    -0.180 N 
ATOM     13  N   UNL     1      -4.472   3.944  23.867  0.00  0.00    -0.040 NA
ATOM     14  N   UNL     1      -4.098   4.660  23.698  0.00  0.00    -0.020 NA
ATOM     15  N   UNL     1      -3.418   4.707  24.162  0.00  0.00    -0.071 NA
ATOM     16  C   UNL     1      -3.372   4.021  24.618  0.00  0.00    +0.343 A 
BRANCH  16  17
ATOM     17  O   UNL     1      -2.777   3.838  25.161  0.00  0.00    -0.421 OA
BRANCH  17  18
ATOM     18  C   UNL     1      -2.028   4.176  25.081  0.00  0.00    +0.149 A 
ATOM     19  C   UNL     1      -1.914   4.973  25.260  0.00  0.00    +0.038 A 
ATOM     20  C   UNL     1      -1.166   5.310  25.181  0.00  0.00    +0.003 A 
ATOM     21  C   UNL     1      -0.531   4.850  24.923  0.00  0.00    +0.000 A 
ATOM     22  C   UNL     1      -0.645   4.052  24.744  0.00  0.00    +0.003 A 
ATOM     23  C   UNL     1      -1.394   3.716  24.823  0.00  0.00    +0.038 A 
ENDBRANCH  17  18
ENDBRANCH  16  17
ENDBRANCH   8  12
BRANCH   4   3
ATOM      1  O   UNL     1      -3.302  -0.561  24.145  0.00  0.00    -0.249 OA
ATOM      2  C   UNL     1      -3.919  -0.637  24.688  0.00  0.00    +0.344 C 
ATOM      3  N   UNL     1      -4.364   0.025  24.901  0.00  0.00    -0.184 NA
ATOM     24  N   UNL     1      -4.091  -1.373  25.016  0.00  0.00    -0.161 NA
BRANCH  24  25
ATOM     25  C   UNL     1      -3.647  -2.035  24.802  0.00  0.00    +0.075 A 
ATOM     26  C   UNL     1      -2.899  -2.153  25.129  0.00  0.00    +0.017 A 
ATOM     27  C   UNL     1      -2.455  -2.815  24.916  0.00  0.00    +0.001 A 
ATOM     28  C   UNL     1      -2.759  -3.358  24.375  0.00  0.00    +0.000 A 
ATOM     29  C   UNL     1      -3.508  -3.240  24.048  0.00  0.00    +0.001 A 
ATOM     30  C   UNL     1      -3.951  -2.579  24.262  0.00  0.00    +0.017 A 
ENDBRANCH  24  25
ENDBRANCH   4   3
TORSDOF 5
ENDMDL
MODEL 4
REMARK VINA RESULT:      -9.5      1.141      5.404
REMARK  Name = 
REMARK  5 active torsions:
REMARK  status: ('A' for Active; 'I' for Inactive)
REMARK    1  A    between atoms: N_3  and  C_4
REMARK    2  A    between atoms: C_8  and  N_12
REMARK    3  A    between atoms: C_16  and  O_17
REMARK    4  A    between atoms: O_17  and  C_18
REMARK    5  A    between atoms: N_24  and  C_25
REMARK                            x       y       z     vdW  Elec       q    Type
REMARK                         _______ _______ _______ _____ _____    ______ ____
ROOT
ATOM      4  C   UNL     1      -0.888   0.393  24.558  0.00  0.00    +0.156 C 
ATOM      5  C   UNL     1      -1.081   0.754  23.842  0.00  0.00    +0.166 C 
ATOM      6  O   UNL     1      -1.077   1.570  23.960  0.00  0.00    -0.350 OA
ATOM      7  C   UNL     1      -0.882   1.714  24.747  0.00  0.00    +0.169 C 
ATOM      8  C   UNL     1      -0.759   2.307  25.308  0.00  0.00    +0.170 C 
ATOM      9  C   UNL     1      -0.566   1.946  26.024  0.00  0.00    +0.169 C 
ATOM     10  O   UNL     1      -0.569   1.129  25.906  0.00  0.00    -0.350 OA
ATOM     11  C   UNL     1      -0.765   0.986  25.117  0.00  0.00    +0.167 C 
ENDROOT
BRANCH   8  12
ATOM     12  N   UNL     1      -0.818   3.119  25.175  0.00  0.00    -0.180 N 
ATOM     13  N   UNL     1      -0.264   3.589  24.784  0.00  0.00    -0.040 NA
ATOM     14  N   UNL     1      -0.546   4.364  24.778  0.00  0.00    -0.020 NA
ATOM     15  N   UNL     1      -1.274   4.373  25.164  0.00  0.00    -0.071 NA
ATOM     16  C   UNL     1      -1.443   3.604  25.409  0.00  0.00    +0.343 A 
BRANCH  16  17
ATOM     17  O   UNL     1      -2.118   3.362  25.818  0.00  0.00    -0.421 OA
BRANCH  17  18
ATOM     18  C   UNL     1      -2.841   3.734  25.676  0.00  0.00    +0.149 A 
ATOM     19  C   UNL     1      -3.294   3.518  25.022  0.00  0.00    +0.038 A 
ATOM     20  C   UNL     1      -4.016   3.889  24.879  0.00  0.00    +0.003 A 
ATOM     21  C   UNL     1      -4.287   4.476  25.393  0.00  0.00    +0.000 A 
ATOM     22  C   UNL     1      -3.834   4.692  26.048  0.00  0.00    +0.003 A 
ATOM     23  C   UNL     1      -3.111   4.320  26.189  0.00  0.00    +0.038 A 
ENDBRANCH  17  18
ENDBRANCH  16  17
ENDBRANCH   8  12
BRANCH   4   3
ATOM      1  O   UNL     1      -2.229  -0.562  24.443  0.00  0.00    -0.249 OA
ATOM      2  C   UNL     1      -1.498  -0.897  24.633  0.00  0.00    +0.344 C 
ATOM      3  N   UNL     1      -0.828  -0.419  24.691  0.00  0.00    -0.184 NA
ATOM     24  N   UNL     1      -1.439  -1.709  24.766  0.00  0.00    -0.161 NA
BRANCH  24  25
ATOM     25  C   UNL     1      -2.109  -2.187  24.709  0.00  0.00    +0.075 A 
ATOM     26  C   UNL     1      -2.698  -2.143  25.284  0.00  0.00    +0.017 A 
ATOM     27  C   UNL     1      -3.368  -2.621  25.227  0.00  0.00    +0.001 A 
ATOM     28  C   UNL     1      -3.449  -3.143  24.593  0.00  0.00    +0.000 A 
ATOM     29  C   UNL     1      -2.860  -3.188  24.017  0.00  0.00    +0.001 A 
ATOM     30  C   UNL     1      -2.190  -2.709  24.075  0.00  0.00    +0.017 A 
ENDBRANCH  24  25
ENDBRANCH   4   3
TORSDOF 5
ENDMDL
MODEL 5
REMARK VINA RESULT:      -9.0      1.979      2.668
REMARK  Name = 
REMARK  5 active torsions:
REMARK  status: ('A' for Active; 'I' for Inactive)
REMARK    1  A    between atoms: N_3  and  C_4
REMARK    2  A    between atoms: C_8  and  N_12
REMARK    3  A    between atoms: C_16  and  O_17
REMARK    4  A    between atoms: O_17  and  C_18
REMARK    5  A    between atoms: N_24  and  C_25
REMARK                            x       y       z     vdW  Elec       q    Type
REMARK                         _______ _______ _______ _____ _____    ______ ____
ROOT
ATOM      4  C   UNL     1      -3.702   1.964  24.402  0.00  0.00    +0.156 C 
ATOM      5  C   UNL     1      -3.454   1.746  23.646  0.00  0.00    +0.166 C 
ATOM      6  O   UNL     1      -3.569   0.934  23.565  0.00  0.00    -0.350 OA
ATOM      7  C   UNL     1      -3.887   0.649  24.270  0.00  0.00    +0.169 C 
ATOM      8  C   UNL     1      -4.155  -0.029  24.657  0.00  0.00    +0.170 C 
ATOM      9  C   UNL     1      -4.403   0.188  25.413  0.00  0.00    +0.169 C 
ATOM     10  O   UNL     1      -4.288   1.001  25.494  0.00  0.00    -0.350 OA
ATOM     11  C   UNL     1      -3.969   1.286  24.788  0.00  0.00    +0.167 C 
ENDROOT
BRANCH   8  12
ATOM     12  N   UNL     1      -4.171  -0.792  24.341  0.00  0.00    -0.180 N 
ATOM     13  N   UNL     1      -4.717  -1.078  23.792  0.00  0.00    -0.040 NA
ATOM     14  N   UNL     1      -4.528  -1.865  23.632  0.00  0.00    -0.020 NA
ATOM     15  N   UNL     1      -3.867  -2.065  24.082  0.00  0.00    -0.071 NA
ATOM     16  C   UNL     1      -3.646  -1.402  24.520  0.00  0.00    +0.343 A 
BRANCH  16  17
ATOM     17  O   UNL     1      -3.011  -1.357  25.046  0.00  0.00    -0.421 OA
BRANCH  17  18
ATOM     18  C   UNL     1      -2.312  -1.765  24.884  0.00  0.00    +0.149 A 
ATOM     19  C   UNL     1      -1.626  -1.349  24.697  0.00  0.00    +0.038 A 
ATOM     20  C   UNL     1      -0.927  -1.756  24.536  0.00  0.00    +0.003 A 
ATOM     21  C   UNL     1      -0.915  -2.581  24.561  0.00  0.00    +0.000 A 
ATOM     22  C   UNL     1      -1.603  -2.998  24.748  0.00  0.00    +0.003 A 
ATOM     23  C   UNL     1      -2.301  -2.589  24.910  0.00  0.00    +0.038 A 
ENDBRANCH  17  18
ENDBRANCH  16  17
ENDBRANCH   8  12
BRANCH   4   3
ATOM      1  O   UNL     1      -2.288   2.814  24.429  0.00  0.00    -0.249 OA
ATOM      2  C   UNL     1      -2.979   3.152  24.731  0.00  0.00    +0.344 C 
ATOM      3  N   UNL     1      -3.685   2.726  24.717  0.00  0.00    -0.184 NA
ATOM     24  N   UNL     1      -2.962   3.914  25.046  0.00  0.00    -0.161 NA
BRANCH  24  25
ATOM     25  C   UNL     1      -2.255   4.340  25.059  0.00  0.00    +0.075 A 
ATOM     26  C   UNL     1      -1.581   4.011  25.403  0.00  0.00    +0.017 A 
ATOM     27  C   UNL     1      -0.875   4.436  25.416  0.00  0.00    +0.001 A 
ATOM     28  C   UNL     1      -0.842   5.192  25.086  0.00  0.00    +0.000 A 
ATOM     29  C   UNL     1      -1.516   5.521  24.743  0.00  0.00    +0.001 A 
ATOM     30  C   UNL     1      -2.223   5.095  24.729  0.00  0.00    +0.017 A 
ENDBRANCH  24  25
ENDBRANCH   4   3
TORSDOF 5
ENDMDL
MODEL 6
REMARK VINA RESULT:      -8.7      2.811      4.669
REMARK  Name = 
REMARK  5 active torsions:
REMARK  status: ('A' for Active; 'I' for Inactive)
REMARK    1  A    between atoms: N_3  and  C_4
REMARK    2  A    between atoms: C_8  and  N_12
REMARK    3  A    between atoms: C_16  and  O_17
REMARK    4  A    between atoms: O_17  and  C_18
REMARK    5  A    between atoms: N_24  and  C_25
REMARK                            x       y       z     vdW  Elec       q    Type
REMARK                         _______ _______ _______ _____ _____    ______ ____
ROOT
ATOM      4  C   UNL     1      -0.170   0.804  23.843  0.00  0.00    +0.156 C 
ATOM      5  C   UNL     1      -0.105   0.793  24.665  0.00  0.00    +0.166 C 
ATOM      6  O   UNL     1      -0.680   1.298  24.972  0.00  0.00    -0.350 OA
ATOM      7  C   UNL     1      -1.100   1.621  24.341  0.00  0.00    +0.169 C 
ATOM      8  C   UNL     1      -1.715   2.132  24.139  0.00  0.00    +0.170 C 
ATOM      9  C   UNL     1      -1.780   2.143  23.317  0.00  0.00    +0.169 C 
ATOM     10  O   UNL     1      -1.205   1.638  23.010  0.00  0.00    -0.350 OA
ATOM     11  C   UNL     1      -0.785   1.315  23.643  0.00  0.00    +0.167 C 
ENDROOT
BRANCH   8  12
ATOM     12  N   UNL     1      -2.183   2.559  24.669  0.00  0.00    -0.180 N 
ATOM     13  N   UNL     1      -1.923   3.159  25.172  0.00  0.00    -0.040 NA
ATOM     14  N   UNL     1      -2.573   3.431  25.601  0.00  0.00    -0.020 NA
ATOM     15  N   UNL     1      -3.234   2.999  25.364  0.00  0.00    -0.071 NA
ATOM     16  C   UNL     1      -2.993   2.460  24.788  0.00  0.00    +0.343 A 
BRANCH  16  17
ATOM     17  O   UNL     1      -3.478   1.917  24.399  0.00  0.00    -0.421 OA
BRANCH  17  18
ATOM     18  C   UNL     1      -4.250   1.791  24.662  0.00  0.00    +0.149 A 
ATOM     19  C   UNL     1      -4.847   2.322  24.458  0.00  0.00    +0.038 A 
ATOM     20  C   UNL     1      -5.619   2.196  24.720  0.00  0.00    +0.003 A 
ATOM     21  C   UNL     1      -5.794   1.539  25.187  0.00  0.00    +0.000 A 
ATOM     22  C   UNL     1      -5.196   1.007  25.391  0.00  0.00    +0.003 A 
ATOM     23  C   UNL     1      -4.425   1.133  25.128  0.00  0.00    +0.038 A 
ENDBRANCH  17  18
ENDBRANCH  16  17
ENDBRANCH   8  12
BRANCH   4   3
ATOM      1  O   UNL     1       1.471   0.975  23.870  0.00  0.00    -0.249 OA
ATOM      2  C   UNL     1       1.119   0.463  23.326  0.00  0.00    +0.344 C 
ATOM      3  N   UNL     1       0.299   0.377  23.313  0.00  0.00    -0.184 NA
ATOM     24  N   UNL     1       1.587   0.037  22.798  0.00  0.00    -0.161 NA
BRANCH  24  25
ATOM     25  C   UNL     1       2.408   0.123  22.811  0.00  0.00    +0.075 A 
ATOM     26  C   UNL     1       2.879  -0.469  23.138  0.00  0.00    +0.017 A 
ATOM     27  C   UNL     1       3.700  -0.384  23.151  0.00  0.00    +0.001 A 
ATOM     28  C   UNL     1       4.049   0.295  22.837  0.00  0.00    +0.000 A 
ATOM     29  C   UNL     1       3.577   0.888  22.510  0.00  0.00    +0.001 A 
ATOM     30  C   UNL     1       2.756   0.801  22.497  0.00  0.00    +0.017 A 
ENDBRANCH  24  25
ENDBRANCH   4   3
TORSDOF 5
ENDMDL
MODEL 7
REMARK VINA RESULT:      -8.6      1.453      1.719
REMARK  Name = 
REMARK  5 active torsions:
REMARK  status: ('A' for Active; 'I' for Inactive)
REMARK    1  A    between atoms: N_3  and  C_4
REMARK    2  A    between atoms: C_8  and  N_12
REMARK    3  A    between atoms: C_16  and  O_17
REMARK    4  A    between atoms: O_17  and  C_18
REMARK    5  A    between atoms: N_24  and  C_25
REMARK                            x       y       z     vdW  Elec       q    Type
REMARK                         _______ _______ _______ _____ _____    ______ ____
ROOT
ATOM      4  C   UNL     1      -1.771   1.830  24.550  0.00  0.00    +0.156 C 
ATOM      5  C   UNL     1      -1.791   1.594  23.760  0.00  0.00    +0.166 C 
ATOM      6  O   UNL     1      -1.586   0.796  23.728  0.00  0.00    -0.350 OA
ATOM      7  C   UNL     1      -1.439   0.538  24.497  0.00  0.00    +0.169 C 
ATOM      8  C   UNL     1      -1.220  -0.113  24.953  0.00  0.00    +0.170 C 
ATOM      9  C   UNL     1      -1.200   0.123  25.743  0.00  0.00    +0.169 C 
ATOM     10  O   UNL     1      -1.405   0.921  25.775  0.00  0.00    -0.350 OA
ATOM     11  C   UNL     1      -1.553   1.178  25.005  0.00  0.00    +0.167 C 
ENDROOT
BRANCH   8  12
ATOM     12  N   UNL     1      -1.052  -0.870  24.668  0.00  0.00    -0.180 N 
ATOM     13  N   UNL     1      -0.353  -1.104  24.298  0.00  0.00    -0.040 NA
ATOM     14  N   UNL     1      -0.423  -1.903  24.105  0.00  0.00    -0.020 NA
ATOM     15  N   UNL     1      -1.164  -2.162  24.356  0.00  0.00    -0.071 NA
ATOM     16  C   UNL     1      -1.553  -1.523  24.704  0.00  0.00    +0.343 A 
BRANCH  16  17
ATOM     17  O   UNL     1      -2.311  -1.537  25.031  0.00  0.00    -0.421 OA
BRANCH  17  18
ATOM     18  C   UNL     1      -2.890  -2.031  24.711  0.00  0.00    +0.149 A 
ATOM     19  C   UNL     1      -3.448  -1.726  24.186  0.00  0.00    +0.038 A 
ATOM     20  C   UNL     1      -4.026  -2.219  23.866  0.00  0.00    +0.003 A 
ATOM     21  C   UNL     1      -4.047  -3.018  24.072  0.00  0.00    +0.000 A 
ATOM     22  C   UNL     1      -3.488  -3.323  24.598  0.00  0.00    +0.003 A 
ATOM     23  C   UNL     1      -2.910  -2.829  24.917  0.00  0.00    +0.038 A 
ENDBRANCH  17  18
ENDBRANCH  16  17
ENDBRANCH   8  12
BRANCH   4   3
ATOM      1  O   UNL     1      -3.336   2.340  24.662  0.00  0.00    -0.249 OA
ATOM      2  C   UNL     1      -2.721   2.842  24.891  0.00  0.00    +0.344 C 
ATOM      3  N   UNL     1      -1.939   2.586  24.835  0.00  0.00    -0.184 NA
ATOM     24  N   UNL     1      -2.890   3.597  25.175  0.00  0.00    -0.161 NA
BRANCH  24  25
ATOM     25  C   UNL     1      -3.672   3.853  25.231  0.00  0.00    +0.075 A 
ATOM     26  C   UNL     1      -4.116   3.679  25.904  0.00  0.00    +0.017 A 
ATOM     27  C   UNL     1      -4.898   3.935  25.960  0.00  0.00    +0.001 A 
ATOM     28  C   UNL     1      -5.237   4.364  25.343  0.00  0.00    +0.000 A 
ATOM     29  C   UNL     1      -4.793   4.538  24.669  0.00  0.00    +0.001 A 
ATOM     30  C   UNL     1      -4.011   4.282  24.614  0.00  0.00    +0.017 A 
ENDBRANCH  24  25
ENDBRANCH   4   3
TORSDOF 5
ENDMDL
