MODEL 1
REMARK VINA RESULT:      -9.8      0.000      0.000
REMARK  Name = 
REMARK  8 active torsions:
REMARK  status: ('A' for Active; 'I' for Inactive)
REMARK    1  A    between atoms: O_2  and  C_3
REMARK    2  A    between atoms: C_3  and  C_4
REMARK    3  A    between atoms: C_4  and  N_5
REMARK    4  A    between atoms: N_5  and  C_6
REMARK    5  A    between atoms: C_7  and  C_12
REMARK    6  A    between atoms: C_15  and  C_17
REMARK    7  A    between atoms: N_21  and  C_22
REMARK    8  A    between atoms: C_22  and  C_23
REMARK                            x       y       z     vdW  Elec       q    Type
REMARK                         _______ _______ _______ _____ _____    ______ ____
ROOT
ATOM     12  C   UNL     1      -3.817   1.573  24.608  0.00  0.00    +0.206 A 
ATOM     13  N   UNL     1      -3.627   1.496  23.808  0.00  0.00    -0.056 NA
ATOM     14  O   UNL     1      -3.080   0.883  23.736  0.00  0.00    -0.336 OA
ATOM     15  C   UNL     1      -2.933   0.580  24.489  0.00  0.00    +0.251 A 
ATOM     16  N   UNL     1      -3.389   1.007  25.028  0.00  0.00    -0.190 NA
ENDROOT
BRANCH  12   7
ATOM      6  C   UNL     1      -4.083   2.874  25.135  0.00  0.00    +0.151 A 
ATOM      7  C   UNL     1      -4.345   2.120  24.930  0.00  0.00    +0.072 A 
ATOM      8  C   UNL     1      -5.135   1.911  25.047  0.00  0.00    +0.008 A 
ATOM      9  C   UNL     1      -5.662   2.458  25.368  0.00  0.00    +0.021 A 
ATOM     10  C   UNL     1      -5.400   3.213  25.573  0.00  0.00    +0.100 A 
ATOM     11  N   UNL     1      -4.610   3.422  25.456  0.00  0.00    -0.228 NA
BRANCH   6   5
ATOM      5  N   UNL     1      -3.293   3.084  25.018  0.00  0.00    -0.218 NA
BRANCH   5   4
ATOM      4  C   UNL     1      -3.026   3.830  25.243  0.00  0.00    +0.146 C 
BRANCH   4   3
ATOM      3  C   UNL     1      -2.237   4.040  25.123  0.00  0.00    +0.166 C 
BRANCH   3   2
ATOM      1  C   UNL     1      -1.237   5.060  25.083  0.00  0.00    +0.174 C 
ATOM      2  O   UNL     1      -1.971   4.790  25.344  0.00  0.00    -0.349 OA
ENDBRANCH   3   2
ENDBRANCH   4   3
ENDBRANCH   5   4
ENDBRANCH   6   5
ENDBRANCH  12   7
BRANCH  15  17
ATOM     17  C   UNL     1      -2.420  -0.040  24.671  0.00  0.00    +0.138 C 
ATOM     18  C   UNL     1      -1.625   0.034  24.877  0.00  0.00    +0.027 C 
ATOM     19  C   UNL     1      -1.325  -0.722  25.013  0.00  0.00    +0.019 C 
ATOM     20  C   UNL     1      -1.936  -1.264  24.891  0.00  0.00    +0.073 C 
ATOM     21  N   UNL     1      -2.612  -0.841  24.680  0.00  0.00    -0.266 NA
BRANCH  21  22
ATOM     22  C   UNL     1      -3.352  -1.165  24.507  0.00  0.00    +0.072 C 
BRANCH  22  23
ATOM     23  C   UNL     1      -3.470  -1.979  24.564  0.00  0.00    +0.016 C 
ATOM     24  C   UNL     1      -3.579  -2.712  24.200  0.00  0.00    +0.001 C 
ATOM     25  C   UNL     1      -3.564  -2.657  25.023  0.00  0.00    +0.001 C 
ENDBRANCH  22  23
ENDBRANCH  21  22
ENDBRANCH  15  17
TORSDOF 8
ENDMDL
MODEL 2
REMARK VINA RESULT:      -9.4      0.611      1.446
REMARK  Name = 
REMARK  8 active torsions:
REMARK  status: ('A' for Active; 'I' for Inactive)
REMARK    1  A    between atoms: O_2  and  C_3
REMARK    2  A    between atoms: C_3  and  C_4
REMARK    3  A    between atoms: C_4  and  N_5
REMARK    4  A    between atoms: N_5  and  C_6
REMARK    5  A    between atoms: C_7  and  C_12
REMARK    6  A    between atoms: C_15  and  C_17
REMARK    7  A    between atoms: N_21  and  C_22
REMARK    8  A    between atoms: C_22  and  C_23
REMARK                            x       y       z     vdW  Elec       q    Type
REMARK                         _______ _______ _______ _____ _____    ______ ____
ROOT
ATOM     12  C   UNL     1      -4.260   1.319  24.526  0.00  0.00    +0.206 A 
ATOM     13  N   UNL     1      -3.902   1.333  23.782  0.00  0.00    -0.056 NA
ATOM     14  O   UNL     1      -3.596   0.582  23.634  0.00  0.00    -0.336 OA
ATOM     15  C   UNL     1      -3.764   0.104  24.286  0.00  0.00    +0.251 A 
ATOM     16  N   UNL     1      -4.175   0.561  24.837  0.00  0.00    -0.190 NA
ENDROOT
BRANCH  12   7
ATOM      6  C   UNL     1      -4.196   2.601  25.154  0.00  0.00    +0.151 A 
ATOM      7  C   UNL     1      -4.637   1.955  24.894  0.00  0.00    +0.072 A 
ATOM      8  C   UNL     1      -5.455   1.943  25.001  0.00  0.00    +0.008 A 
ATOM      9  C   UNL     1      -5.832   2.578  25.368  0.00  0.00    +0.021 A 
ATOM     10  C   UNL     1      -5.392   3.225  25.629  0.00  0.00    +0.100 A 
ATOM     11  N   UNL     1      -4.573   3.237  25.522  0.00  0.00    -0.228 NA
BRANCH   6   5
ATOM      5  N   UNL     1      -3.378   2.614  25.048  0.00  0.00    -0.218 NA
BRANCH   5   4
ATOM      4  C   UNL     1      -2.939   3.264  25.300  0.00  0.00    +0.146 C 
BRANCH   4   3
ATOM      3  C   UNL     1      -2.116   3.257  25.234  0.00  0.00    +0.166 C 
BRANCH   3   2
ATOM      1  C   UNL     1      -0.879   3.968  25.166  0.00  0.00    +0.174 C 
ATOM      2  O   UNL     1      -1.690   3.960  25.314  0.00  0.00    -0.349 OA
ENDBRANCH   3   2
ENDBRANCH   4   3
ENDBRANCH   5   4
ENDBRANCH   6   5
ENDBRANCH  12   7
BRANCH  15  17
ATOM     17  C   UNL     1      -3.559  -0.690  24.371  0.00  0.00    +0.138 C 
ATOM     18  C   UNL     1      -4.060  -1.336  24.258  0.00  0.00    +0.027 C 
ATOM     19  C   UNL     1      -3.627  -2.023  24.401  0.00  0.00    +0.019 C 
ATOM     20  C   UNL     1      -2.858  -1.803  24.604  0.00  0.00    +0.073 C 
ATOM     21  N   UNL     1      -2.816  -0.979  24.585  0.00  0.00    -0.266 NA
BRANCH  21  22
ATOM     22  C   UNL     1      -2.148  -0.523  24.751  0.00  0.00    +0.072 C 
BRANCH  22  23
ATOM     23  C   UNL     1      -1.447  -0.888  24.987  0.00  0.00    +0.016 C 
ATOM     24  C   UNL     1      -0.732  -1.251  24.796  0.00  0.00    +0.001 C 
ATOM     25  C   UNL     1      -0.950  -1.159  25.586  0.00  0.00    +0.001 C 
ENDBRANCH  22  23
ENDBRANCH  21  22
ENDBRANCH  15  17
TORSDOF 8
ENDMDL
MODEL 3
REMARK VINA RESULT:      -9.4      1.096      4.274
REMARK  Name = 
REMARK  8 active torsions:
REMARK  status: ('A' for Active; 'I' for Inactive)
REMARK    1  A    between atoms: O_2  and  C_3
REMARK    2  A    between atoms: C_3  and  C_4
REMARK    3  A    between atoms: C_4  and  N_5
REMARK    4  A    between atoms: N_5  and  C_6
REMARK    5  A    between atoms: C_7  and  C_12
REMARK    6  A    between atoms: C_15  and  C_17
REMARK    7  A    between atoms: N_21  and  C_22
REMARK    8  A    between atoms: C_22  and  C_23
REMARK                            x       y       z     vdW  Elec       q    Type
REMARK                         _______ _______ _______ _____ _____    ______ ____
ROOT
ATOM     12  C   UNL     1      -3.657   0.303  24.434  0.00  0.00    +0.206 A 
ATOM     13  N   UNL     1      -3.696   0.690  23.706  0.00  0.00    -0.056 NA
ATOM     14  O   UNL     1      -4.016   1.439  23.835  0.00  0.00    -0.336 OA
ATOM     15  C   UNL     1      -4.174   1.515  24.642  0.00  0.00    +0.251 A 
ATOM     16  N   UNL     1      -3.952   0.812  25.012  0.00  0.00    -0.190 NA
ENDROOT
BRANCH  12   7
ATOM      6  C   UNL     1      -2.560  -0.595  24.618  0.00  0.00    +0.151 A 
ATOM      7  C   UNL     1      -3.371  -0.462  24.561  0.00  0.00    +0.072 A 
ATOM      8  C   UNL     1      -3.900  -1.092  24.631  0.00  0.00    +0.008 A 
ATOM      9  C   UNL     1      -3.616  -1.856  24.758  0.00  0.00    +0.021 A 
ATOM     10  C   UNL     1      -2.803  -1.990  24.815  0.00  0.00    +0.100 A 
ATOM     11  N   UNL     1      -2.275  -1.359  24.745  0.00  0.00    -0.228 NA
BRANCH   6   5
ATOM      5  N   UNL     1      -2.032   0.034  24.548  0.00  0.00    -0.218 NA
BRANCH   5   4
ATOM      4  C   UNL     1      -1.236  -0.071  24.736  0.00  0.00    +0.146 C 
BRANCH   4   3
ATOM      3  C   UNL     1      -0.672   0.464  24.459  0.00  0.00    +0.166 C 
BRANCH   3   2
ATOM      1  C   UNL     1       0.149   1.610  24.693  0.00  0.00    +0.174 C 
ATOM      2  O   UNL     1      -0.305   0.985  24.983  0.00  0.00    -0.349 OA
ENDBRANCH   3   2
ENDBRANCH   4   3
ENDBRANCH   5   4
ENDBRANCH   6   5
ENDBRANCH  12   7
BRANCH  15  17
ATOM     17  C   UNL     1      -4.497   2.177  25.013  0.00  0.00    +0.138 C 
ATOM     18  C   UNL     1      -5.280   2.260  25.260  0.00  0.00    +0.027 C 
ATOM     19  C   UNL     1      -5.362   3.007  25.601  0.00  0.00    +0.019 C 
ATOM     20  C   UNL     1      -4.629   3.385  25.565  0.00  0.00    +0.073 C 
ATOM     21  N   UNL     1      -4.095   2.872  25.201  0.00  0.00    -0.266 NA
BRANCH  21  22
ATOM     22  C   UNL     1      -3.298   3.027  25.052  0.00  0.00    +0.072 C 
BRANCH  22  23
ATOM     23  C   UNL     1      -2.921   3.653  25.434  0.00  0.00    +0.016 C 
ATOM     24  C   UNL     1      -2.587   4.407  25.410  0.00  0.00    +0.001 C 
ATOM     25  C   UNL     1      -2.601   3.984  26.118  0.00  0.00    +0.001 C 
ENDBRANCH  22  23
ENDBRANCH  21  22
ENDBRANCH  15  17
TORSDOF 8
ENDMDL
MODEL 4
REMARK VINA RESULT:      -9.3      1.501      3.311
REMARK  Name = 
REMARK  8 active torsions:
REMARK  status: ('A' for Active; 'I' for Inactive)
REMARK    1  A    between atoms: O_2  and  C_3
REMARK    2  A    between atoms: C_3  and  C_4
REMARK    3  A    between atoms: C_4  and  N_5
REMARK    4  A    between atoms: N_5  and  C_6
REMARK    5  A    between atoms: C_7  and  C_12
REMARK    6  A    between atoms: C_15  and  C_17
REMARK    7  A    between atoms: N_21  and  C_22
REMARK    8  A    between atoms: C_22  and  C_23
REMARK                            x       y       z     vdW  Elec       q    Type
REMARK                         _______ _______ _______ _____ _____    ______ ____
ROOT
ATOM     12  C   UNL     1      -2.843   3.250  24.534  0.00  0.00    +0.206 A 
ATOM     13  N   UNL     1      -3.170   3.209  23.777  0.00  0.00    -0.056 NA
ATOM     14  O   UNL     1      -3.850   2.745  23.820  0.00  0.00    -0.336 OA
ATOM     15  C   UNL     1      -3.944   2.499  24.602  0.00  0.00    +0.251 A 
ATOM     16  N   UNL     1      -3.321   2.812  25.043  0.00  0.00    -0.190 NA
ENDROOT
BRANCH  12   7
ATOM      6  C   UNL     1      -1.420   3.296  24.665  0.00  0.00    +0.151 A 
ATOM      7  C   UNL     1      -2.157   3.659  24.743  0.00  0.00    +0.072 A 
ATOM      8  C   UNL     1      -2.209   4.431  25.031  0.00  0.00    +0.008 A 
ATOM      9  C   UNL     1      -1.524   4.840  25.240  0.00  0.00    +0.021 A 
ATOM     10  C   UNL     1      -0.786   4.477  25.162  0.00  0.00    +0.100 A 
ATOM     11  N   UNL     1      -0.734   3.705  24.874  0.00  0.00    -0.228 NA
BRANCH   6   5
ATOM      5  N   UNL     1      -1.368   2.525  24.378  0.00  0.00    -0.218 NA
BRANCH   5   4
ATOM      4  C   UNL     1      -0.652   2.117  24.417  0.00  0.00    +0.146 C 
BRANCH   4   3
ATOM      3  C   UNL     1      -0.563   1.401  24.018  0.00  0.00    +0.166 C 
BRANCH   3   2
ATOM      1  C   UNL     1      -0.162   0.029  24.014  0.00  0.00    +0.174 C 
ATOM      2  O   UNL     1      -0.294   0.733  24.422  0.00  0.00    -0.349 OA
ENDBRANCH   3   2
ENDBRANCH   4   3
ENDBRANCH   5   4
ENDBRANCH   6   5
ENDBRANCH  12   7
BRANCH  15  17
ATOM     17  C   UNL     1      -4.553   2.025  24.892  0.00  0.00    +0.138 C 
ATOM     18  C   UNL     1      -5.226   2.289  25.291  0.00  0.00    +0.027 C 
ATOM     19  C   UNL     1      -5.686   1.631  25.480  0.00  0.00    +0.019 C 
ATOM     20  C   UNL     1      -5.297   0.959  25.198  0.00  0.00    +0.073 C 
ATOM     21  N   UNL     1      -4.597   1.203  24.835  0.00  0.00    -0.266 NA
BRANCH  21  22
ATOM     22  C   UNL     1      -4.039   0.711  24.478  0.00  0.00    +0.072 C 
BRANCH  22  23
ATOM     23  C   UNL     1      -4.074  -0.105  24.594  0.00  0.00    +0.016 C 
ATOM     24  C   UNL     1      -4.298  -0.855  24.333  0.00  0.00    +0.001 C 
ATOM     25  C   UNL     1      -3.910  -0.767  25.056  0.00  0.00    +0.001 C 
ENDBRANCH  22  23
ENDBRANCH  21  22
ENDBRANCH  15  17
TORSDOF 8
ENDMDL
MODEL 5
REMARK VINA RESULT:      -9.2      1.246      2.453
REMARK  Name = 
REMARK  8 active torsions:
REMARK  status: ('A' for Active; 'I' for Inactive)
REMARK    1  A    between atoms: O_2  and  C_3
REMARK    2  A    between atoms: C_3  and  C_4
REMARK    3  A    between atoms: C_4  and  N_5
REMARK    4  A    between atoms: N_5  and  C_6
REMARK    5  A    between atoms: C_7  and  C_12
REMARK    6  A    between atoms: C_15  and  C_17
REMARK    7  A    between atoms: N_21  and  C_22
REMARK    8  A    between atoms: C_22  and  C_23
REMARK                            x       y       z     vdW  Elec       q    Type
REMARK                         _______ _______ _______ _____ _____    ______ ____
ROOT
ATOM     12  C   UNL     1      -1.697   2.280  24.500  0.00  0.00    +0.206 A 
ATOM     13  N   UNL     1      -1.777   2.056  23.709  0.00  0.00    -0.056 NA
ATOM     14  O   UNL     1      -1.674   1.240  23.665  0.00  0.00    -0.336 OA
ATOM     15  C   UNL     1      -1.530   0.958  24.427  0.00  0.00    +0.251 A 
ATOM     16  N   UNL     1      -1.544   1.602  24.943  0.00  0.00    -0.190 NA
ENDROOT
BRANCH  12   7
ATOM      6  C   UNL     1      -2.499   3.363  24.974  0.00  0.00    +0.151 A 
ATOM      7  C   UNL     1      -1.759   3.049  24.794  0.00  0.00    +0.072 A 
ATOM      8  C   UNL     1      -1.079   3.503  24.908  0.00  0.00    +0.008 A 
ATOM      9  C   UNL     1      -1.140   4.271  25.202  0.00  0.00    +0.021 A 
ATOM     10  C   UNL     1      -1.881   4.586  25.382  0.00  0.00    +0.100 A 
ATOM     11  N   UNL     1      -2.561   4.132  25.268  0.00  0.00    -0.228 NA
BRANCH   6   5
ATOM      5  N   UNL     1      -3.179   2.910  24.861  0.00  0.00    -0.218 NA
BRANCH   5   4
ATOM      4  C   UNL     1      -3.906   3.178  25.143  0.00  0.00    +0.146 C 
BRANCH   4   3
ATOM      3  C   UNL     1      -4.602   2.796  24.920  0.00  0.00    +0.166 C 
BRANCH   3   2
ATOM      1  C   UNL     1      -5.793   2.096  25.287  0.00  0.00    +0.174 C 
ATOM      2  O   UNL     1      -5.156   2.578  25.492  0.00  0.00    -0.349 OA
ENDBRANCH   3   2
ENDBRANCH   4   3
ENDBRANCH   5   4
ENDBRANCH   6   5
ENDBRANCH  12   7
BRANCH  15  17
ATOM     17  C   UNL     1      -1.395   0.172  24.637  0.00  0.00    +0.138 C 
ATOM     18  C   UNL     1      -0.663  -0.163  24.818  0.00  0.00    +0.027 C 
ATOM     19  C   UNL     1      -0.783  -0.959  24.995  0.00  0.00    +0.019 C 
ATOM     20  C   UNL     1      -1.590  -1.117  24.924  0.00  0.00    +0.073 C 
ATOM     21  N   UNL     1      -1.968  -0.417  24.703  0.00  0.00    -0.266 NA
BRANCH  21  22
ATOM     22  C   UNL     1      -2.777  -0.324  24.570  0.00  0.00    +0.072 C 
BRANCH  22  23
ATOM     23  C   UNL     1      -3.296  -0.945  24.731  0.00  0.00    +0.016 C 
ATOM     24  C   UNL     1      -3.761  -1.574  24.467  0.00  0.00    +0.001 C 
ATOM     25  C   UNL     1      -3.730  -1.392  25.271  0.00  0.00    +0.001 C 
ENDBRANCH  22  23
ENDBRANCH  21  22
ENDBRANCH  15  17
TORSDOF 8
ENDMDL
MODEL 6
REMARK VINA RESULT:      -9.0      1.505      4.023
REMARK  Name = 
REMARK  8 active torsions:
REMARK  status: ('A' for Active; 'I' for Inactive)
REMARK    1  A    between atoms: O_2  and  C_3
REMARK    2  A    between atoms: C_3  and  C_4
REMARK    3  A    between atoms: C_4  and  N_5
REMARK    4  A    between atoms: N_5  and  C_6
REMARK    5  A    between atoms: C_7  and  C_12
REMARK    6  A    between atoms: C_15  and  C_17
REMARK    7  A    between atoms: N_21  and  C_22
REMARK    8  A    between atoms: C_22  and  C_23
REMARK                            x       y       z     vdW  Elec       q    Type
REMARK                         _______ _______ _______ _____ _____    ______ ____
ROOT
ATOM     12  C   UNL     1      -2.510   0.703  24.391  0.00  0.00    +0.206 A 
ATOM     13  N   UNL     1      -2.236   1.060  23.699  0.00  0.00    -0.056 NA
ATOM     14  O   UNL     1      -1.648   1.599  23.908  0.00  0.00    -0.336 OA
ATOM     15  C   UNL     1      -1.557   1.575  24.728  0.00  0.00    +0.251 A 
ATOM     16  N   UNL     1      -2.091   1.020  25.026  0.00  0.00    -0.190 NA
ENDROOT
BRANCH  12   7
ATOM      6  C   UNL     1      -3.885   0.350  24.553  0.00  0.00    +0.151 A 
ATOM      7  C   UNL     1      -3.100   0.127  24.438  0.00  0.00    +0.072 A 
ATOM      8  C   UNL     1      -2.903  -0.671  24.370  0.00  0.00    +0.008 A 
ATOM      9  C   UNL     1      -3.492  -1.246  24.417  0.00  0.00    +0.021 A 
ATOM     10  C   UNL     1      -4.279  -1.023  24.532  0.00  0.00    +0.100 A 
ATOM     11  N   UNL     1      -4.476  -0.225  24.600  0.00  0.00    -0.228 NA
BRANCH   6   5
ATOM      5  N   UNL     1      -4.083   1.149  24.621  0.00  0.00    -0.218 NA
BRANCH   5   4
ATOM      4  C   UNL     1      -4.836   1.368  24.875  0.00  0.00    +0.146 C 
BRANCH   4   3
ATOM      3  C   UNL     1      -5.068   2.159  24.844  0.00  0.00    +0.166 C 
BRANCH   3   2
ATOM      1  C   UNL     1      -5.458   3.328  25.567  0.00  0.00    +0.174 C 
ATOM      2  O   UNL     1      -5.438   2.507  25.495  0.00  0.00    -0.349 OA
ENDBRANCH   3   2
ENDBRANCH   4   3
ENDBRANCH   5   4
ENDBRANCH   6   5
ENDBRANCH  12   7
BRANCH  15  17
ATOM     17  C   UNL     1      -1.027   2.025  25.171  0.00  0.00    +0.138 C 
ATOM     18  C   UNL     1      -0.385   1.735  25.600  0.00  0.00    +0.027 C 
ATOM     19  C   UNL     1      -0.007   2.375  25.957  0.00  0.00    +0.019 C 
ATOM     20  C   UNL     1      -0.415   3.061  25.749  0.00  0.00    +0.073 C 
ATOM     21  N   UNL     1      -1.046   2.844  25.263  0.00  0.00    -0.266 NA
BRANCH  21  22
ATOM     22  C   UNL     1      -1.598   3.358  24.927  0.00  0.00    +0.072 C 
BRANCH  22  23
ATOM     23  C   UNL     1      -1.569   4.165  25.098  0.00  0.00    +0.016 C 
ATOM     24  C   UNL     1      -1.190   4.894  25.033  0.00  0.00    +0.001 C 
ATOM     25  C   UNL     1      -1.895   4.831  25.457  0.00  0.00    +0.001 C 
ENDBRANCH  22  23
ENDBRANCH  21  22
ENDBRANCH  15  17
TORSDOF 8
ENDMDL
MODEL 7
REMARK VINA RESULT:      -8.9      1.413      4.034
REMARK  Name = 
REMARK  8 active torsions:
REMARK  status: ('A' for Active; 'I' for Inactive)
REMARK    1  A    between atoms: O_2  and  C_3
REMARK    2  A    between atoms: C_3  and  C_4
REMARK    3  A    between atoms: C_4  and  N_5
REMARK    4  A    between atoms: N_5  and  C_6
REMARK    5  A    between atoms: C_7  and  C_12
REMARK    6  A    between atoms: C_15  and  C_17
REMARK    7  A    between atoms: N_21  and  C_22
REMARK    8  A    between atoms: C_22  and  C_23
REMARK                            x       y       z     vdW  Elec       q    Type
REMARK                         _______ _______ _______ _____ _____    ______ ____
ROOT
ATOM     12  C   UNL     1      -4.032   2.973  24.834  0.00  0.00    +0.206 A 
ATOM     13  N   UNL     1      -3.809   2.972  24.039  0.00  0.00    -0.056 NA
ATOM     14  O   UNL     1      -3.074   3.342  23.981  0.00  0.00    -0.336 OA
ATOM     15  C   UNL     1      -2.843   3.572  24.739  0.00  0.00    +0.251 A 
ATOM     16  N   UNL     1      -3.435   3.344  25.266  0.00  0.00    -0.190 NA
ENDROOT
BRANCH  12   7
ATOM      6  C   UNL     1      -4.856   1.844  25.129  0.00  0.00    +0.151 A 
ATOM      7  C   UNL     1      -4.730   2.658  25.142  0.00  0.00    +0.072 A 
ATOM      8  C   UNL     1      -5.302   3.160  25.462  0.00  0.00    +0.008 A 
ATOM      9  C   UNL     1      -6.000   2.847  25.769  0.00  0.00    +0.021 A 
ATOM     10  C   UNL     1      -6.127   2.031  25.757  0.00  0.00    +0.100 A 
ATOM     11  N   UNL     1      -5.555   1.529  25.437  0.00  0.00    -0.228 NA
BRANCH   6   5
ATOM      5  N   UNL     1      -4.285   1.342  24.810  0.00  0.00    -0.218 NA
BRANCH   5   4
ATOM      4  C   UNL     1      -4.425   0.531  24.768  0.00  0.00    +0.146 C 
BRANCH   4   3
ATOM      3  C   UNL     1      -3.830   0.022  24.506  0.00  0.00    +0.166 C 
BRANCH   3   2
ATOM      1  C   UNL     1      -3.742  -1.384  24.267  0.00  0.00    +0.174 C 
ATOM      2  O   UNL     1      -4.023  -0.639  24.051  0.00  0.00    -0.349 OA
ENDBRANCH   3   2
ENDBRANCH   4   3
ENDBRANCH   5   4
ENDBRANCH   6   5
ENDBRANCH  12   7
BRANCH  15  17
ATOM     17  C   UNL     1      -2.143   3.962  24.936  0.00  0.00    +0.138 C 
ATOM     18  C   UNL     1      -2.025   4.778  24.932  0.00  0.00    +0.027 C 
ATOM     19  C   UNL     1      -1.247   4.925  25.164  0.00  0.00    +0.019 C 
ATOM     20  C   UNL     1      -0.884   4.199  25.311  0.00  0.00    +0.073 C 
ATOM     21  N   UNL     1      -1.438   3.603  25.170  0.00  0.00    -0.266 NA
BRANCH  21  22
ATOM     22  C   UNL     1      -1.309   2.792  25.249  0.00  0.00    +0.072 C 
BRANCH  22  23
ATOM     23  C   UNL     1      -0.593   2.515  25.552  0.00  0.00    +0.016 C 
ATOM     24  C   UNL     1       0.161   2.204  25.432  0.00  0.00    +0.001 C 
ATOM     25  C   UNL     1      -0.109   2.348  26.198  0.00  0.00    +0.001 C 
ENDBRANCH  22  23
ENDBRANCH  21  22
ENDBRANCH  15  17
TORSDOF 8
ENDMDL
MODEL 8
REMARK VINA RESULT:      -8.7      1.602      4.451
REMARK  Name = 
REMARK  8 active torsions:
REMARK  status: ('A' for Active; 'I' for Inactive)
REMARK    1  A    between atoms: O_2  and  C_3
REMARK    2  A    between atoms: C_3  and  C_4
REMARK    3  A    between atoms: C_4  and  N_5
REMARK    4  A    between atoms: N_5  and  C_6
REMARK    5  A    between atoms: C_7  and  C_12
REMARK    6  A    between atoms: C_15  and  C_17
REMARK    7  A    between atoms: N_21  and  C_22
REMARK    8  A    between atoms: C_22  and  C_23
REMARK                            x       y       z     vdW  Elec       q    Type
REMARK                         _______ _______ _______ _____ _____    ______ ____
ROOT
ATOM     12  C   UNL     1      -2.329  -0.001  24.830  0.00  0.00    +0.206 A 
ATOM     13  N   UNL     1      -2.040   0.513  25.408  0.00  0.00    -0.056 NA
ATOM     14  O   UNL     1      -2.364   1.258  25.270  0.00  0.00    -0.336 OA
ATOM     15  C   UNL     1      -2.853   1.206  24.607  0.00  0.00    +0.251 A 
ATOM     16  N   UNL     1      -2.831   0.427  24.336  0.00  0.00    -0.190 NA
ENDROOT
BRANCH  12   7
ATOM      6  C   UNL     1      -1.412  -1.036  24.469  0.00  0.00    +0.151 A 
ATOM      7  C   UNL     1      -2.147  -0.803  24.760  0.00  0.00    +0.072 A 
ATOM      8  C   UNL     1      -2.702  -1.373  24.982  0.00  0.00    +0.008 A 
ATOM      9  C   UNL     1      -2.521  -2.174  24.913  0.00  0.00    +0.021 A 
ATOM     10  C   UNL     1      -1.785  -2.407  24.622  0.00  0.00    +0.100 A 
ATOM     11  N   UNL     1      -1.230  -1.838  24.400  0.00  0.00    -0.228 NA
BRANCH   6   5
ATOM      5  N   UNL     1      -0.857  -0.467  24.247  0.00  0.00    -0.218 NA
BRANCH   5   4
ATOM      4  C   UNL     1      -0.156  -0.696  23.880  0.00  0.00    +0.146 C 
BRANCH   4   3
ATOM      3  C   UNL     1       0.373  -0.124  23.605  0.00  0.00    +0.166 C 
BRANCH   3   2
ATOM      1  C   UNL     1       1.568   0.099  22.855  0.00  0.00    +0.174 C 
ATOM      2  O   UNL     1       0.840  -0.278  22.942  0.00  0.00    -0.349 OA
ENDBRANCH   3   2
ENDBRANCH   4   3
ENDBRANCH   5   4
ENDBRANCH   6   5
ENDBRANCH  12   7
BRANCH  15  17
ATOM     17  C   UNL     1      -3.288   1.823  24.275  0.00  0.00    +0.138 C 
ATOM     18  C   UNL     1      -3.040   2.314  23.659  0.00  0.00    +0.027 C 
ATOM     19  C   UNL     1      -3.645   2.852  23.503  0.00  0.00    +0.019 C 
ATOM     20  C   UNL     1      -4.267   2.695  24.023  0.00  0.00    +0.073 C 
ATOM     21  N   UNL     1      -4.045   2.059  24.499  0.00  0.00    -0.266 NA
BRANCH  21  22
ATOM     22  C   UNL     1      -4.503   1.718  25.096  0.00  0.00    +0.072 C 
BRANCH  22  23
ATOM     23  C   UNL     1      -5.257   2.010  25.256  0.00  0.00    +0.016 C 
ATOM     24  C   UNL     1      -6.072   1.993  25.128  0.00  0.00    +0.001 C 
ATOM     25  C   UNL     1      -5.749   2.534  25.661  0.00  0.00    +0.001 C 
ENDBRANCH  22  23
ENDBRANCH  21  22
ENDBRANCH  15  17
TORSDOF 8
ENDMDL
