REMARK  Name = 
REMARK  3 active torsions:
REMARK  status: ('A' for Active; 'I' for Inactive)
REMARK    1  A    between atoms: C_4  and  C_5
REMARK    2  A    between atoms: C_5  and  N_6
REMARK    3  A    between atoms: C_9  and  C_11
REMARK                            x       y       z     vdW  Elec       q    Type
REMARK                         _______ _______ _______ _____ _____    ______ ____
ROOT
ATOM      6  N   UNL     1      -2.723  -1.110   0.000  0.00  0.00    -0.268 NA
ATOM      7  C   UNL     1      -2.723  -0.285   0.000  0.00  0.00    +0.073 C 
ATOM      8  C   UNL     1      -1.938  -0.030   0.000  0.00  0.00    +0.028 C 
ATOM      9  C   UNL     1      -1.453  -0.698   0.000  0.00  0.00    +0.094 C 
ATOM     10  C   UNL     1      -1.938  -1.365   0.000  0.00  0.00    +0.082 C 
ENDROOT
BRANCH   9  11
ATOM     11  C   UNL     1      -0.628  -0.698   0.000  0.00  0.00    +0.207 A 
ATOM     12  N   UNL     1      -0.143  -1.365   0.000  0.00  0.00    -0.212 NA
ATOM     13  C   UNL     1       0.641  -1.110   0.000  0.00  0.00    +0.119 A 
ATOM     14  C   UNL     1       0.641  -0.285   0.000  0.00  0.00    +0.164 A 
ATOM     15  O   UNL     1      -0.143  -0.030   0.000  0.00  0.00    -0.438 OA
ATOM     16  C   UNL     1       1.356   0.127   0.000  0.00  0.00    +0.039 A 
ATOM     17  C   UNL     1       2.070  -0.285   0.000  0.00  0.00    +0.003 A 
ATOM     18  C   UNL     1       2.070  -1.110   0.000  0.00  0.00    +0.002 A 
ATOM     19  C   UNL     1       1.356  -1.523   0.000  0.00  0.00    +0.022 A 
ENDBRANCH   9  11
BRANCH   6   5
ATOM      5  C   UNL     1      -3.390  -1.595   0.000  0.00  0.00    +0.099 C 
BRANCH   5   4
ATOM      1 CL   UNL     1      -5.070   0.717   0.000  0.00  0.00    -0.082 Cl
ATOM      2  C   UNL     1      -4.984  -0.104   0.000  0.00  0.00    +0.057 A 
ATOM      3  C   UNL     1      -4.230  -0.439   0.000  0.00  0.00    +0.008 A 
ATOM      4  C   UNL     1      -4.144  -1.260   0.000  0.00  0.00    -0.005 A 
ATOM     20  C   UNL     1      -4.811  -1.745   0.000  0.00  0.00    -0.003 A 
ATOM     21  C   UNL     1      -5.565  -1.409   0.000  0.00  0.00    +0.001 A 
ATOM     22  C   UNL     1      -5.651  -0.589   0.000  0.00  0.00    +0.011 A 
ENDBRANCH   5   4
ENDBRANCH   6   5
TORSDOF 3
