MODEL 1
REMARK VINA RESULT:     -11.6      0.000      0.000
REMARK  Name = 
REMARK  5 active torsions:
REMARK  status: ('A' for Active; 'I' for Inactive)
REMARK    1  A    between atoms: O_2  and  C_3
REMARK    2  A    between atoms: C_6  and  C_7
REMARK    3  A    between atoms: C_7  and  N_8
REMARK    4  A    between atoms: C_13  and  C_14
REMARK    5  A    between atoms: C_16  and  C_19
REMARK                            x       y       z     vdW  Elec       q    Type
REMARK                         _______ _______ _______ _____ _____    ______ ____
ROOT
ATOM      8  N   UNL     1      -3.639   2.093  24.925  0.00  0.00    -0.257 NA
ATOM      9  C   UNL     1      -3.859   2.824  25.237  0.00  0.00    +0.121 C 
ATOM     10  C   UNL     1      -4.655   2.993  25.372  0.00  0.00    +0.090 A 
ATOM     11  C   UNL     1      -5.232   2.431  25.193  0.00  0.00    +0.077 A 
ATOM     12  C   UNL     1      -5.012   1.699  24.880  0.00  0.00    +0.073 C 
ATOM     13  C   UNL     1      -4.215   1.531  24.746  0.00  0.00    +0.144 C 
ATOM     25  N   UNL     1      -5.967   2.750  25.384  0.00  0.00    -0.227 NA
ATOM     26  C   UNL     1      -5.846   3.511  25.680  0.00  0.00    +0.198 A 
ATOM     27  N   UNL     1      -5.035   3.660  25.672  0.00  0.00    -0.226 NA
ENDROOT
BRANCH  13  14
ATOM     14  C   UNL     1      -3.996   0.800  24.433  0.00  0.00    +0.252 A 
ATOM     15  N   UNL     1      -4.006   0.078  24.832  0.00  0.00    -0.188 NA
ATOM     16  C   UNL     1      -3.745  -0.506  24.311  0.00  0.00    +0.221 A 
ATOM     17  N   UNL     1      -3.573  -0.145  23.590  0.00  0.00    -0.054 NA
ATOM     18  O   UNL     1      -3.728   0.662  23.665  0.00  0.00    -0.336 OA
BRANCH  16  19
ATOM     19  C   UNL     1      -3.669  -1.309  24.482  0.00  0.00    +0.120 A 
ATOM     20  N   UNL     1      -3.249  -1.551  25.150  0.00  0.00    -0.241 NA
ATOM     21  C   UNL     1      -3.173  -2.355  25.320  0.00  0.00    +0.099 A 
ATOM     22  C   UNL     1      -3.517  -2.916  24.823  0.00  0.00    +0.021 A 
ATOM     23  C   UNL     1      -3.937  -2.675  24.156  0.00  0.00    +0.003 A 
ATOM     24  C   UNL     1      -4.013  -1.871  23.985  0.00  0.00    +0.022 A 
ENDBRANCH  16  19
ENDBRANCH  13  14
BRANCH   8   7
ATOM      7  C   UNL     1      -2.843   1.925  24.790  0.00  0.00    +0.100 C 
BRANCH   7   6
ATOM      3  C   UNL     1      -1.142   3.706  25.037  0.00  0.00    +0.139 A 
ATOM      4  C   UNL     1      -1.522   3.596  24.313  0.00  0.00    +0.037 A 
ATOM      5  C   UNL     1      -2.089   3.002  24.231  0.00  0.00    +0.000 A 
ATOM      6  C   UNL     1      -2.276   2.518  24.873  0.00  0.00    -0.006 A 
ATOM     28  C   UNL     1      -1.896   2.629  25.597  0.00  0.00    +0.000 A 
ATOM     29  C   UNL     1      -1.329   3.223  25.679  0.00  0.00    +0.037 A 
BRANCH   3   2
ATOM      1  C   UNL     1      -0.777   5.087  24.972  0.00  0.00    +0.252 C 
ATOM      2  O   UNL     1      -0.576   4.300  25.119  0.00  0.00    -0.471 OA
ENDBRANCH   3   2
ENDBRANCH   7   6
ENDBRANCH   8   7
TORSDOF 5
ENDMDL
MODEL 2
REMARK VINA RESULT:     -10.9      2.501      5.709
REMARK  Name = 
REMARK  5 active torsions:
REMARK  status: ('A' for Active; 'I' for Inactive)
REMARK    1  A    between atoms: O_2  and  C_3
REMARK    2  A    between atoms: C_6  and  C_7
REMARK    3  A    between atoms: C_7  and  N_8
REMARK    4  A    between atoms: C_13  and  C_14
REMARK    5  A    between atoms: C_16  and  C_19
REMARK                            x       y       z     vdW  Elec       q    Type
REMARK                         _______ _______ _______ _____ _____    ______ ____
ROOT
ATOM      8  N   UNL     1      -0.874   0.546  24.735  0.00  0.00    -0.257 NA
ATOM      9  C   UNL     1      -0.695  -0.131  24.300  0.00  0.00    +0.121 C 
ATOM     10  C   UNL     1      -0.040  -0.138  23.798  0.00  0.00    +0.090 A 
ATOM     11  C   UNL     1       0.435   0.533  23.730  0.00  0.00    +0.077 A 
ATOM     12  C   UNL     1       0.255   1.211  24.166  0.00  0.00    +0.073 C 
ATOM     13  C   UNL     1      -0.400   1.217  24.667  0.00  0.00    +0.144 C 
ATOM     25  N   UNL     1       1.040   0.365  23.196  0.00  0.00    -0.227 NA
ATOM     26  C   UNL     1       0.939  -0.410  22.932  0.00  0.00    +0.198 A 
ATOM     27  N   UNL     1       0.272  -0.720  23.304  0.00  0.00    -0.226 NA
ENDROOT
BRANCH  13  14
ATOM     14  C   UNL     1      -0.579   1.895  25.102  0.00  0.00    +0.252 A 
ATOM     15  N   UNL     1      -0.959   2.569  24.816  0.00  0.00    -0.188 NA
ATOM     16  C   UNL     1      -1.024   3.108  25.437  0.00  0.00    +0.221 A 
ATOM     17  N   UNL     1      -0.684   2.768  26.107  0.00  0.00    -0.054 NA
ATOM     18  O   UNL     1      -0.409   2.017  25.900  0.00  0.00    -0.336 OA
BRANCH  16  19
ATOM     19  C   UNL     1      -1.369   3.857  25.395  0.00  0.00    +0.120 A 
ATOM     20  N   UNL     1      -2.138   3.973  25.668  0.00  0.00    -0.241 NA
ATOM     21  C   UNL     1      -2.482   4.722  25.626  0.00  0.00    +0.099 A 
ATOM     22  C   UNL     1      -2.057   5.353  25.309  0.00  0.00    +0.021 A 
ATOM     23  C   UNL     1      -1.288   5.237  25.035  0.00  0.00    +0.003 A 
ATOM     24  C   UNL     1      -0.943   4.489  25.078  0.00  0.00    +0.022 A 
ENDBRANCH  16  19
ENDBRANCH  13  14
BRANCH   8   7
ATOM      7  C   UNL     1      -1.528   0.552  25.236  0.00  0.00    +0.100 C 
BRANCH   7   6
ATOM      3  C   UNL     1      -3.132  -1.333  25.202  0.00  0.00    +0.139 A 
ATOM      4  C   UNL     1      -3.230  -0.699  24.684  0.00  0.00    +0.037 A 
ATOM      5  C   UNL     1      -2.695  -0.071  24.695  0.00  0.00    +0.000 A 
ATOM      6  C   UNL     1      -2.063  -0.076  25.225  0.00  0.00    -0.006 A 
ATOM     28  C   UNL     1      -1.966  -0.711  25.744  0.00  0.00    +0.000 A 
ATOM     29  C   UNL     1      -2.500  -1.339  25.733  0.00  0.00    +0.037 A 
BRANCH   3   2
ATOM      1  C   UNL     1      -3.601  -2.549  24.615  0.00  0.00    +0.252 C 
ATOM      2  O   UNL     1      -3.667  -1.961  25.191  0.00  0.00    -0.471 OA
ENDBRANCH   3   2
ENDBRANCH   7   6
ENDBRANCH   8   7
TORSDOF 5
ENDMDL
MODEL 3
REMARK VINA RESULT:     -10.9      1.247      4.499
REMARK  Name = 
REMARK  5 active torsions:
REMARK  status: ('A' for Active; 'I' for Inactive)
REMARK    1  A    between atoms: O_2  and  C_3
REMARK    2  A    between atoms: C_6  and  C_7
REMARK    3  A    between atoms: C_7  and  N_8
REMARK    4  A    between atoms: C_13  and  C_14
REMARK    5  A    between atoms: C_16  and  C_19
REMARK                            x       y       z     vdW  Elec       q    Type
REMARK                         _______ _______ _______ _____ _____    ______ ____
ROOT
ATOM      8  N   UNL     1      -4.200   1.248  24.807  0.00  0.00    -0.257 NA
ATOM      9  C   UNL     1      -4.886   0.923  25.128  0.00  0.00    +0.121 C 
ATOM     10  C   UNL     1      -5.476   1.417  25.427  0.00  0.00    +0.090 A 
ATOM     11  C   UNL     1      -5.379   2.236  25.403  0.00  0.00    +0.077 A 
ATOM     12  C   UNL     1      -4.692   2.561  25.081  0.00  0.00    +0.073 C 
ATOM     13  C   UNL     1      -4.103   2.067  24.783  0.00  0.00    +0.144 C 
ATOM     25  N   UNL     1      -6.049   2.582  25.736  0.00  0.00    -0.227 NA
ATOM     26  C   UNL     1      -6.561   1.977  25.966  0.00  0.00    +0.198 A 
ATOM     27  N   UNL     1      -6.206   1.257  25.774  0.00  0.00    -0.226 NA
ENDROOT
BRANCH  13  14
ATOM     14  C   UNL     1      -3.417   2.393  24.461  0.00  0.00    +0.252 A 
ATOM     15  N   UNL     1      -2.795   2.731  24.884  0.00  0.00    -0.188 NA
ATOM     16  C   UNL     1      -2.226   2.985  24.343  0.00  0.00    +0.221 A 
ATOM     17  N   UNL     1      -2.496   2.803  23.586  0.00  0.00    -0.054 NA
ATOM     18  O   UNL     1      -3.232   2.437  23.658  0.00  0.00    -0.336 OA
BRANCH  16  19
ATOM     19  C   UNL     1      -1.512   3.355  24.528  0.00  0.00    +0.120 A 
ATOM     20  N   UNL     1      -0.798   2.959  24.406  0.00  0.00    -0.241 NA
ATOM     21  C   UNL     1      -0.085   3.331  24.592  0.00  0.00    +0.099 A 
ATOM     22  C   UNL     1      -0.085   4.096  24.899  0.00  0.00    +0.021 A 
ATOM     23  C   UNL     1      -0.799   4.491  25.021  0.00  0.00    +0.003 A 
ATOM     24  C   UNL     1      -1.513   4.121  24.836  0.00  0.00    +0.022 A 
ENDBRANCH  16  19
ENDBRANCH  13  14
BRANCH   8   7
ATOM      7  C   UNL     1      -3.610   0.755  24.509  0.00  0.00    +0.100 C 
BRANCH   7   6
ATOM      3  C   UNL     1      -3.745  -1.690  24.868  0.00  0.00    +0.139 A 
ATOM      4  C   UNL     1      -3.401  -1.208  25.441  0.00  0.00    +0.037 A 
ATOM      5  C   UNL     1      -3.356  -0.393  25.321  0.00  0.00    +0.000 A 
ATOM      6  C   UNL     1      -3.655  -0.060  24.628  0.00  0.00    -0.006 A 
ATOM     28  C   UNL     1      -4.000  -0.544  24.055  0.00  0.00    +0.000 A 
ATOM     29  C   UNL     1      -4.045  -1.359  24.174  0.00  0.00    +0.037 A 
BRANCH   3   2
ATOM      1  C   UNL     1      -3.422  -3.022  24.459  0.00  0.00    +0.252 C 
ATOM      2  O   UNL     1      -3.790  -2.505  24.988  0.00  0.00    -0.471 OA
ENDBRANCH   3   2
ENDBRANCH   7   6
ENDBRANCH   8   7
TORSDOF 5
ENDMDL
MODEL 4
REMARK VINA RESULT:     -10.7      1.725      5.041
REMARK  Name = 
REMARK  5 active torsions:
REMARK  status: ('A' for Active; 'I' for Inactive)
REMARK    1  A    between atoms: O_2  and  C_3
REMARK    2  A    between atoms: C_6  and  C_7
REMARK    3  A    between atoms: C_7  and  N_8
REMARK    4  A    between atoms: C_13  and  C_14
REMARK    5  A    between atoms: C_16  and  C_19
REMARK                            x       y       z     vdW  Elec       q    Type
REMARK                         _______ _______ _______ _____ _____    ______ ____
ROOT
ATOM      8  N   UNL     1      -2.419   0.521  24.297  0.00  0.00    -0.257 NA
ATOM      9  C   UNL     1      -1.767   0.017  24.338  0.00  0.00    +0.121 C 
ATOM     10  C   UNL     1      -1.011   0.306  24.180  0.00  0.00    +0.090 A 
ATOM     11  C   UNL     1      -0.906   1.100  23.982  0.00  0.00    +0.077 A 
ATOM     12  C   UNL     1      -1.558   1.605  23.941  0.00  0.00    +0.073 C 
ATOM     13  C   UNL     1      -2.314   1.315  24.098  0.00  0.00    +0.144 C 
ATOM     25  N   UNL     1      -0.101   1.228  23.857  0.00  0.00    -0.227 NA
ATOM     26  C   UNL     1       0.292   0.513  23.978  0.00  0.00    +0.198 A 
ATOM     27  N   UNL     1      -0.270  -0.056  24.178  0.00  0.00    -0.226 NA
ENDROOT
BRANCH  13  14
ATOM     14  C   UNL     1      -2.965   1.820  24.057  0.00  0.00    +0.252 A 
ATOM     15  N   UNL     1      -3.359   2.158  24.698  0.00  0.00    -0.188 NA
ATOM     16  C   UNL     1      -3.975   2.622  24.404  0.00  0.00    +0.221 A 
ATOM     17  N   UNL     1      -3.960   2.572  23.581  0.00  0.00    -0.054 NA
ATOM     18  O   UNL     1      -3.336   2.076  23.366  0.00  0.00    -0.336 OA
BRANCH  16  19
ATOM     19  C   UNL     1      -4.509   3.060  24.855  0.00  0.00    +0.120 A 
ATOM     20  N   UNL     1      -4.355   3.853  25.023  0.00  0.00    -0.241 NA
ATOM     21  C   UNL     1      -4.891   4.290  25.474  0.00  0.00    +0.099 A 
ATOM     22  C   UNL     1      -5.579   3.934  25.756  0.00  0.00    +0.021 A 
ATOM     23  C   UNL     1      -5.733   3.142  25.587  0.00  0.00    +0.003 A 
ATOM     24  C   UNL     1      -5.199   2.704  25.136  0.00  0.00    +0.022 A 
ENDBRANCH  16  19
ENDBRANCH  13  14
BRANCH   8   7
ATOM      7  C   UNL     1      -3.174   0.232  24.454  0.00  0.00    +0.100 C 
BRANCH   7   6
ATOM      3  C   UNL     1      -3.501  -2.169  24.956  0.00  0.00    +0.139 A 
ATOM      4  C   UNL     1      -3.571  -1.897  24.181  0.00  0.00    +0.037 A 
ATOM      5  C   UNL     1      -3.462  -1.097  24.013  0.00  0.00    +0.000 A 
ATOM      6  C   UNL     1      -3.283  -0.568  24.621  0.00  0.00    -0.006 A 
ATOM     28  C   UNL     1      -3.212  -0.841  25.397  0.00  0.00    +0.000 A 
ATOM     29  C   UNL     1      -3.321  -1.642  25.564  0.00  0.00    +0.037 A 
BRANCH   3   2
ATOM      1  C   UNL     1      -3.507  -3.534  24.529  0.00  0.00    +0.252 C 
ATOM      2  O   UNL     1      -3.609  -2.970  25.123  0.00  0.00    -0.471 OA
ENDBRANCH   3   2
ENDBRANCH   7   6
ENDBRANCH   8   7
TORSDOF 5
ENDMDL
MODEL 5
REMARK VINA RESULT:     -10.4      2.309      3.527
REMARK  Name = 
REMARK  5 active torsions:
REMARK  status: ('A' for Active; 'I' for Inactive)
REMARK    1  A    between atoms: O_2  and  C_3
REMARK    2  A    between atoms: C_6  and  C_7
REMARK    3  A    between atoms: C_7  and  N_8
REMARK    4  A    between atoms: C_13  and  C_14
REMARK    5  A    between atoms: C_16  and  C_19
REMARK                            x       y       z     vdW  Elec       q    Type
REMARK                         _______ _______ _______ _____ _____    ______ ____
ROOT
ATOM      8  N   UNL     1      -0.723   1.004  24.766  0.00  0.00    -0.257 NA
ATOM      9  C   UNL     1      -0.117   1.503  24.516  0.00  0.00    +0.121 C 
ATOM     10  C   UNL     1       0.496   1.208  24.050  0.00  0.00    +0.090 A 
ATOM     11  C   UNL     1       0.502   0.412  23.833  0.00  0.00    +0.077 A 
ATOM     12  C   UNL     1      -0.106  -0.089  24.082  0.00  0.00    +0.073 C 
ATOM     13  C   UNL     1      -0.718   0.208  24.549  0.00  0.00    +0.144 C 
ATOM     25  N   UNL     1       1.173   0.277  23.373  0.00  0.00    -0.227 NA
ATOM     26  C   UNL     1       1.582   0.990  23.305  0.00  0.00    +0.198 A 
ATOM     27  N   UNL     1       1.164   1.564  23.724  0.00  0.00    -0.226 NA
ENDROOT
BRANCH  13  14
ATOM     14  C   UNL     1      -1.325  -0.292  24.798  0.00  0.00    +0.252 A 
ATOM     15  N   UNL     1      -1.892  -0.645  24.315  0.00  0.00    -0.188 NA
ATOM     16  C   UNL     1      -2.389  -1.098  24.794  0.00  0.00    +0.221 A 
ATOM     17  N   UNL     1      -2.129  -1.025  25.572  0.00  0.00    -0.054 NA
ATOM     18  O   UNL     1      -1.471  -0.526  25.576  0.00  0.00    -0.336 OA
BRANCH  16  19
ATOM     19  C   UNL     1      -3.033  -1.546  24.537  0.00  0.00    +0.120 A 
ATOM     20  N   UNL     1      -3.018  -2.368  24.606  0.00  0.00    -0.241 NA
ATOM     21  C   UNL     1      -3.663  -2.815  24.349  0.00  0.00    +0.099 A 
ATOM     22  C   UNL     1      -4.321  -2.440  24.024  0.00  0.00    +0.021 A 
ATOM     23  C   UNL     1      -4.336  -1.618  23.955  0.00  0.00    +0.003 A 
ATOM     24  C   UNL     1      -3.692  -1.170  24.211  0.00  0.00    +0.022 A 
ENDBRANCH  16  19
ENDBRANCH  13  14
BRANCH   8   7
ATOM      7  C   UNL     1      -1.336   1.300  25.232  0.00  0.00    +0.100 C 
BRANCH   7   6
ATOM      3  C   UNL     1      -1.662   3.745  25.439  0.00  0.00    +0.139 A 
ATOM      4  C   UNL     1      -2.031   3.330  24.830  0.00  0.00    +0.037 A 
ATOM      5  C   UNL     1      -1.922   2.515  24.761  0.00  0.00    +0.000 A 
ATOM      6  C   UNL     1      -1.444   2.115  25.301  0.00  0.00    -0.006 A 
ATOM     28  C   UNL     1      -1.075   2.531  25.911  0.00  0.00    +0.000 A 
ATOM     29  C   UNL     1      -1.183   3.346  25.980  0.00  0.00    +0.037 A 
BRANCH   3   2
ATOM      1  C   UNL     1      -1.298   5.078  25.072  0.00  0.00    +0.252 C 
ATOM      2  O   UNL     1      -1.771   4.560  25.508  0.00  0.00    -0.471 OA
ENDBRANCH   3   2
ENDBRANCH   7   6
ENDBRANCH   8   7
TORSDOF 5
ENDMDL
MODEL 6
REMARK VINA RESULT:     -10.3      1.784      3.121
REMARK  Name = 
REMARK  5 active torsions:
REMARK  status: ('A' for Active; 'I' for Inactive)
REMARK    1  A    between atoms: O_2  and  C_3
REMARK    2  A    between atoms: C_6  and  C_7
REMARK    3  A    between atoms: C_7  and  N_8
REMARK    4  A    between atoms: C_13  and  C_14
REMARK    5  A    between atoms: C_16  and  C_19
REMARK                            x       y       z     vdW  Elec       q    Type
REMARK                         _______ _______ _______ _____ _____    ______ ____
ROOT
ATOM      8  N   UNL     1      -2.154   1.566  24.770  0.00  0.00    -0.257 NA
ATOM      9  C   UNL     1      -1.811   2.290  24.577  0.00  0.00    +0.121 C 
ATOM     10  C   UNL     1      -0.996   2.342  24.459  0.00  0.00    +0.090 A 
ATOM     11  C   UNL     1      -0.525   1.669  24.533  0.00  0.00    +0.077 A 
ATOM     12  C   UNL     1      -0.869   0.943  24.726  0.00  0.00    +0.073 C 
ATOM     13  C   UNL     1      -1.683   0.893  24.844  0.00  0.00    +0.144 C 
ATOM     25  N   UNL     1       0.257   1.886  24.385  0.00  0.00    -0.227 NA
ATOM     26  C   UNL     1       0.269   2.694  24.219  0.00  0.00    +0.198 A 
ATOM     27  N   UNL     1      -0.505   2.975  24.265  0.00  0.00    -0.226 NA
ENDROOT
BRANCH  13  14
ATOM     14  C   UNL     1      -2.027   0.168  25.037  0.00  0.00    +0.252 A 
ATOM     15  N   UNL     1      -2.415  -0.340  24.516  0.00  0.00    -0.188 NA
ATOM     16  C   UNL     1      -2.670  -0.998  24.942  0.00  0.00    +0.221 A 
ATOM     17  N   UNL     1      -2.439  -0.898  25.727  0.00  0.00    -0.054 NA
ATOM     18  O   UNL     1      -2.041  -0.177  25.787  0.00  0.00    -0.336 OA
BRANCH  16  19
ATOM     19  C   UNL     1      -3.084  -1.644  24.636  0.00  0.00    +0.120 A 
ATOM     20  N   UNL     1      -2.782  -2.406  24.723  0.00  0.00    -0.241 NA
ATOM     21  C   UNL     1      -3.196  -3.051  24.416  0.00  0.00    +0.099 A 
ATOM     22  C   UNL     1      -3.912  -2.933  24.024  0.00  0.00    +0.021 A 
ATOM     23  C   UNL     1      -4.214  -2.170  23.937  0.00  0.00    +0.003 A 
ATOM     24  C   UNL     1      -3.800  -1.525  24.243  0.00  0.00    +0.022 A 
ENDBRANCH  16  19
ENDBRANCH  13  14
BRANCH   8   7
ATOM      7  C   UNL     1      -2.968   1.514  24.889  0.00  0.00    +0.100 C 
BRANCH   7   6
ATOM      3  C   UNL     1      -4.337   3.574  24.984  0.00  0.00    +0.139 A 
ATOM      4  C   UNL     1      -3.935   3.316  25.655  0.00  0.00    +0.037 A 
ATOM      5  C   UNL     1      -3.478   2.629  25.623  0.00  0.00    +0.000 A 
ATOM      6  C   UNL     1      -3.425   2.201  24.920  0.00  0.00    -0.006 A 
ATOM     28  C   UNL     1      -3.828   2.460  24.248  0.00  0.00    +0.000 A 
ATOM     29  C   UNL     1      -4.285   3.147  24.280  0.00  0.00    +0.037 A 
BRANCH   3   2
ATOM      1  C   UNL     1      -5.509   4.262  25.427  0.00  0.00    +0.252 C 
ATOM      2  O   UNL     1      -4.794   4.261  25.015  0.00  0.00    -0.471 OA
ENDBRANCH   3   2
ENDBRANCH   7   6
ENDBRANCH   8   7
TORSDOF 5
ENDMDL
MODEL 7
REMARK VINA RESULT:      -9.8      1.939      3.414
REMARK  Name = 
REMARK  5 active torsions:
REMARK  status: ('A' for Active; 'I' for Inactive)
REMARK    1  A    between atoms: O_2  and  C_3
REMARK    2  A    between atoms: C_6  and  C_7
REMARK    3  A    between atoms: C_7  and  N_8
REMARK    4  A    between atoms: C_13  and  C_14
REMARK    5  A    between atoms: C_16  and  C_19
REMARK                            x       y       z     vdW  Elec       q    Type
REMARK                         _______ _______ _______ _____ _____    ______ ____
ROOT
ATOM      8  N   UNL     1      -2.392   2.419  24.431  0.00  0.00    -0.257 NA
ATOM      9  C   UNL     1      -2.614   3.185  24.643  0.00  0.00    +0.121 C 
ATOM     10  C   UNL     1      -2.041   3.730  24.880  0.00  0.00    +0.090 A 
ATOM     11  C   UNL     1      -1.247   3.509  24.905  0.00  0.00    +0.077 A 
ATOM     12  C   UNL     1      -1.025   2.742  24.692  0.00  0.00    +0.073 C 
ATOM     13  C   UNL     1      -1.598   2.198  24.455  0.00  0.00    +0.144 C 
ATOM     25  N   UNL     1      -0.809   4.159  25.159  0.00  0.00    -0.227 NA
ATOM     26  C   UNL     1      -1.332   4.783  25.291  0.00  0.00    +0.198 A 
ATOM     27  N   UNL     1      -2.093   4.517  25.119  0.00  0.00    -0.226 NA
ENDROOT
BRANCH  13  14
ATOM     14  C   UNL     1      -1.375   1.433  24.243  0.00  0.00    +0.252 A 
ATOM     15  N   UNL     1      -1.395   0.768  24.730  0.00  0.00    -0.188 NA
ATOM     16  C   UNL     1      -1.126   0.122  24.294  0.00  0.00    +0.221 A 
ATOM     17  N   UNL     1      -0.939   0.387  23.536  0.00  0.00    -0.054 NA
ATOM     18  O   UNL     1      -1.093   1.198  23.503  0.00  0.00    -0.336 OA
BRANCH  16  19
ATOM     19  C   UNL     1      -1.056  -0.653  24.568  0.00  0.00    +0.120 A 
ATOM     20  N   UNL     1      -0.346  -0.911  24.899  0.00  0.00    -0.241 NA
ATOM     21  C   UNL     1      -0.276  -1.686  25.173  0.00  0.00    +0.099 A 
ATOM     22  C   UNL     1      -0.917  -2.203  25.116  0.00  0.00    +0.021 A 
ATOM     23  C   UNL     1      -1.626  -1.945  24.784  0.00  0.00    +0.003 A 
ATOM     24  C   UNL     1      -1.697  -1.170  24.510  0.00  0.00    +0.022 A 
ENDBRANCH  16  19
ENDBRANCH  13  14
BRANCH   8   7
ATOM      7  C   UNL     1      -2.964   1.875  24.194  0.00  0.00    +0.100 C 
BRANCH   7   6
ATOM      3  C   UNL     1      -5.316   2.163  24.908  0.00  0.00    +0.139 A 
ATOM      4  C   UNL     1      -4.806   1.691  25.351  0.00  0.00    +0.037 A 
ATOM      5  C   UNL     1      -4.022   1.595  25.113  0.00  0.00    +0.000 A 
ATOM      6  C   UNL     1      -3.748   1.971  24.432  0.00  0.00    -0.006 A 
ATOM     28  C   UNL     1      -4.260   2.444  23.988  0.00  0.00    +0.000 A 
ATOM     29  C   UNL     1      -5.044   2.540  24.226  0.00  0.00    +0.037 A 
BRANCH   3   2
ATOM      1  C   UNL     1      -6.287   2.291  25.950  0.00  0.00    +0.252 C 
ATOM      2  O   UNL     1      -6.100   2.259  25.146  0.00  0.00    -0.471 OA
ENDBRANCH   3   2
ENDBRANCH   7   6
ENDBRANCH   8   7
TORSDOF 5
ENDMDL
