MODEL 1
REMARK VINA RESULT:     -11.8      0.000      0.000
REMARK  Name = 
REMARK  8 active torsions:
REMARK  status: ('A' for Active; 'I' for Inactive)
REMARK    1  A    between atoms: N_3  and  C_4
REMARK    2  A    between atoms: C_4  and  C_5
REMARK    3  A    between atoms: C_12  and  C_13
REMARK    4  A    between atoms: C_13  and  N_14
REMARK    5  A    between atoms: C_17  and  C_18
REMARK    6  A    between atoms: C_18  and  C_19
REMARK    7  A    between atoms: N_27  and  C_28
REMARK    8  A    between atoms: C_30  and  C_34
REMARK                            x       y       z     vdW  Elec       q    Type
REMARK                         _______ _______ _______ _____ _____    ______ ____
ROOT
ATOM      5  C   UNL     1      -5.330   1.082  24.934  0.00  0.00    +0.079 C 
ATOM      6  C   UNL     1      -5.765   1.650  25.241  0.00  0.00    +0.018 C 
ATOM      7  C   UNL     1      -5.528   2.415  25.360  0.00  0.00    +0.005 C 
ATOM      8  C   UNL     1      -6.177   2.913  25.726  0.00  0.00    +0.017 C 
ATOM      9  C   UNL     1      -5.910   2.368  25.484  0.00  0.00    +0.072 C 
ATOM     10  N   UNL     1      -5.096   1.864  25.057  0.00  0.00    -0.272 NA
ATOM     11  C   UNL     1      -4.311   2.299  24.891  0.00  0.00    +0.073 C 
ATOM     12  C   UNL     1      -4.770   2.827  25.197  0.00  0.00    +0.032 C 
ENDROOT
BRANCH   5   4
ATOM      4  C   UNL     1      -5.203   0.308  24.682  0.00  0.00    +0.133 C 
BRANCH   4   3
ATOM      1  O   UNL     1      -4.059  -0.700  24.051  0.00  0.00    -0.249 OA
ATOM      2  C   UNL     1      -4.236  -0.729  24.856  0.00  0.00    +0.344 C 
ATOM      3  N   UNL     1      -4.808  -0.226  25.172  0.00  0.00    -0.185 NA
ATOM     27  N   UNL     1      -3.840  -1.263  25.347  0.00  0.00    -0.161 NA
BRANCH  27  28
ATOM     28  C   UNL     1      -3.268  -1.766  25.031  0.00  0.00    +0.076 A 
ATOM     29  C   UNL     1      -2.469  -1.565  25.079  0.00  0.00    +0.027 A 
ATOM     30  C   UNL     1      -1.897  -2.068  24.764  0.00  0.00    +0.070 A 
ATOM     31  C   UNL     1      -2.123  -2.773  24.400  0.00  0.00    +0.010 A 
ATOM     32  C   UNL     1      -2.921  -2.975  24.352  0.00  0.00    +0.002 A 
ATOM     33  C   UNL     1      -3.494  -2.471  24.667  0.00  0.00    +0.017 A 
BRANCH  30  34
ATOM     34  C   UNL     1      -1.098  -1.866  24.812  0.00  0.00    +0.100 C 
ATOM     35  N   UNL     1      -0.300  -1.665  24.860  0.00  0.00    -0.191 NA
ENDBRANCH  30  34
ENDBRANCH  27  28
ENDBRANCH   4   3
ENDBRANCH   5   4
BRANCH  12  13
ATOM     13  C   UNL     1      -4.592   3.619  25.344  0.00  0.00    +0.073 C 
BRANCH  13  14
ATOM     14  N   UNL     1      -3.806   3.872  25.339  0.00  0.00    -0.273 NA
ATOM     15  C   UNL     1      -3.380   3.905  26.044  0.00  0.00    +0.072 C 
ATOM     16  C   UNL     1      -2.594   4.158  26.039  0.00  0.00    +0.018 C 
ATOM     17  C   UNL     1      -2.236   4.378  25.329  0.00  0.00    +0.007 C 
ATOM     25  C   UNL     1      -2.663   4.345  24.624  0.00  0.00    +0.018 C 
ATOM     26  C   UNL     1      -3.449   4.092  24.629  0.00  0.00    +0.072 C 
BRANCH  17  18
ATOM     18  C   UNL     1      -1.451   4.631  25.324  0.00  0.00    +0.026 C 
BRANCH  18  19
ATOM     19  C   UNL     1      -0.848   4.101  25.131  0.00  0.00    -0.022 A 
ATOM     20  C   UNL     1      -0.516   4.112  24.376  0.00  0.00    -0.004 A 
ATOM     21  C   UNL     1       0.087   3.583  24.183  0.00  0.00    -0.000 A 
ATOM     22  C   UNL     1       0.357   3.042  24.745  0.00  0.00    -0.000 A 
ATOM     23  C   UNL     1       0.024   3.031  25.499  0.00  0.00    -0.000 A 
ATOM     24  C   UNL     1      -0.579   3.561  25.692  0.00  0.00    -0.004 A 
ENDBRANCH  18  19
ENDBRANCH  17  18
ENDBRANCH  13  14
ENDBRANCH  12  13
TORSDOF 8
ENDMDL
MODEL 2
REMARK VINA RESULT:     -11.6      1.264      4.847
REMARK  Name = 
REMARK  8 active torsions:
REMARK  status: ('A' for Active; 'I' for Inactive)
REMARK    1  A    between atoms: N_3  and  C_4
REMARK    2  A    between atoms: C_4  and  C_5
REMARK    3  A    between atoms: C_12  and  C_13
REMARK    4  A    between atoms: C_13  and  N_14
REMARK    5  A    between atoms: C_17  and  C_18
REMARK    6  A    between atoms: C_18  and  C_19
REMARK    7  A    between atoms: N_27  and  C_28
REMARK    8  A    between atoms: C_30  and  C_34
REMARK                            x       y       z     vdW  Elec       q    Type
REMARK                         _______ _______ _______ _____ _____    ______ ____
ROOT
ATOM      5  C   UNL     1      -4.864   2.804  24.736  0.00  0.00    +0.079 C 
ATOM      6  C   UNL     1      -5.500   2.421  24.969  0.00  0.00    +0.018 C 
ATOM      7  C   UNL     1      -5.577   1.616  25.008  0.00  0.00    +0.005 C 
ATOM      8  C   UNL     1      -6.389   1.372  25.302  0.00  0.00    +0.017 C 
ATOM      9  C   UNL     1      -5.920   1.793  25.129  0.00  0.00    +0.072 C 
ATOM     10  N   UNL     1      -4.951   1.984  24.779  0.00  0.00    -0.272 NA
ATOM     11  C   UNL     1      -4.380   1.299  24.584  0.00  0.00    +0.073 C 
ATOM     12  C   UNL     1      -5.023   0.962  24.819  0.00  0.00    +0.032 C 
ENDROOT
BRANCH   5   4
ATOM      4  C   UNL     1      -4.437   3.491  24.574  0.00  0.00    +0.133 C 
BRANCH   4   3
ATOM      1  O   UNL     1      -2.830   3.652  24.239  0.00  0.00    -0.249 OA
ATOM      2  C   UNL     1      -3.123   3.883  24.975  0.00  0.00    +0.344 C 
ATOM      3  N   UNL     1      -3.926   3.803  25.142  0.00  0.00    -0.185 NA
ATOM     27  N   UNL     1      -2.612   4.196  25.543  0.00  0.00    -0.161 NA
BRANCH  27  28
ATOM     28  C   UNL     1      -1.809   4.276  25.375  0.00  0.00    +0.076 A 
ATOM     29  C   UNL     1      -1.296   3.641  25.497  0.00  0.00    +0.027 A 
ATOM     30  C   UNL     1      -0.493   3.721  25.329  0.00  0.00    +0.070 A 
ATOM     31  C   UNL     1      -0.201   4.436  25.039  0.00  0.00    +0.010 A 
ATOM     32  C   UNL     1      -0.713   5.071  24.918  0.00  0.00    +0.002 A 
ATOM     33  C   UNL     1      -1.517   4.991  25.086  0.00  0.00    +0.017 A 
BRANCH  30  34
ATOM     34  C   UNL     1       0.020   3.086  25.451  0.00  0.00    +0.100 C 
ATOM     35  N   UNL     1       0.532   2.451  25.572  0.00  0.00    -0.191 NA
ENDBRANCH  30  34
ENDBRANCH  27  28
ENDBRANCH   4   3
ENDBRANCH   5   4
BRANCH  12  13
ATOM     13  C   UNL     1      -5.168   0.151  24.881  0.00  0.00    +0.073 C 
BRANCH  13  14
ATOM     14  N   UNL     1      -4.536  -0.380  24.892  0.00  0.00    -0.273 NA
ATOM     15  C   UNL     1      -4.142  -0.538  25.598  0.00  0.00    +0.072 C 
ATOM     16  C   UNL     1      -3.510  -1.070  25.608  0.00  0.00    +0.018 C 
ATOM     17  C   UNL     1      -3.274  -1.442  24.911  0.00  0.00    +0.007 C 
ATOM     25  C   UNL     1      -3.668  -1.283  24.204  0.00  0.00    +0.018 C 
ATOM     26  C   UNL     1      -4.300  -0.752  24.195  0.00  0.00    +0.072 C 
BRANCH  17  18
ATOM     18  C   UNL     1      -2.643  -1.973  24.921  0.00  0.00    +0.026 C 
BRANCH  18  19
ATOM     19  C   UNL     1      -1.868  -1.694  24.867  0.00  0.00    -0.022 A 
ATOM     20  C   UNL     1      -1.484  -1.680  24.137  0.00  0.00    -0.004 A 
ATOM     21  C   UNL     1      -0.709  -1.401  24.084  0.00  0.00    -0.000 A 
ATOM     22  C   UNL     1      -0.319  -1.136  24.761  0.00  0.00    -0.000 A 
ATOM     23  C   UNL     1      -0.703  -1.151  25.490  0.00  0.00    -0.000 A 
ATOM     24  C   UNL     1      -1.478  -1.430  25.544  0.00  0.00    -0.004 A 
ENDBRANCH  18  19
ENDBRANCH  17  18
ENDBRANCH  13  14
ENDBRANCH  12  13
TORSDOF 8
ENDMDL
MODEL 3
REMARK VINA RESULT:     -11.6      2.955      5.757
REMARK  Name = 
REMARK  8 active torsions:
REMARK  status: ('A' for Active; 'I' for Inactive)
REMARK    1  A    between atoms: N_3  and  C_4
REMARK    2  A    between atoms: C_4  and  C_5
REMARK    3  A    between atoms: C_12  and  C_13
REMARK    4  A    between atoms: C_13  and  N_14
REMARK    5  A    between atoms: C_17  and  C_18
REMARK    6  A    between atoms: C_18  and  C_19
REMARK    7  A    between atoms: N_27  and  C_28
REMARK    8  A    between atoms: C_30  and  C_34
REMARK                            x       y       z     vdW  Elec       q    Type
REMARK                         _______ _______ _______ _____ _____    ______ ____
ROOT
ATOM      5  C   UNL     1      -0.244  -0.451  23.947  0.00  0.00    +0.079 C 
ATOM      6  C   UNL     1      -0.493  -1.126  24.242  0.00  0.00    +0.018 C 
ATOM      7  C   UNL     1      -1.245  -1.278  24.501  0.00  0.00    +0.005 C 
ATOM      8  C   UNL     1      -1.330  -2.118  24.805  0.00  0.00    +0.017 C 
ATOM      9  C   UNL     1      -1.014  -1.607  24.547  0.00  0.00    +0.072 C 
ATOM     10  N   UNL     1      -1.008  -0.614  24.212  0.00  0.00    -0.272 NA
ATOM     11  C   UNL     1      -1.763  -0.103  24.249  0.00  0.00    +0.073 C 
ATOM     12  C   UNL     1      -1.968  -0.782  24.533  0.00  0.00    +0.032 C 
ENDROOT
BRANCH   5   4
ATOM      4  C   UNL     1       0.333   0.042  23.623  0.00  0.00    +0.133 C 
BRANCH   4   3
ATOM      1  O   UNL     1       1.805   0.786  23.648  0.00  0.00    -0.249 OA
ATOM      2  C   UNL     1       1.702   0.089  23.218  0.00  0.00    +0.344 C 
ATOM      3  N   UNL     1       0.966  -0.282  23.205  0.00  0.00    -0.185 NA
ATOM     27  N   UNL     1       2.336  -0.236  22.801  0.00  0.00    -0.161 NA
BRANCH  27  28
ATOM     28  C   UNL     1       3.072   0.136  22.814  0.00  0.00    +0.076 A 
ATOM     29  C   UNL     1       3.698  -0.203  23.231  0.00  0.00    +0.027 A 
ATOM     30  C   UNL     1       4.434   0.168  23.244  0.00  0.00    +0.070 A 
ATOM     31  C   UNL     1       4.545   0.879  22.840  0.00  0.00    +0.010 A 
ATOM     32  C   UNL     1       3.919   1.219  22.424  0.00  0.00    +0.002 A 
ATOM     33  C   UNL     1       3.182   0.847  22.410  0.00  0.00    +0.017 A 
BRANCH  30  34
ATOM     34  C   UNL     1       5.061  -0.171  23.660  0.00  0.00    +0.100 C 
ATOM     35  N   UNL     1       5.686  -0.510  24.077  0.00  0.00    -0.191 NA
ENDBRANCH  30  34
ENDBRANCH  27  28
ENDBRANCH   4   3
ENDBRANCH   5   4
BRANCH  12  13
ATOM     13  C   UNL     1      -2.713  -1.002  24.812  0.00  0.00    +0.073 C 
BRANCH  13  14
ATOM     14  N   UNL     1      -3.331  -0.455  24.813  0.00  0.00    -0.273 NA
ATOM     15  C   UNL     1      -3.721  -0.273  24.110  0.00  0.00    +0.072 C 
ATOM     16  C   UNL     1      -4.339   0.275  24.112  0.00  0.00    +0.018 C 
ATOM     17  C   UNL     1      -4.565   0.639  24.816  0.00  0.00    +0.007 C 
ATOM     25  C   UNL     1      -4.174   0.457  25.520  0.00  0.00    +0.018 C 
ATOM     26  C   UNL     1      -3.557  -0.090  25.518  0.00  0.00    +0.072 C 
BRANCH  17  18
ATOM     18  C   UNL     1      -5.183   1.186  24.818  0.00  0.00    +0.026 C 
BRANCH  18  19
ATOM     19  C   UNL     1      -5.024   1.987  24.939  0.00  0.00    -0.022 A 
ATOM     20  C   UNL     1      -5.287   2.360  25.627  0.00  0.00    -0.004 A 
ATOM     21  C   UNL     1      -5.128   3.161  25.748  0.00  0.00    -0.000 A 
ATOM     22  C   UNL     1      -4.708   3.588  25.181  0.00  0.00    -0.000 A 
ATOM     23  C   UNL     1      -4.446   3.215  24.494  0.00  0.00    -0.000 A 
ATOM     24  C   UNL     1      -4.604   2.414  24.373  0.00  0.00    -0.004 A 
ENDBRANCH  18  19
ENDBRANCH  17  18
ENDBRANCH  13  14
ENDBRANCH  12  13
TORSDOF 8
ENDMDL
MODEL 4
REMARK VINA RESULT:     -11.4      1.238      3.956
REMARK  Name = 
REMARK  8 active torsions:
REMARK  status: ('A' for Active; 'I' for Inactive)
REMARK    1  A    between atoms: N_3  and  C_4
REMARK    2  A    between atoms: C_4  and  C_5
REMARK    3  A    between atoms: C_12  and  C_13
REMARK    4  A    between atoms: C_13  and  N_14
REMARK    5  A    between atoms: C_17  and  C_18
REMARK    6  A    between atoms: C_18  and  C_19
REMARK    7  A    between atoms: N_27  and  C_28
REMARK    8  A    between atoms: C_30  and  C_34
REMARK                            x       y       z     vdW  Elec       q    Type
REMARK                         _______ _______ _______ _____ _____    ______ ____
ROOT
ATOM      5  C   UNL     1      -0.335   1.750  24.897  0.00  0.00    +0.079 C 
ATOM      6  C   UNL     1      -0.111   2.476  25.063  0.00  0.00    +0.018 C 
ATOM      7  C   UNL     1      -0.601   3.118  25.124  0.00  0.00    +0.005 C 
ATOM      8  C   UNL     1      -0.147   3.866  25.324  0.00  0.00    +0.017 C 
ATOM      9  C   UNL     1      -0.218   3.230  25.193  0.00  0.00    +0.072 C 
ATOM     10  N   UNL     1      -0.828   2.409  24.960  0.00  0.00    -0.272 NA
ATOM     11  C   UNL     1      -1.730   2.509  24.866  0.00  0.00    +0.073 C 
ATOM     12  C   UNL     1      -1.469   3.207  25.031  0.00  0.00    +0.032 C 
ENDROOT
BRANCH   5   4
ATOM      4  C   UNL     1      -0.193   0.949  24.762  0.00  0.00    +0.133 C 
BRANCH   4   3
ATOM      1  O   UNL     1      -0.839  -0.396  24.056  0.00  0.00    -0.249 OA
ATOM      2  C   UNL     1      -0.892  -0.293  24.873  0.00  0.00    +0.344 C 
ATOM      3  N   UNL     1      -0.570   0.379  25.226  0.00  0.00    -0.185 NA
ATOM     27  N   UNL     1      -1.269  -0.862  25.337  0.00  0.00    -0.161 NA
BRANCH  27  28
ATOM     28  C   UNL     1      -1.592  -1.534  24.984  0.00  0.00    +0.076 A 
ATOM     29  C   UNL     1      -2.393  -1.552  24.788  0.00  0.00    +0.027 A 
ATOM     30  C   UNL     1      -2.716  -2.224  24.435  0.00  0.00    +0.070 A 
ATOM     31  C   UNL     1      -2.238  -2.877  24.277  0.00  0.00    +0.010 A 
ATOM     32  C   UNL     1      -1.437  -2.859  24.473  0.00  0.00    +0.002 A 
ATOM     33  C   UNL     1      -1.113  -2.187  24.826  0.00  0.00    +0.017 A 
BRANCH  30  34
ATOM     34  C   UNL     1      -3.517  -2.243  24.239  0.00  0.00    +0.100 C 
ATOM     35  N   UNL     1      -4.318  -2.261  24.043  0.00  0.00    -0.191 NA
ENDBRANCH  30  34
ENDBRANCH  27  28
ENDBRANCH   4   3
ENDBRANCH   5   4
BRANCH  12  13
ATOM     13  C   UNL     1      -1.911   3.900  25.108  0.00  0.00    +0.073 C 
BRANCH  13  14
ATOM     14  N   UNL     1      -2.733   3.859  25.173  0.00  0.00    -0.273 NA
ATOM     15  C   UNL     1      -3.088   3.883  25.916  0.00  0.00    +0.072 C 
ATOM     16  C   UNL     1      -3.911   3.842  25.981  0.00  0.00    +0.018 C 
ATOM     17  C   UNL     1      -4.375   3.778  25.303  0.00  0.00    +0.007 C 
ATOM     25  C   UNL     1      -4.019   3.755  24.559  0.00  0.00    +0.018 C 
ATOM     26  C   UNL     1      -3.197   3.795  24.495  0.00  0.00    +0.072 C 
BRANCH  17  18
ATOM     18  C   UNL     1      -5.196   3.737  25.367  0.00  0.00    +0.026 C 
BRANCH  18  19
ATOM     19  C   UNL     1      -5.567   3.006  25.459  0.00  0.00    -0.022 A 
ATOM     20  C   UNL     1      -5.807   2.756  26.209  0.00  0.00    -0.004 A 
ATOM     21  C   UNL     1      -6.178   2.025  26.300  0.00  0.00    -0.000 A 
ATOM     22  C   UNL     1      -6.309   1.544  25.643  0.00  0.00    -0.000 A 
ATOM     23  C   UNL     1      -6.069   1.793  24.895  0.00  0.00    -0.000 A 
ATOM     24  C   UNL     1      -5.698   2.525  24.803  0.00  0.00    -0.004 A 
ENDBRANCH  18  19
ENDBRANCH  17  18
ENDBRANCH  13  14
ENDBRANCH  12  13
TORSDOF 8
ENDMDL
MODEL 5
REMARK VINA RESULT:     -11.1      1.480      5.993
REMARK  Name = 
REMARK  8 active torsions:
REMARK  status: ('A' for Active; 'I' for Inactive)
REMARK    1  A    between atoms: N_3  and  C_4
REMARK    2  A    between atoms: C_4  and  C_5
REMARK    3  A    between atoms: C_12  and  C_13
REMARK    4  A    between atoms: C_13  and  N_14
REMARK    5  A    between atoms: C_17  and  C_18
REMARK    6  A    between atoms: C_18  and  C_19
REMARK    7  A    between atoms: N_27  and  C_28
REMARK    8  A    between atoms: C_30  and  C_34
REMARK                            x       y       z     vdW  Elec       q    Type
REMARK                         _______ _______ _______ _____ _____    ______ ____
ROOT
ATOM      5  C   UNL     1      -0.827   2.701  24.797  0.00  0.00    +0.079 C 
ATOM      6  C   UNL     1      -0.158   2.482  24.464  0.00  0.00    +0.018 C 
ATOM      7  C   UNL     1       0.104   1.720  24.389  0.00  0.00    +0.005 C 
ATOM      8  C   UNL     1       0.898   1.680  23.975  0.00  0.00    +0.017 C 
ATOM      9  C   UNL     1       0.373   1.975  24.227  0.00  0.00    +0.072 C 
ATOM     10  N   UNL     1      -0.553   1.927  24.716  0.00  0.00    -0.272 NA
ATOM     11  C   UNL     1      -0.908   1.124  24.968  0.00  0.00    +0.073 C 
ATOM     12  C   UNL     1      -0.243   0.952  24.633  0.00  0.00    +0.032 C 
ENDROOT
BRANCH   5   4
ATOM      4  C   UNL     1      -1.378   3.264  25.040  0.00  0.00    +0.133 C 
BRANCH   4   3
ATOM      1  O   UNL     1      -2.860   3.216  25.763  0.00  0.00    -0.249 OA
ATOM      2  C   UNL     1      -2.800   3.370  24.955  0.00  0.00    +0.344 C 
ATOM      3  N   UNL     1      -2.060   3.394  24.593  0.00  0.00    -0.185 NA
ATOM     27  N   UNL     1      -3.482   3.500  24.508  0.00  0.00    -0.161 NA
BRANCH  27  28
ATOM     28  C   UNL     1      -4.223   3.476  24.869  0.00  0.00    +0.076 A 
ATOM     29  C   UNL     1      -4.685   2.794  24.818  0.00  0.00    +0.027 A 
ATOM     30  C   UNL     1      -5.426   2.770  25.179  0.00  0.00    +0.070 A 
ATOM     31  C   UNL     1      -5.705   3.427  25.592  0.00  0.00    +0.010 A 
ATOM     32  C   UNL     1      -5.243   4.108  25.644  0.00  0.00    +0.002 A 
ATOM     33  C   UNL     1      -4.502   4.133  25.282  0.00  0.00    +0.017 A 
BRANCH  30  34
ATOM     34  C   UNL     1      -5.888   2.088  25.128  0.00  0.00    +0.100 C 
ATOM     35  N   UNL     1      -6.349   1.406  25.077  0.00  0.00    -0.191 NA
ENDBRANCH  30  34
ENDBRANCH  27  28
ENDBRANCH   4   3
ENDBRANCH   5   4
BRANCH  12  13
ATOM     13  C   UNL     1       0.081   0.201  24.525  0.00  0.00    +0.073 C 
BRANCH  13  14
ATOM     14  N   UNL     1      -0.400  -0.468  24.584  0.00  0.00    -0.273 NA
ATOM     15  C   UNL     1      -0.679  -0.836  23.902  0.00  0.00    +0.072 C 
ATOM     16  C   UNL     1      -1.160  -1.505  23.961  0.00  0.00    +0.018 C 
ATOM     17  C   UNL     1      -1.360  -1.803  24.704  0.00  0.00    +0.007 C 
ATOM     25  C   UNL     1      -1.081  -1.434  25.387  0.00  0.00    +0.018 C 
ATOM     26  C   UNL     1      -0.600  -0.766  25.326  0.00  0.00    +0.072 C 
BRANCH  17  18
ATOM     18  C   UNL     1      -1.841  -2.471  24.763  0.00  0.00    +0.026 C 
BRANCH  18  19
ATOM     19  C   UNL     1      -2.652  -2.409  24.627  0.00  0.00    -0.022 A 
ATOM     20  C   UNL     1      -2.995  -2.812  23.993  0.00  0.00    -0.004 A 
ATOM     21  C   UNL     1      -3.807  -2.750  23.857  0.00  0.00    -0.000 A 
ATOM     22  C   UNL     1      -4.275  -2.286  24.354  0.00  0.00    -0.000 A 
ATOM     23  C   UNL     1      -3.931  -1.884  24.987  0.00  0.00    -0.000 A 
ATOM     24  C   UNL     1      -3.119  -1.946  25.123  0.00  0.00    -0.004 A 
ENDBRANCH  18  19
ENDBRANCH  17  18
ENDBRANCH  13  14
ENDBRANCH  12  13
TORSDOF 8
ENDMDL
MODEL 6
REMARK VINA RESULT:     -11.0      3.391      6.115
REMARK  Name = 
REMARK  8 active torsions:
REMARK  status: ('A' for Active; 'I' for Inactive)
REMARK    1  A    between atoms: N_3  and  C_4
REMARK    2  A    between atoms: C_4  and  C_5
REMARK    3  A    between atoms: C_12  and  C_13
REMARK    4  A    between atoms: C_13  and  N_14
REMARK    5  A    between atoms: C_17  and  C_18
REMARK    6  A    between atoms: C_18  and  C_19
REMARK    7  A    between atoms: N_27  and  C_28
REMARK    8  A    between atoms: C_30  and  C_34
REMARK                            x       y       z     vdW  Elec       q    Type
REMARK                         _______ _______ _______ _____ _____    ______ ____
ROOT
ATOM      5  C   UNL     1       0.358   1.542  23.855  0.00  0.00    +0.079 C 
ATOM      6  C   UNL     1       0.040   2.166  24.194  0.00  0.00    +0.018 C 
ATOM      7  C   UNL     1      -0.745   2.256  24.374  0.00  0.00    +0.005 C 
ATOM      8  C   UNL     1      -0.910   3.047  24.762  0.00  0.00    +0.017 C 
ATOM      9  C   UNL     1      -0.539   2.585  24.487  0.00  0.00    +0.072 C 
ATOM     10  N   UNL     1      -0.440   1.641  24.042  0.00  0.00    -0.272 NA
ATOM     11  C   UNL     1      -1.166   1.101  23.925  0.00  0.00    +0.073 C 
ATOM     12  C   UNL     1      -1.438   1.731  24.259  0.00  0.00    +0.032 C 
ENDROOT
BRANCH   5   4
ATOM      4  C   UNL     1       0.994   1.116  23.549  0.00  0.00    +0.133 C 
BRANCH   4   3
ATOM      1  O   UNL     1       2.289   0.217  23.061  0.00  0.00    -0.249 OA
ATOM      2  C   UNL     1       2.396   0.999  23.298  0.00  0.00    +0.344 C 
ATOM      3  N   UNL     1       1.749   1.449  23.542  0.00  0.00    -0.185 NA
ATOM     27  N   UNL     1       3.151   1.333  23.291  0.00  0.00    -0.161 NA
BRANCH  27  28
ATOM     28  C   UNL     1       3.798   0.883  23.047  0.00  0.00    +0.076 A 
ATOM     29  C   UNL     1       4.287   0.526  23.608  0.00  0.00    +0.027 A 
ATOM     30  C   UNL     1       4.934   0.076  23.364  0.00  0.00    +0.070 A 
ATOM     31  C   UNL     1       5.092  -0.017  22.560  0.00  0.00    +0.010 A 
ATOM     32  C   UNL     1       4.604   0.340  22.000  0.00  0.00    +0.002 A 
ATOM     33  C   UNL     1       3.956   0.790  22.243  0.00  0.00    +0.017 A 
BRANCH  30  34
ATOM     34  C   UNL     1       5.423  -0.281  23.925  0.00  0.00    +0.100 C 
ATOM     35  N   UNL     1       5.911  -0.638  24.485  0.00  0.00    -0.191 NA
ENDBRANCH  30  34
ENDBRANCH  27  28
ENDBRANCH   4   3
ENDBRANCH   5   4
BRANCH  12  13
ATOM     13  C   UNL     1      -2.222   1.885  24.468  0.00  0.00    +0.073 C 
BRANCH  13  14
ATOM     14  N   UNL     1      -2.765   1.266  24.516  0.00  0.00    -0.273 NA
ATOM     15  C   UNL     1      -2.896   0.887  25.236  0.00  0.00    +0.072 C 
ATOM     16  C   UNL     1      -3.440   0.267  25.283  0.00  0.00    +0.018 C 
ATOM     17  C   UNL     1      -3.852   0.029  24.610  0.00  0.00    +0.007 C 
ATOM     25  C   UNL     1      -3.722   0.409  23.889  0.00  0.00    +0.018 C 
ATOM     26  C   UNL     1      -3.178   1.028  23.843  0.00  0.00    +0.072 C 
BRANCH  17  18
ATOM     18  C   UNL     1      -4.395  -0.590  24.656  0.00  0.00    +0.026 C 
BRANCH  18  19
ATOM     19  C   UNL     1      -4.144  -1.369  24.551  0.00  0.00    -0.022 A 
ATOM     20  C   UNL     1      -4.308  -1.763  23.844  0.00  0.00    -0.004 A 
ATOM     21  C   UNL     1      -4.056  -2.542  23.739  0.00  0.00    -0.000 A 
ATOM     22  C   UNL     1      -3.641  -2.926  24.340  0.00  0.00    -0.000 A 
ATOM     23  C   UNL     1      -3.478  -2.532  25.046  0.00  0.00    -0.000 A 
ATOM     24  C   UNL     1      -3.730  -1.753  25.151  0.00  0.00    -0.004 A 
ENDBRANCH  18  19
ENDBRANCH  17  18
ENDBRANCH  13  14
ENDBRANCH  12  13
TORSDOF 8
ENDMDL
MODEL 7
REMARK VINA RESULT:      -9.1     14.430     17.482
REMARK  Name = 
REMARK  8 active torsions:
REMARK  status: ('A' for Active; 'I' for Inactive)
REMARK    1  A    between atoms: N_3  and  C_4
REMARK    2  A    between atoms: C_4  and  C_5
REMARK    3  A    between atoms: C_12  and  C_13
REMARK    4  A    between atoms: C_13  and  N_14
REMARK    5  A    between atoms: C_17  and  C_18
REMARK    6  A    between atoms: C_18  and  C_19
REMARK    7  A    between atoms: N_27  and  C_28
REMARK    8  A    between atoms: C_30  and  C_34
REMARK                            x       y       z     vdW  Elec       q    Type
REMARK                         _______ _______ _______ _____ _____    ______ ____
ROOT
ATOM      5  C   UNL     1      -3.888 -10.656  14.027  0.00  0.00    +0.079 C 
ATOM      6  C   UNL     1      -3.121 -10.686  13.895  0.00  0.00    +0.018 C 
ATOM      7  C   UNL     1      -2.763 -10.599  13.174  0.00  0.00    +0.005 C 
ATOM      8  C   UNL     1      -1.871 -10.667  13.235  0.00  0.00    +0.017 C 
ATOM      9  C   UNL     1      -2.484 -10.661  13.460  0.00  0.00    +0.072 C 
ATOM     10  N   UNL     1      -3.515 -10.568  13.295  0.00  0.00    -0.272 NA
ATOM     11  C   UNL     1      -3.843 -10.417  12.457  0.00  0.00    +0.073 C 
ATOM     12  C   UNL     1      -3.085 -10.454  12.371  0.00  0.00    +0.032 C 
ENDROOT
BRANCH   5   4
ATOM      4  C   UNL     1      -4.552 -10.687  14.514  0.00  0.00    +0.133 C 
BRANCH   4   3
ATOM      1  O   UNL     1      -5.876 -10.762  15.496  0.00  0.00    -0.249 OA
ATOM      2  C   UNL     1      -5.199 -10.363  15.746  0.00  0.00    +0.344 C 
ATOM      3  N   UNL     1      -4.537 -10.325  15.256  0.00  0.00    -0.185 NA
ATOM     27  N   UNL     1      -5.183 -10.001  16.488  0.00  0.00    -0.161 NA
BRANCH  27  28
ATOM     28  C   UNL     1      -5.845 -10.038  16.979  0.00  0.00    +0.076 A 
ATOM     29  C   UNL     1      -6.515  -9.588  16.804  0.00  0.00    +0.027 A 
ATOM     30  C   UNL     1      -7.176  -9.626  17.295  0.00  0.00    +0.070 A 
ATOM     31  C   UNL     1      -7.170 -10.114  17.960  0.00  0.00    +0.010 A 
ATOM     32  C   UNL     1      -6.501 -10.563  18.135  0.00  0.00    +0.002 A 
ATOM     33  C   UNL     1      -5.838 -10.526  17.644  0.00  0.00    +0.017 A 
BRANCH  30  34
ATOM     34  C   UNL     1      -7.846  -9.176  17.120  0.00  0.00    +0.100 C 
ATOM     35  N   UNL     1      -8.514  -8.726  16.945  0.00  0.00    -0.191 NA
ENDBRANCH  30  34
ENDBRANCH  27  28
ENDBRANCH   4   3
ENDBRANCH   5   4
BRANCH  12  13
ATOM     13  C   UNL     1      -2.659 -10.374  11.669  0.00  0.00    +0.073 C 
BRANCH  13  14
ATOM     14  N   UNL     1      -3.043 -10.140  10.977  0.00  0.00    -0.273 NA
ATOM     15  C   UNL     1      -3.362 -10.707  10.471  0.00  0.00    +0.072 C 
ATOM     16  C   UNL     1      -3.747 -10.473   9.779  0.00  0.00    +0.018 C 
ATOM     17  C   UNL     1      -3.813  -9.672   9.595  0.00  0.00    +0.007 C 
ATOM     25  C   UNL     1      -3.494  -9.104  10.102  0.00  0.00    +0.018 C 
ATOM     26  C   UNL     1      -3.109  -9.339  10.794  0.00  0.00    +0.072 C 
BRANCH  17  18
ATOM     18  C   UNL     1      -4.197  -9.437   8.904  0.00  0.00    +0.026 C 
BRANCH  18  19
ATOM     19  C   UNL     1      -5.013  -9.314   8.908  0.00  0.00    -0.022 A 
ATOM     20  C   UNL     1      -5.527  -9.951   8.798  0.00  0.00    -0.004 A 
ATOM     21  C   UNL     1      -6.343  -9.827   8.802  0.00  0.00    -0.000 A 
ATOM     22  C   UNL     1      -6.645  -9.068   8.915  0.00  0.00    -0.000 A 
ATOM     23  C   UNL     1      -6.131  -8.432   9.024  0.00  0.00    -0.000 A 
ATOM     24  C   UNL     1      -5.315  -8.555   9.021  0.00  0.00    -0.004 A 
ENDBRANCH  18  19
ENDBRANCH  17  18
ENDBRANCH  13  14
ENDBRANCH  12  13
TORSDOF 8
ENDMDL
MODEL 8
REMARK VINA RESULT:      -8.3     14.359     16.534
REMARK  Name = 
REMARK  8 active torsions:
REMARK  status: ('A' for Active; 'I' for Inactive)
REMARK    1  A    between atoms: N_3  and  C_4
REMARK    2  A    between atoms: C_4  and  C_5
REMARK    3  A    between atoms: C_12  and  C_13
REMARK    4  A    between atoms: C_13  and  N_14
REMARK    5  A    between atoms: C_17  and  C_18
REMARK    6  A    between atoms: C_18  and  C_19
REMARK    7  A    between atoms: N_27  and  C_28
REMARK    8  A    between atoms: C_30  and  C_34
REMARK                            x       y       z     vdW  Elec       q    Type
REMARK                         _______ _______ _______ _____ _____    ______ ____
ROOT
ATOM      5  C   UNL     1      -4.912 -10.659  14.792  0.00  0.00    +0.079 C 
ATOM      6  C   UNL     1      -4.568 -10.586  15.486  0.00  0.00    +0.018 C 
ATOM      7  C   UNL     1      -4.949 -10.517  16.197  0.00  0.00    +0.005 C 
ATOM      8  C   UNL     1      -4.372 -10.443  16.880  0.00  0.00    +0.017 C 
ATOM      9  C   UNL     1      -4.548 -10.508  16.254  0.00  0.00    +0.072 C 
ATOM     10  N   UNL     1      -5.293 -10.588  15.521  0.00  0.00    -0.272 NA
ATOM     11  C   UNL     1      -6.177 -10.572  15.748  0.00  0.00    +0.073 C 
ATOM     12  C   UNL     1      -5.800 -10.502  16.409  0.00  0.00    +0.032 C 
ENDROOT
BRANCH   5   4
ATOM      4  C   UNL     1      -4.904 -10.742  13.972  0.00  0.00    +0.133 C 
BRANCH   4   3
ATOM      1  O   UNL     1      -4.960 -10.781  12.324  0.00  0.00    -0.249 OA
ATOM      2  C   UNL     1      -4.318 -10.431  12.706  0.00  0.00    +0.344 C 
ATOM      3  N   UNL     1      -4.290 -10.411  13.530  0.00  0.00    -0.185 NA
ATOM     27  N   UNL     1      -3.704 -10.100  12.264  0.00  0.00    -0.161 NA
BRANCH  27  28
ATOM     28  C   UNL     1      -3.733 -10.120  11.440  0.00  0.00    +0.076 A 
ATOM     29  C   UNL     1      -4.081  -9.498  11.025  0.00  0.00    +0.027 A 
ATOM     30  C   UNL     1      -4.109  -9.517  10.201  0.00  0.00    +0.070 A 
ATOM     31  C   UNL     1      -3.790 -10.159   9.792  0.00  0.00    +0.010 A 
ATOM     32  C   UNL     1      -3.442 -10.780  10.207  0.00  0.00    +0.002 A 
ATOM     33  C   UNL     1      -3.413 -10.761  11.032  0.00  0.00    +0.017 A 
BRANCH  30  34
ATOM     34  C   UNL     1      -4.458  -8.895   9.785  0.00  0.00    +0.100 C 
ATOM     35  N   UNL     1      -4.806  -8.274   9.370  0.00  0.00    -0.191 NA
ENDBRANCH  30  34
ENDBRANCH  27  28
ENDBRANCH   4   3
ENDBRANCH   5   4
BRANCH  12  13
ATOM     13  C   UNL     1      -6.126 -10.429  17.164  0.00  0.00    +0.073 C 
BRANCH  13  14
ATOM     14  N   UNL     1      -6.906 -10.174  17.253  0.00  0.00    -0.273 NA
ATOM     15  C   UNL     1      -7.065  -9.382  17.417  0.00  0.00    +0.072 C 
ATOM     16  C   UNL     1      -7.846  -9.127  17.506  0.00  0.00    +0.018 C 
ATOM     17  C   UNL     1      -8.465  -9.666  17.430  0.00  0.00    +0.007 C 
ATOM     25  C   UNL     1      -8.306 -10.459  17.266  0.00  0.00    +0.018 C 
ATOM     26  C   UNL     1      -7.526 -10.712  17.177  0.00  0.00    +0.072 C 
BRANCH  17  18
ATOM     18  C   UNL     1      -9.245  -9.412  17.519  0.00  0.00    +0.026 C 
BRANCH  18  19
ATOM     19  C   UNL     1      -9.600  -8.954  16.931  0.00  0.00    -0.022 A 
ATOM     20  C   UNL     1      -9.633  -8.134  17.011  0.00  0.00    -0.004 A 
ATOM     21  C   UNL     1      -9.988  -7.676  16.423  0.00  0.00    -0.000 A 
ATOM     22  C   UNL     1     -10.308  -8.040  15.755  0.00  0.00    -0.000 A 
ATOM     23  C   UNL     1     -10.274  -8.860  15.675  0.00  0.00    -0.000 A 
ATOM     24  C   UNL     1      -9.920  -9.317  16.263  0.00  0.00    -0.004 A 
ENDBRANCH  18  19
ENDBRANCH  17  18
ENDBRANCH  13  14
ENDBRANCH  12  13
TORSDOF 8
ENDMDL
MODEL 9
REMARK VINA RESULT:      -8.2     14.336     16.485
REMARK  Name = 
REMARK  8 active torsions:
REMARK  status: ('A' for Active; 'I' for Inactive)
REMARK    1  A    between atoms: N_3  and  C_4
REMARK    2  A    between atoms: C_4  and  C_5
REMARK    3  A    between atoms: C_12  and  C_13
REMARK    4  A    between atoms: C_13  and  N_14
REMARK    5  A    between atoms: C_17  and  C_18
REMARK    6  A    between atoms: C_18  and  C_19
REMARK    7  A    between atoms: N_27  and  C_28
REMARK    8  A    between atoms: C_30  and  C_34
REMARK                            x       y       z     vdW  Elec       q    Type
REMARK                         _______ _______ _______ _____ _____    ______ ____
ROOT
ATOM      5  C   UNL     1      -4.157 -10.669  15.947  0.00  0.00    +0.079 C 
ATOM      6  C   UNL     1      -3.411 -10.521  16.114  0.00  0.00    +0.018 C 
ATOM      7  C   UNL     1      -2.807 -10.481  15.578  0.00  0.00    +0.005 C 
ATOM      8  C   UNL     1      -2.022 -10.299  15.972  0.00  0.00    +0.017 C 
ATOM      9  C   UNL     1      -2.665 -10.412  15.950  0.00  0.00    +0.072 C 
ATOM     10  N   UNL     1      -3.535 -10.627  15.406  0.00  0.00    -0.272 NA
ATOM     11  C   UNL     1      -3.506 -10.730  14.500  0.00  0.00    +0.073 C 
ATOM     12  C   UNL     1      -2.786 -10.581  14.706  0.00  0.00    +0.032 C 
ENDROOT
BRANCH   5   4
ATOM      4  C   UNL     1      -4.948 -10.781  16.150  0.00  0.00    +0.133 C 
BRANCH   4   3
ATOM      1  O   UNL     1      -6.582 -10.731  16.373  0.00  0.00    -0.249 OA
ATOM      2  C   UNL     1      -6.080 -10.372  16.920  0.00  0.00    +0.344 C 
ATOM      3  N   UNL     1      -5.263 -10.397  16.809  0.00  0.00    -0.185 NA
ATOM     27  N   UNL     1      -6.395  -9.987  17.579  0.00  0.00    -0.161 NA
BRANCH  27  28
ATOM     28  C   UNL     1      -7.212  -9.963  17.690  0.00  0.00    +0.076 A 
ATOM     29  C   UNL     1      -7.654  -9.346  17.365  0.00  0.00    +0.027 A 
ATOM     30  C   UNL     1      -8.471  -9.321  17.476  0.00  0.00    +0.070 A 
ATOM     31  C   UNL     1      -8.846  -9.912  17.912  0.00  0.00    +0.010 A 
ATOM     32  C   UNL     1      -8.405 -10.528  18.237  0.00  0.00    +0.002 A 
ATOM     33  C   UNL     1      -7.587 -10.554  18.126  0.00  0.00    +0.017 A 
BRANCH  30  34
ATOM     34  C   UNL     1      -8.913  -8.704  17.151  0.00  0.00    +0.100 C 
ATOM     35  N   UNL     1      -9.354  -8.088  16.826  0.00  0.00    -0.191 NA
ENDBRANCH  30  34
ENDBRANCH  27  28
ENDBRANCH   4   3
ENDBRANCH   5   4
BRANCH  12  13
ATOM     13  C   UNL     1      -2.127 -10.526  14.212  0.00  0.00    +0.073 C 
BRANCH  13  14
ATOM     14  N   UNL     1      -2.227 -10.487  13.394  0.00  0.00    -0.273 NA
ATOM     15  C   UNL     1      -2.915 -10.780  13.048  0.00  0.00    +0.072 C 
ATOM     16  C   UNL     1      -3.015 -10.741  12.229  0.00  0.00    +0.018 C 
ATOM     17  C   UNL     1      -2.425 -10.407  11.759  0.00  0.00    +0.007 C 
ATOM     25  C   UNL     1      -1.736 -10.113  12.105  0.00  0.00    +0.018 C 
ATOM     26  C   UNL     1      -1.638 -10.154  12.924  0.00  0.00    +0.072 C 
BRANCH  17  18
ATOM     18  C   UNL     1      -2.525 -10.368  10.941  0.00  0.00    +0.026 C 
BRANCH  18  19
ATOM     19  C   UNL     1      -3.102  -9.873  10.619  0.00  0.00    -0.022 A 
ATOM     20  C   UNL     1      -2.903  -9.107  10.384  0.00  0.00    -0.004 A 
ATOM     21  C   UNL     1      -3.480  -8.612  10.061  0.00  0.00    -0.000 A 
ATOM     22  C   UNL     1      -4.254  -8.884   9.975  0.00  0.00    -0.000 A 
ATOM     23  C   UNL     1      -4.452  -9.649  10.210  0.00  0.00    -0.000 A 
ATOM     24  C   UNL     1      -3.875 -10.144  10.532  0.00  0.00    -0.004 A 
ENDBRANCH  18  19
ENDBRANCH  17  18
ENDBRANCH  13  14
ENDBRANCH  12  13
TORSDOF 8
ENDMDL
