MODEL 1
REMARK VINA RESULT:      -9.3      0.000      0.000
REMARK  Name = 
REMARK  5 active torsions:
REMARK  status: ('A' for Active; 'I' for Inactive)
REMARK    1  A    between atoms: O_2  and  C_3
REMARK    2  A    between atoms: C_7  and  N_11
REMARK    3  A    between atoms: N_11  and  S_12
REMARK    4  A    between atoms: S_12  and  C_15
REMARK    5  A    between atoms: C_20  and  C_21
REMARK                            x       y       z     vdW  Elec       q    Type
REMARK                         _______ _______ _______ _____ _____    ______ ____
ROOT
ATOM     11  N   UNL     1      -3.331   0.381  24.903  0.00  0.00    -0.074 NA
ENDROOT
BRANCH  11   7
ATOM      3  C   UNL     1      -4.773   2.766  25.125  0.00  0.00    +0.174 C 
ATOM      4  C   UNL     1      -3.988   3.014  25.182  0.00  0.00    +0.174 C 
ATOM      5  O   UNL     1      -3.507   2.347  25.122  0.00  0.00    -0.349 OA
ATOM      6  C   UNL     1      -3.993   1.688  25.030  0.00  0.00    +0.165 C 
ATOM      7  C   UNL     1      -3.997   0.868  24.936  0.00  0.00    +0.157 C 
ATOM      8  C   UNL     1      -4.781   0.621  24.879  0.00  0.00    +0.164 C 
ATOM      9  O   UNL     1      -5.263   1.288  24.939  0.00  0.00    -0.350 OA
ATOM     10  C   UNL     1      -4.776   1.947  25.032  0.00  0.00    +0.173 C 
BRANCH   3   2
ATOM      1  C   UNL     1      -5.391   3.995  25.515  0.00  0.00    +0.174 C 
ATOM      2  O   UNL     1      -5.439   3.253  25.158  0.00  0.00    -0.348 OA
ENDBRANCH   3   2
ENDBRANCH  11   7
BRANCH  11  12
ATOM     12  S   UNL     1      -3.412  -0.417  24.710  0.00  0.00    +0.078 S 
ATOM     13  O   UNL     1      -3.212  -0.246  23.928  0.00  0.00    -0.152 OA
ATOM     14  O   UNL     1      -3.612  -0.586  25.492  0.00  0.00    -0.152 OA
BRANCH  12  15
ATOM     15  C   UNL     1      -3.493  -1.214  24.516  0.00  0.00    +0.133 A 
ATOM     16  C   UNL     1      -4.193  -1.486  24.173  0.00  0.00    +0.021 A 
ATOM     17  C   UNL     1      -4.274  -2.284  23.978  0.00  0.00    +0.001 A 
ATOM     18  C   UNL     1      -3.656  -2.809  24.127  0.00  0.00    +0.001 A 
ATOM     19  C   UNL     1      -2.957  -2.538  24.469  0.00  0.00    +0.012 A 
ATOM     20  C   UNL     1      -2.875  -1.740  24.664  0.00  0.00    +0.087 A 
BRANCH  20  21
ATOM     21  C   UNL     1      -2.175  -1.468  25.007  0.00  0.00    +0.102 C 
ATOM     22  N   UNL     1      -1.476  -1.197  25.349  0.00  0.00    -0.191 NA
ENDBRANCH  20  21
ENDBRANCH  12  15
ENDBRANCH  11  12
TORSDOF 5
ENDMDL
MODEL 2
REMARK VINA RESULT:      -8.7      2.400      5.126
REMARK  Name = 
REMARK  5 active torsions:
REMARK  status: ('A' for Active; 'I' for Inactive)
REMARK    1  A    between atoms: O_2  and  C_3
REMARK    2  A    between atoms: C_7  and  N_11
REMARK    3  A    between atoms: N_11  and  S_12
REMARK    4  A    between atoms: S_12  and  C_15
REMARK    5  A    between atoms: C_20  and  C_21
REMARK                            x       y       z     vdW  Elec       q    Type
REMARK                         _______ _______ _______ _____ _____    ______ ____
ROOT
ATOM     11  N   UNL     1      -2.351   1.957  25.034  0.00  0.00    -0.074 NA
ENDROOT
BRANCH  11   7
ATOM      3  C   UNL     1      -1.648  -0.732  24.723  0.00  0.00    +0.174 C 
ATOM      4  C   UNL     1      -2.324  -0.766  25.195  0.00  0.00    +0.174 C 
ATOM      5  O   UNL     1      -2.583   0.006  25.324  0.00  0.00    -0.349 OA
ATOM      6  C   UNL     1      -2.069   0.518  24.933  0.00  0.00    +0.165 C 
ATOM      7  C   UNL     1      -1.910   1.311  24.770  0.00  0.00    +0.157 C 
ATOM      8  C   UNL     1      -1.234   1.345  24.299  0.00  0.00    +0.164 C 
ATOM      9  O   UNL     1      -0.975   0.573  24.169  0.00  0.00    -0.350 OA
ATOM     10  C   UNL     1      -1.490   0.061  24.561  0.00  0.00    +0.173 C 
BRANCH   3   2
ATOM      1  C   UNL     1      -1.473  -2.145  24.604  0.00  0.00    +0.174 C 
ATOM      2  O   UNL     1      -1.207  -1.378  24.459  0.00  0.00    -0.348 OA
ENDBRANCH   3   2
ENDBRANCH  11   7
BRANCH  11  12
ATOM     12  S   UNL     1      -2.018   2.712  25.033  0.00  0.00    +0.078 S 
ATOM     13  O   UNL     1      -2.331   2.847  24.282  0.00  0.00    -0.152 OA
ATOM     14  O   UNL     1      -1.705   2.575  25.784  0.00  0.00    -0.152 OA
BRANCH  12  15
ATOM     15  C   UNL     1      -1.686   3.467  25.031  0.00  0.00    +0.133 A 
ATOM     16  C   UNL     1      -0.923   3.581  24.735  0.00  0.00    +0.021 A 
ATOM     17  C   UNL     1      -0.591   4.336  24.733  0.00  0.00    +0.001 A 
ATOM     18  C   UNL     1      -1.020   4.977  25.026  0.00  0.00    +0.001 A 
ATOM     19  C   UNL     1      -1.782   4.863  25.321  0.00  0.00    +0.012 A 
ATOM     20  C   UNL     1      -2.115   4.108  25.323  0.00  0.00    +0.087 A 
BRANCH  20  21
ATOM     21  C   UNL     1      -2.877   3.994  25.619  0.00  0.00    +0.102 C 
ATOM     22  N   UNL     1      -3.638   3.880  25.914  0.00  0.00    -0.191 NA
ENDBRANCH  20  21
ENDBRANCH  12  15
ENDBRANCH  11  12
TORSDOF 5
ENDMDL
MODEL 3
REMARK VINA RESULT:      -8.6      1.228      4.292
REMARK  Name = 
REMARK  5 active torsions:
REMARK  status: ('A' for Active; 'I' for Inactive)
REMARK    1  A    between atoms: O_2  and  C_3
REMARK    2  A    between atoms: C_7  and  N_11
REMARK    3  A    between atoms: N_11  and  S_12
REMARK    4  A    between atoms: S_12  and  C_15
REMARK    5  A    between atoms: C_20  and  C_21
REMARK                            x       y       z     vdW  Elec       q    Type
REMARK                         _______ _______ _______ _____ _____    ______ ____
ROOT
ATOM     11  N   UNL     1      -3.332   1.040  24.412  0.00  0.00    -0.074 NA
ENDROOT
BRANCH  11   7
ATOM      3  C   UNL     1      -3.410  -1.754  24.497  0.00  0.00    +0.174 C 
ATOM      4  C   UNL     1      -2.605  -1.585  24.560  0.00  0.00    +0.174 C 
ATOM      5  O   UNL     1      -2.515  -0.765  24.541  0.00  0.00    -0.349 OA
ATOM      6  C   UNL     1      -3.263  -0.428  24.466  0.00  0.00    +0.165 C 
ATOM      7  C   UNL     1      -3.671   0.287  24.407  0.00  0.00    +0.157 C 
ATOM      8  C   UNL     1      -4.476   0.118  24.344  0.00  0.00    +0.164 C 
ATOM      9  O   UNL     1      -4.566  -0.701  24.363  0.00  0.00    -0.350 OA
ATOM     10  C   UNL     1      -3.816  -1.039  24.438  0.00  0.00    +0.173 C 
BRANCH   3   2
ATOM      1  C   UNL     1      -3.277  -3.172  24.615  0.00  0.00    +0.174 C 
ATOM      2  O   UNL     1      -3.748  -2.506  24.492  0.00  0.00    -0.348 OA
ENDBRANCH   3   2
ENDBRANCH  11   7
BRANCH  11  12
ATOM     12  S   UNL     1      -3.771   1.689  24.672  0.00  0.00    +0.078 S 
ATOM     13  O   UNL     1      -3.526   1.544  25.446  0.00  0.00    -0.152 OA
ATOM     14  O   UNL     1      -4.016   1.833  23.897  0.00  0.00    -0.152 OA
BRANCH  12  15
ATOM     15  C   UNL     1      -4.210   2.337  24.932  0.00  0.00    +0.133 A 
ATOM     16  C   UNL     1      -5.001   2.240  25.146  0.00  0.00    +0.021 A 
ATOM     17  C   UNL     1      -5.440   2.888  25.407  0.00  0.00    +0.001 A 
ATOM     18  C   UNL     1      -5.088   3.633  25.453  0.00  0.00    +0.001 A 
ATOM     19  C   UNL     1      -4.298   3.730  25.239  0.00  0.00    +0.012 A 
ATOM     20  C   UNL     1      -3.858   3.082  24.978  0.00  0.00    +0.087 A 
BRANCH  20  21
ATOM     21  C   UNL     1      -3.067   3.178  24.764  0.00  0.00    +0.102 C 
ATOM     22  N   UNL     1      -2.277   3.275  24.550  0.00  0.00    -0.191 NA
ENDBRANCH  20  21
ENDBRANCH  12  15
ENDBRANCH  11  12
TORSDOF 5
ENDMDL
MODEL 4
REMARK VINA RESULT:      -8.4      1.691      4.286
REMARK  Name = 
REMARK  5 active torsions:
REMARK  status: ('A' for Active; 'I' for Inactive)
REMARK    1  A    between atoms: O_2  and  C_3
REMARK    2  A    between atoms: C_7  and  N_11
REMARK    3  A    between atoms: N_11  and  S_12
REMARK    4  A    between atoms: S_12  and  C_15
REMARK    5  A    between atoms: C_20  and  C_21
REMARK                            x       y       z     vdW  Elec       q    Type
REMARK                         _______ _______ _______ _____ _____    ______ ____
ROOT
ATOM     11  N   UNL     1      -2.954   1.546  24.362  0.00  0.00    -0.074 NA
ENDROOT
BRANCH  11   7
ATOM      3  C   UNL     1      -1.323  -0.686  24.787  0.00  0.00    +0.174 C 
ATOM      4  C   UNL     1      -0.798  -0.053  24.851  0.00  0.00    +0.174 C 
ATOM      5  O   UNL     1      -1.224   0.644  24.734  0.00  0.00    -0.349 OA
ATOM      6  C   UNL     1      -2.011   0.442  24.598  0.00  0.00    +0.165 C 
ATOM      7  C   UNL     1      -2.762   0.747  24.441  0.00  0.00    +0.157 C 
ATOM      8  C   UNL     1      -3.287   0.114  24.377  0.00  0.00    +0.164 C 
ATOM      9  O   UNL     1      -2.861  -0.583  24.494  0.00  0.00    -0.350 OA
ATOM     10  C   UNL     1      -2.073  -0.380  24.630  0.00  0.00    +0.173 C 
BRANCH   3   2
ATOM      1  C   UNL     1      -0.398  -1.705  25.172  0.00  0.00    +0.174 C 
ATOM      2  O   UNL     1      -1.131  -1.484  24.865  0.00  0.00    -0.348 OA
ENDBRANCH   3   2
ENDBRANCH  11   7
BRANCH  11  12
ATOM     12  S   UNL     1      -3.673   1.828  24.651  0.00  0.00    +0.078 S 
ATOM     13  O   UNL     1      -4.010   1.731  23.905  0.00  0.00    -0.152 OA
ATOM     14  O   UNL     1      -3.335   1.925  25.398  0.00  0.00    -0.152 OA
BRANCH  12  15
ATOM     15  C   UNL     1      -4.393   2.110  24.939  0.00  0.00    +0.133 A 
ATOM     16  C   UNL     1      -4.977   1.579  25.181  0.00  0.00    +0.021 A 
ATOM     17  C   UNL     1      -5.696   1.862  25.469  0.00  0.00    +0.001 A 
ATOM     18  C   UNL     1      -5.833   2.674  25.516  0.00  0.00    +0.001 A 
ATOM     19  C   UNL     1      -5.249   3.204  25.274  0.00  0.00    +0.012 A 
ATOM     20  C   UNL     1      -4.529   2.922  24.986  0.00  0.00    +0.087 A 
BRANCH  20  21
ATOM     21  C   UNL     1      -3.945   3.453  24.744  0.00  0.00    +0.102 C 
ATOM     22  N   UNL     1      -3.362   3.984  24.502  0.00  0.00    -0.191 NA
ENDBRANCH  20  21
ENDBRANCH  12  15
ENDBRANCH  11  12
TORSDOF 5
ENDMDL
