MODEL 1
REMARK VINA RESULT:      -9.4      0.000      0.000
REMARK  Name = 
REMARK  6 active torsions:
REMARK  status: ('A' for Active; 'I' for Inactive)
REMARK    1  A    between atoms: C_3  and  C_4
REMARK    2  A    between atoms: C_4  and  N_5
REMARK    3  A    between atoms: C_6  and  C_8
REMARK    4  A    between atoms: C_15  and  N_16
REMARK    5  A    between atoms: N_16  and  C_17
REMARK    6  A    between atoms: C_17  and  C_18
REMARK                            x       y       z     vdW  Elec       q    Type
REMARK                         _______ _______ _______ _____ _____    ______ ____
ROOT
ATOM      1  O   UNL     1      -1.156   0.307  24.952  0.00  0.00    -0.219 OA
ATOM      2  C   UNL     1      -1.879   0.704  24.947  0.00  0.00    +0.199 C 
ATOM      3  C   UNL     1      -1.991   1.510  25.081  0.00  0.00    +0.169 C 
ATOM     13  O   UNL     1      -2.798   1.668  25.023  0.00  0.00    -0.350 OA
ATOM     14  C   UNL     1      -3.186   0.960  24.852  0.00  0.00    +0.162 C 
ATOM     15  C   UNL     1      -2.618   0.364  24.805  0.00  0.00    +0.135 C 
ENDROOT
BRANCH   3   4
ATOM      4  C   UNL     1      -1.399   2.061  25.245  0.00  0.00    +0.148 C 
BRANCH   4   5
ATOM      5  N   UNL     1      -1.523   2.860  25.082  0.00  0.00    -0.199 NA
ATOM      6  C   UNL     1      -0.982   3.424  25.348  0.00  0.00    +0.271 C 
ATOM      7  O   UNL     1      -0.318   3.187  25.777  0.00  0.00    -0.268 OA
BRANCH   6   8
ATOM      8  C   UNL     1      -1.105   4.223  25.185  0.00  0.00    +0.084 A 
ATOM      9  C   UNL     1      -1.742   4.678  25.444  0.00  0.00    +0.012 A 
ATOM     10  C   UNL     1      -1.644   5.443  25.153  0.00  0.00    +0.008 A 
ATOM     11  C   UNL     1      -0.946   5.461  24.714  0.00  0.00    +0.036 A 
ATOM     12  S   UNL     1      -0.613   4.708  24.734  0.00  0.00    -0.082 S 
ENDBRANCH   6   8
ENDBRANCH   4   5
ENDBRANCH   3   4
BRANCH  15  16
ATOM     16  N   UNL     1      -2.763  -0.432  24.644  0.00  0.00    -0.209 NA
BRANCH  16  17
ATOM     17  C   UNL     1      -3.522  -0.741  24.741  0.00  0.00    +0.115 C 
BRANCH  17  18
ATOM     18  C   UNL     1      -3.676  -1.527  24.544  0.00  0.00    -0.005 A 
ATOM     19  C   UNL     1      -4.156  -1.704  23.897  0.00  0.00    -0.003 A 
ATOM     20  C   UNL     1      -4.309  -2.490  23.699  0.00  0.00    -0.000 A 
ATOM     21  C   UNL     1      -3.983  -3.099  24.150  0.00  0.00    -0.000 A 
ATOM     22  C   UNL     1      -3.503  -2.923  24.797  0.00  0.00    -0.000 A 
ATOM     23  C   UNL     1      -3.349  -2.136  24.994  0.00  0.00    -0.003 A 
ENDBRANCH  17  18
ENDBRANCH  16  17
ENDBRANCH  15  16
TORSDOF 6
ENDMDL
MODEL 2
REMARK VINA RESULT:      -9.1      1.899      5.959
REMARK  Name = 
REMARK  6 active torsions:
REMARK  status: ('A' for Active; 'I' for Inactive)
REMARK    1  A    between atoms: C_3  and  C_4
REMARK    2  A    between atoms: C_4  and  N_5
REMARK    3  A    between atoms: C_6  and  C_8
REMARK    4  A    between atoms: C_15  and  N_16
REMARK    5  A    between atoms: N_16  and  C_17
REMARK    6  A    between atoms: C_17  and  C_18
REMARK                            x       y       z     vdW  Elec       q    Type
REMARK                         _______ _______ _______ _____ _____    ______ ____
ROOT
ATOM      1  O   UNL     1      -3.793   2.072  24.128  0.00  0.00    -0.219 OA
ATOM      2  C   UNL     1      -3.153   1.702  24.495  0.00  0.00    +0.199 C 
ATOM      3  C   UNL     1      -3.080   0.894  24.644  0.00  0.00    +0.169 C 
ATOM     13  O   UNL     1      -2.356   0.769  25.018  0.00  0.00    -0.350 OA
ATOM     14  C   UNL     1      -1.982   1.499  25.101  0.00  0.00    +0.162 C 
ATOM     15  C   UNL     1      -2.474   2.076  24.778  0.00  0.00    +0.135 C 
ENDROOT
BRANCH   3   4
ATOM      4  C   UNL     1      -3.634   0.313  24.451  0.00  0.00    +0.148 C 
BRANCH   4   5
ATOM      5  N   UNL     1      -3.441  -0.484  24.534  0.00  0.00    -0.199 NA
ATOM      6  C   UNL     1      -4.008  -1.064  24.380  0.00  0.00    +0.271 C 
ATOM      7  O   UNL     1      -4.767  -0.845  24.144  0.00  0.00    -0.268 OA
BRANCH   6   8
ATOM      8  C   UNL     1      -3.815  -1.862  24.463  0.00  0.00    +0.084 A 
ATOM      9  C   UNL     1      -3.457  -2.209  25.120  0.00  0.00    +0.012 A 
ATOM     10  C   UNL     1      -3.367  -3.014  24.966  0.00  0.00    +0.008 A 
ATOM     11  C   UNL     1      -3.669  -3.165  24.213  0.00  0.00    +0.036 A 
ATOM     12  S   UNL     1      -3.946  -2.454  23.902  0.00  0.00    -0.082 S 
ENDBRANCH   6   8
ENDBRANCH   4   5
ENDBRANCH   3   4
BRANCH  15  16
ATOM     16  N   UNL     1      -2.315   2.884  24.743  0.00  0.00    -0.209 NA
BRANCH  16  17
ATOM     17  C   UNL     1      -1.718   3.208  25.211  0.00  0.00    +0.115 C 
BRANCH  17  18
ATOM     18  C   UNL     1      -1.508   4.001  25.123  0.00  0.00    -0.005 A 
ATOM     19  C   UNL     1      -0.773   4.201  24.805  0.00  0.00    -0.003 A 
ATOM     20  C   UNL     1      -0.564   4.994  24.717  0.00  0.00    -0.000 A 
ATOM     21  C   UNL     1      -1.089   5.587  24.946  0.00  0.00    -0.000 A 
ATOM     22  C   UNL     1      -1.824   5.388  25.263  0.00  0.00    -0.000 A 
ATOM     23  C   UNL     1      -2.034   4.594  25.352  0.00  0.00    -0.003 A 
ENDBRANCH  17  18
ENDBRANCH  16  17
ENDBRANCH  15  16
TORSDOF 6
ENDMDL
MODEL 3
REMARK VINA RESULT:      -6.8      3.852      5.783
REMARK  Name = 
REMARK  6 active torsions:
REMARK  status: ('A' for Active; 'I' for Inactive)
REMARK    1  A    between atoms: C_3  and  C_4
REMARK    2  A    between atoms: C_4  and  N_5
REMARK    3  A    between atoms: C_6  and  C_8
REMARK    4  A    between atoms: C_15  and  N_16
REMARK    5  A    between atoms: N_16  and  C_17
REMARK    6  A    between atoms: C_17  and  C_18
REMARK                            x       y       z     vdW  Elec       q    Type
REMARK                         _______ _______ _______ _____ _____    ______ ____
ROOT
ATOM      1  O   UNL     1       0.513   1.588  24.201  0.00  0.00    -0.219 OA
ATOM      2  C   UNL     1       0.394   0.857  23.837  0.00  0.00    +0.199 C 
ATOM      3  C   UNL     1      -0.312   0.431  23.824  0.00  0.00    +0.169 C 
ATOM     13  O   UNL     1      -0.183  -0.265  23.402  0.00  0.00    -0.350 OA
ATOM     14  C   UNL     1       0.604  -0.269  23.153  0.00  0.00    +0.162 C 
ATOM     15  C   UNL     1       0.961   0.424  23.422  0.00  0.00    +0.135 C 
ENDROOT
BRANCH   3   4
ATOM      4  C   UNL     1      -1.024   0.661  24.173  0.00  0.00    +0.148 C 
BRANCH   4   5
ATOM      5  N   UNL     1      -1.644   0.121  24.241  0.00  0.00    -0.199 NA
ATOM      6  C   UNL     1      -2.352   0.349  24.598  0.00  0.00    +0.271 C 
ATOM      7  O   UNL     1      -2.440   1.117  24.886  0.00  0.00    -0.268 OA
BRANCH   6   8
ATOM      8  C   UNL     1      -2.972  -0.191  24.666  0.00  0.00    +0.084 A 
ATOM      9  C   UNL     1      -3.589  -0.292  24.127  0.00  0.00    +0.012 A 
ATOM     10  C   UNL     1      -4.082  -0.888  24.413  0.00  0.00    +0.008 A 
ATOM     11  C   UNL     1      -3.770  -1.156  25.128  0.00  0.00    +0.036 A 
ATOM     12  S   UNL     1      -3.085  -0.726  25.285  0.00  0.00    -0.082 S 
ENDBRANCH   6   8
ENDBRANCH   4   5
ENDBRANCH   3   4
BRANCH  15  16
ATOM     16  N   UNL     1       1.745   0.645  23.298  0.00  0.00    -0.209 NA
BRANCH  16  17
ATOM     17  C   UNL     1       2.245   0.162  22.854  0.00  0.00    +0.115 C 
BRANCH  17  18
ATOM     18  C   UNL     1       3.062   0.268  22.891  0.00  0.00    -0.005 A 
ATOM     19  C   UNL     1       3.538  -0.308  23.240  0.00  0.00    -0.003 A 
ATOM     20  C   UNL     1       4.355  -0.202  23.277  0.00  0.00    -0.000 A 
ATOM     21  C   UNL     1       4.696   0.481  22.966  0.00  0.00    -0.000 A 
ATOM     22  C   UNL     1       4.221   1.058  22.617  0.00  0.00    -0.000 A 
ATOM     23  C   UNL     1       3.403   0.952  22.580  0.00  0.00    -0.003 A 
ENDBRANCH  17  18
ENDBRANCH  16  17
ENDBRANCH  15  16
TORSDOF 6
ENDMDL
MODEL 4
REMARK VINA RESULT:      -6.6     17.691     19.292
REMARK  Name = 
REMARK  6 active torsions:
REMARK  status: ('A' for Active; 'I' for Inactive)
REMARK    1  A    between atoms: C_3  and  C_4
REMARK    2  A    between atoms: C_4  and  N_5
REMARK    3  A    between atoms: C_6  and  C_8
REMARK    4  A    between atoms: C_15  and  N_16
REMARK    5  A    between atoms: N_16  and  C_17
REMARK    6  A    between atoms: C_17  and  C_18
REMARK                            x       y       z     vdW  Elec       q    Type
REMARK                         _______ _______ _______ _____ _____    ______ ____
ROOT
ATOM      1  O   UNL     1      13.979   6.862  17.176  0.00  0.00    -0.219 OA
ATOM      2  C   UNL     1      14.112   7.549  17.613  0.00  0.00    +0.199 C 
ATOM      3  C   UNL     1      14.681   7.646  18.202  0.00  0.00    +0.169 C 
ATOM     13  O   UNL     1      14.620   8.416  18.490  0.00  0.00    -0.350 OA
ATOM     14  C   UNL     1      14.013   8.795  18.080  0.00  0.00    +0.162 C 
ATOM     15  C   UNL     1      13.699   8.260  17.538  0.00  0.00    +0.135 C 
ENDROOT
BRANCH   3   4
ATOM      4  C   UNL     1      15.217   7.074  18.457  0.00  0.00    +0.148 C 
BRANCH   4   5
ATOM      5  N   UNL     1      15.564   7.137  19.203  0.00  0.00    -0.199 NA
ATOM      6  C   UNL     1      16.095   6.560  19.462  0.00  0.00    +0.271 C 
ATOM      7  O   UNL     1      16.278   5.920  18.974  0.00  0.00    -0.268 OA
BRANCH   6   8
ATOM      8  C   UNL     1      16.442   6.623  20.207  0.00  0.00    +0.084 A 
ATOM      9  C   UNL     1      16.064   6.502  20.930  0.00  0.00    +0.012 A 
ATOM     10  C   UNL     1      16.616   6.622  21.531  0.00  0.00    +0.008 A 
ATOM     11  C   UNL     1      17.336   6.818  21.179  0.00  0.00    +0.036 A 
ATOM     12  S   UNL     1      17.229   6.818  20.362  0.00  0.00    -0.082 S 
ENDBRANCH   6   8
ENDBRANCH   4   5
ENDBRANCH   3   4
BRANCH  15  16
ATOM     16  N   UNL     1      13.081   8.408  17.012  0.00  0.00    -0.209 NA
BRANCH  16  17
ATOM     17  C   UNL     1      12.413   8.820  17.267  0.00  0.00    +0.115 C 
BRANCH  17  18
ATOM     18  C   UNL     1      11.734   8.836  16.798  0.00  0.00    -0.005 A 
ATOM     19  C   UNL     1      11.782   9.077  16.011  0.00  0.00    -0.003 A 
ATOM     20  C   UNL     1      11.103   9.093  15.542  0.00  0.00    -0.000 A 
ATOM     21  C   UNL     1      10.376   8.867  15.862  0.00  0.00    -0.000 A 
ATOM     22  C   UNL     1      10.329   8.626  16.649  0.00  0.00    -0.000 A 
ATOM     23  C   UNL     1      11.008   8.610  17.118  0.00  0.00    -0.003 A 
ENDBRANCH  17  18
ENDBRANCH  16  17
ENDBRANCH  15  16
TORSDOF 6
ENDMDL
MODEL 5
REMARK VINA RESULT:      -6.5     15.872     18.348
REMARK  Name = 
REMARK  6 active torsions:
REMARK  status: ('A' for Active; 'I' for Inactive)
REMARK    1  A    between atoms: C_3  and  C_4
REMARK    2  A    between atoms: C_4  and  N_5
REMARK    3  A    between atoms: C_6  and  C_8
REMARK    4  A    between atoms: C_15  and  N_16
REMARK    5  A    between atoms: N_16  and  C_17
REMARK    6  A    between atoms: C_17  and  C_18
REMARK                            x       y       z     vdW  Elec       q    Type
REMARK                         _______ _______ _______ _____ _____    ______ ____
ROOT
ATOM      1  O   UNL     1      13.251   6.779  19.165  0.00  0.00    -0.219 OA
ATOM      2  C   UNL     1      13.537   7.546  19.269  0.00  0.00    +0.199 C 
ATOM      3  C   UNL     1      13.088   8.207  19.476  0.00  0.00    +0.169 C 
ATOM     13  O   UNL     1      13.595   8.855  19.520  0.00  0.00    -0.350 OA
ATOM     14  C   UNL     1      14.357   8.596  19.339  0.00  0.00    +0.162 C 
ATOM     15  C   UNL     1      14.322   7.787  19.184  0.00  0.00    +0.135 C 
ENDROOT
BRANCH   3   4
ATOM      4  C   UNL     1      12.275   8.216  19.616  0.00  0.00    +0.148 C 
BRANCH   4   5
ATOM      5  N   UNL     1      11.989   8.313  20.384  0.00  0.00    -0.199 NA
ATOM      6  C   UNL     1      11.176   8.297  20.527  0.00  0.00    +0.271 C 
ATOM      7  O   UNL     1      10.650   8.186  19.901  0.00  0.00    -0.268 OA
BRANCH   6   8
ATOM      8  C   UNL     1      10.891   8.394  21.294  0.00  0.00    +0.084 A 
ATOM      9  C   UNL     1      10.906   9.092  21.734  0.00  0.00    +0.012 A 
ATOM     10  C   UNL     1      10.564   8.939  22.468  0.00  0.00    +0.008 A 
ATOM     11  C   UNL     1      10.338   8.146  22.484  0.00  0.00    +0.036 A 
ATOM     12  S   UNL     1      10.540   7.809  21.759  0.00  0.00    -0.082 S 
ENDBRANCH   6   8
ENDBRANCH   4   5
ENDBRANCH   3   4
BRANCH  15  16
ATOM     16  N   UNL     1      14.958   7.304  18.981  0.00  0.00    -0.209 NA
BRANCH  16  17
ATOM     17  C   UNL     1      15.683   7.394  19.363  0.00  0.00    +0.115 C 
BRANCH  17  18
ATOM     18  C   UNL     1      16.257   6.804  19.303  0.00  0.00    -0.005 A 
ATOM     19  C   UNL     1      16.807   6.701  19.910  0.00  0.00    -0.003 A 
ATOM     20  C   UNL     1      17.381   6.111  19.850  0.00  0.00    -0.000 A 
ATOM     21  C   UNL     1      17.405   5.625  19.183  0.00  0.00    -0.000 A 
ATOM     22  C   UNL     1      16.856   5.729  18.577  0.00  0.00    -0.000 A 
ATOM     23  C   UNL     1      16.281   6.319  18.637  0.00  0.00    -0.003 A 
ENDBRANCH  17  18
ENDBRANCH  16  17
ENDBRANCH  15  16
TORSDOF 6
ENDMDL
MODEL 6
REMARK VINA RESULT:      -6.3      3.300      4.746
REMARK  Name = 
REMARK  6 active torsions:
REMARK  status: ('A' for Active; 'I' for Inactive)
REMARK    1  A    between atoms: C_3  and  C_4
REMARK    2  A    between atoms: C_4  and  N_5
REMARK    3  A    between atoms: C_6  and  C_8
REMARK    4  A    between atoms: C_15  and  N_16
REMARK    5  A    between atoms: N_16  and  C_17
REMARK    6  A    between atoms: C_17  and  C_18
REMARK                            x       y       z     vdW  Elec       q    Type
REMARK                         _______ _______ _______ _____ _____    ______ ____
ROOT
ATOM      1  O   UNL     1      -1.274   1.144  22.906  0.00  0.00    -0.219 OA
ATOM      2  C   UNL     1      -0.919   1.206  23.648  0.00  0.00    +0.199 C 
ATOM      3  C   UNL     1      -0.196   0.876  23.869  0.00  0.00    +0.169 C 
ATOM     13  O   UNL     1      -0.055   1.075  24.656  0.00  0.00    -0.350 OA
ATOM     14  C   UNL     1      -0.691   1.528  24.923  0.00  0.00    +0.162 C 
ATOM     15  C   UNL     1      -1.225   1.609  24.300  0.00  0.00    +0.135 C 
ENDROOT
BRANCH   3   4
ATOM      4  C   UNL     1       0.299   0.426  23.385  0.00  0.00    +0.148 C 
BRANCH   4   5
ATOM      5  N   UNL     1       1.110   0.575  23.373  0.00  0.00    -0.199 NA
ATOM      6  C   UNL     1       1.598   0.163  22.851  0.00  0.00    +0.271 C 
ATOM      7  O   UNL     1       1.274  -0.399  22.341  0.00  0.00    -0.268 OA
BRANCH   6   8
ATOM      8  C   UNL     1       2.409   0.312  22.839  0.00  0.00    +0.084 A 
ATOM      9  C   UNL     1       2.766   1.055  22.799  0.00  0.00    +0.012 A 
ATOM     10  C   UNL     1       3.583   0.946  22.800  0.00  0.00    +0.008 A 
ATOM     11  C   UNL     1       3.732   0.136  22.841  0.00  0.00    +0.036 A 
ATOM     12  S   UNL     1       3.008  -0.256  22.865  0.00  0.00    -0.082 S 
ENDBRANCH   6   8
ENDBRANCH   4   5
ENDBRANCH   3   4
BRANCH  15  16
ATOM     16  N   UNL     1      -1.939   2.021  24.324  0.00  0.00    -0.209 NA
BRANCH  16  17
ATOM     17  C   UNL     1      -2.363   2.069  25.030  0.00  0.00    +0.115 C 
BRANCH  17  18
ATOM     18  C   UNL     1      -3.085   2.469  25.051  0.00  0.00    -0.005 A 
ATOM     19  C   UNL     1      -3.103   3.282  25.189  0.00  0.00    -0.003 A 
ATOM     20  C   UNL     1      -3.824   3.681  25.211  0.00  0.00    -0.000 A 
ATOM     21  C   UNL     1      -4.528   3.267  25.094  0.00  0.00    -0.000 A 
ATOM     22  C   UNL     1      -4.511   2.454  24.956  0.00  0.00    -0.000 A 
ATOM     23  C   UNL     1      -3.789   2.054  24.934  0.00  0.00    -0.003 A 
ENDBRANCH  17  18
ENDBRANCH  16  17
ENDBRANCH  15  16
TORSDOF 6
ENDMDL
MODEL 7
REMARK VINA RESULT:      -5.8     19.737     20.914
REMARK  Name = 
REMARK  6 active torsions:
REMARK  status: ('A' for Active; 'I' for Inactive)
REMARK    1  A    between atoms: C_3  and  C_4
REMARK    2  A    between atoms: C_4  and  N_5
REMARK    3  A    between atoms: C_6  and  C_8
REMARK    4  A    between atoms: C_15  and  N_16
REMARK    5  A    between atoms: N_16  and  C_17
REMARK    6  A    between atoms: C_17  and  C_18
REMARK                            x       y       z     vdW  Elec       q    Type
REMARK                         _______ _______ _______ _____ _____    ______ ____
ROOT
ATOM      1  O   UNL     1      17.302  -5.604  23.283  0.00  0.00    -0.219 OA
ATOM      2  C   UNL     1      17.216  -5.341  24.060  0.00  0.00    +0.199 C 
ATOM      3  C   UNL     1      17.197  -5.816  24.734  0.00  0.00    +0.169 C 
ATOM     13  O   UNL     1      17.104  -5.325  25.389  0.00  0.00    -0.350 OA
ATOM     14  C   UNL     1      17.066  -4.546  25.121  0.00  0.00    +0.162 C 
ATOM     15  C   UNL     1      17.136  -4.555  24.300  0.00  0.00    +0.135 C 
ENDROOT
BRANCH   3   4
ATOM      4  C   UNL     1      17.259  -6.639  24.748  0.00  0.00    +0.148 C 
BRANCH   4   5
ATOM      5  N   UNL     1      16.810  -7.077  25.284  0.00  0.00    -0.199 NA
ATOM      6  C   UNL     1      16.874  -7.900  25.301  0.00  0.00    +0.271 C 
ATOM      7  O   UNL     1      17.388  -8.283  24.781  0.00  0.00    -0.268 OA
BRANCH   6   8
ATOM      8  C   UNL     1      16.425  -8.338  25.836  0.00  0.00    +0.084 A 
ATOM      9  C   UNL     1      15.701  -8.700  25.680  0.00  0.00    +0.012 A 
ATOM     10  C   UNL     1      15.450  -9.076  26.369  0.00  0.00    +0.008 A 
ATOM     11  C   UNL     1      16.019  -8.948  26.952  0.00  0.00    +0.036 A 
ATOM     12  S   UNL     1      16.622  -8.492  26.623  0.00  0.00    -0.082 S 
ENDBRANCH   6   8
ENDBRANCH   4   5
ENDBRANCH   3   4
BRANCH  15  16
ATOM     16  N   UNL     1      17.126  -3.896  23.805  0.00  0.00    -0.209 NA
BRANCH  16  17
ATOM     17  C   UNL     1      16.786  -3.190  24.065  0.00  0.00    +0.115 C 
BRANCH  17  18
ATOM     18  C   UNL     1      16.747  -2.540  23.558  0.00  0.00    -0.005 A 
ATOM     19  C   UNL     1      16.054  -2.383  23.140  0.00  0.00    -0.003 A 
ATOM     20  C   UNL     1      16.015  -1.733  22.633  0.00  0.00    -0.000 A 
ATOM     21  C   UNL     1      16.670  -1.240  22.545  0.00  0.00    -0.000 A 
ATOM     22  C   UNL     1      17.364  -1.396  22.963  0.00  0.00    -0.000 A 
ATOM     23  C   UNL     1      17.403  -2.046  23.470  0.00  0.00    -0.003 A 
ENDBRANCH  17  18
ENDBRANCH  16  17
ENDBRANCH  15  16
TORSDOF 6
ENDMDL
MODEL 8
REMARK VINA RESULT:      -5.8      2.949      4.545
REMARK  Name = 
REMARK  6 active torsions:
REMARK  status: ('A' for Active; 'I' for Inactive)
REMARK    1  A    between atoms: C_3  and  C_4
REMARK    2  A    between atoms: C_4  and  N_5
REMARK    3  A    between atoms: C_6  and  C_8
REMARK    4  A    between atoms: C_15  and  N_16
REMARK    5  A    between atoms: N_16  and  C_17
REMARK    6  A    between atoms: C_17  and  C_18
REMARK                            x       y       z     vdW  Elec       q    Type
REMARK                         _______ _______ _______ _____ _____    ______ ____
ROOT
ATOM      1  O   UNL     1      -1.641  -0.549  24.223  0.00  0.00    -0.219 OA
ATOM      2  C   UNL     1      -1.530   0.250  24.394  0.00  0.00    +0.199 C 
ATOM      3  C   UNL     1      -2.093   0.760  24.716  0.00  0.00    +0.169 C 
ATOM     13  O   UNL     1      -1.748   1.504  24.793  0.00  0.00    -0.350 OA
ATOM     14  C   UNL     1      -0.972   1.456  24.519  0.00  0.00    +0.162 C 
ATOM     15  C   UNL     1      -0.837   0.681  24.272  0.00  0.00    +0.135 C 
ENDROOT
BRANCH   3   4
ATOM      4  C   UNL     1      -2.866   0.559  24.924  0.00  0.00    +0.148 C 
BRANCH   4   5
ATOM      5  N   UNL     1      -3.457   1.135  24.921  0.00  0.00    -0.199 NA
ATOM      6  C   UNL     1      -4.225   0.940  25.153  0.00  0.00    +0.271 C 
ATOM      7  O   UNL     1      -4.401   0.169  25.388  0.00  0.00    -0.268 OA
BRANCH   6   8
ATOM      8  C   UNL     1      -4.815   1.516  25.151  0.00  0.00    +0.084 A 
ATOM      9  C   UNL     1      -4.707   2.322  25.290  0.00  0.00    +0.012 A 
ATOM     10  C   UNL     1      -5.442   2.691  25.234  0.00  0.00    +0.008 A 
ATOM     11  C   UNL     1      -6.005   2.114  25.061  0.00  0.00    +0.036 A 
ATOM     12  S   UNL     1      -5.618   1.388  25.010  0.00  0.00    -0.082 S 
ENDBRANCH   6   8
ENDBRANCH   4   5
ENDBRANCH   3   4
BRANCH  15  16
ATOM     16  N   UNL     1      -0.133   0.387  23.959  0.00  0.00    -0.209 NA
BRANCH  16  17
ATOM     17  C   UNL     1       0.357   0.879  23.513  0.00  0.00    +0.115 C 
BRANCH  17  18
ATOM     18  C   UNL     1       1.064   0.587  23.203  0.00  0.00    -0.005 A 
ATOM     19  C   UNL     1       1.782   0.925  23.425  0.00  0.00    -0.003 A 
ATOM     20  C   UNL     1       2.490   0.633  23.116  0.00  0.00    -0.000 A 
ATOM     21  C   UNL     1       2.477   0.002  22.585  0.00  0.00    -0.000 A 
ATOM     22  C   UNL     1       1.759  -0.336  22.362  0.00  0.00    -0.000 A 
ATOM     23  C   UNL     1       1.051  -0.044  22.672  0.00  0.00    -0.003 A 
ENDBRANCH  17  18
ENDBRANCH  16  17
ENDBRANCH  15  16
TORSDOF 6
ENDMDL
MODEL 9
REMARK VINA RESULT:      -5.7     17.693     19.482
REMARK  Name = 
REMARK  6 active torsions:
REMARK  status: ('A' for Active; 'I' for Inactive)
REMARK    1  A    between atoms: C_3  and  C_4
REMARK    2  A    between atoms: C_4  and  N_5
REMARK    3  A    between atoms: C_6  and  C_8
REMARK    4  A    between atoms: C_15  and  N_16
REMARK    5  A    between atoms: N_16  and  C_17
REMARK    6  A    between atoms: C_17  and  C_18
REMARK                            x       y       z     vdW  Elec       q    Type
REMARK                         _______ _______ _______ _____ _____    ______ ____
ROOT
ATOM      1  O   UNL     1      14.836   7.238  17.651  0.00  0.00    -0.219 OA
ATOM      2  C   UNL     1      14.602   7.897  18.087  0.00  0.00    +0.199 C 
ATOM      3  C   UNL     1      14.088   8.490  17.832  0.00  0.00    +0.169 C 
ATOM     13  O   UNL     1      14.009   9.039  18.443  0.00  0.00    -0.350 OA
ATOM     14  C   UNL     1      14.474   8.786  19.075  0.00  0.00    +0.162 C 
ATOM     15  C   UNL     1      14.840   8.080  18.856  0.00  0.00    +0.135 C 
ENDROOT
BRANCH   3   4
ATOM      4  C   UNL     1      13.718   8.527  17.096  0.00  0.00    +0.148 C 
BRANCH   4   5
ATOM      5  N   UNL     1      12.897   8.595  17.049  0.00  0.00    -0.199 NA
ATOM      6  C   UNL     1      12.538   8.776  16.328  0.00  0.00    +0.271 C 
ATOM      7  O   UNL     1      13.001   8.887  15.654  0.00  0.00    -0.268 OA
BRANCH   6   8
ATOM      8  C   UNL     1      11.717   8.844  16.282  0.00  0.00    +0.084 A 
ATOM      9  C   UNL     1      11.288   9.094  15.623  0.00  0.00    +0.012 A 
ATOM     10  C   UNL     1      10.488   9.079  15.820  0.00  0.00    +0.008 A 
ATOM     11  C   UNL     1      10.422   8.821  16.601  0.00  0.00    +0.036 A 
ATOM     12  S   UNL     1      11.181   8.676  16.886  0.00  0.00    -0.082 S 
ENDBRANCH   6   8
ENDBRANCH   4   5
ENDBRANCH   3   4
BRANCH  15  16
ATOM     16  N   UNL     1      15.355   7.636  19.323  0.00  0.00    -0.209 NA
BRANCH  16  17
ATOM     17  C   UNL     1      15.523   7.875  20.094  0.00  0.00    +0.115 C 
BRANCH  17  18
ATOM     18  C   UNL     1      16.071   7.455  20.546  0.00  0.00    -0.005 A 
ATOM     19  C   UNL     1      15.831   6.789  20.971  0.00  0.00    -0.003 A 
ATOM     20  C   UNL     1      16.379   6.369  21.423  0.00  0.00    -0.000 A 
ATOM     21  C   UNL     1      17.166   6.615  21.451  0.00  0.00    -0.000 A 
ATOM     22  C   UNL     1      17.405   7.281  21.026  0.00  0.00    -0.000 A 
ATOM     23  C   UNL     1      16.857   7.701  20.574  0.00  0.00    -0.003 A 
ENDBRANCH  17  18
ENDBRANCH  16  17
ENDBRANCH  15  16
TORSDOF 6
ENDMDL
