MODEL 1
REMARK VINA RESULT:     -12.9      0.000      0.000
REMARK  Name = 
REMARK  8 active torsions:
REMARK  status: ('A' for Active; 'I' for Inactive)
REMARK    1  A    between atoms: C_2  and  C_4
REMARK    2  A    between atoms: N_7  and  C_10
REMARK    3  A    between atoms: C_12  and  C_16
REMARK    4  A    between atoms: C_19  and  C_21
REMARK    5  A    between atoms: N_25  and  C_26
REMARK    6  A    between atoms: C_26  and  C_27
REMARK    7  A    between atoms: C_31  and  O_32
REMARK    8  A    between atoms: O_32  and  C_33
REMARK                            x       y       z     vdW  Elec       q    Type
REMARK                         _______ _______ _______ _____ _____    ______ ____
ROOT
ATOM     16  C   UNL     1      -0.466   2.636  24.926  0.00  0.00    +0.203 A 
ATOM     17  N   UNL     1       0.217   2.478  25.363  0.00  0.00    -0.056 NA
ATOM     18  O   UNL     1       0.527   1.760  25.100  0.00  0.00    -0.336 OA
ATOM     19  C   UNL     1       0.037   1.474  24.501  0.00  0.00    +0.251 A 
ATOM     20  N   UNL     1      -0.577   2.016  24.394  0.00  0.00    -0.190 NA
ENDROOT
BRANCH  16  12
ATOM     10  C   UNL     1      -2.252   3.865  25.179  0.00  0.00    +0.132 A 
ATOM     11  C   UNL     1      -1.766   3.203  25.098  0.00  0.00    +0.037 A 
ATOM     12  C   UNL     1      -0.951   3.298  25.008  0.00  0.00    +0.043 A 
ATOM     13  C   UNL     1      -0.623   4.054  24.999  0.00  0.00    +0.024 A 
ATOM     14  C   UNL     1      -1.108   4.716  25.080  0.00  0.00    +0.100 A 
ATOM     15  N   UNL     1      -1.923   4.622  25.171  0.00  0.00    -0.229 NA
BRANCH  10   7
ATOM      4  C   UNL     1      -4.695   3.583  25.452  0.00  0.00    +0.083 C 
ATOM      5  C   UNL     1      -4.217   3.697  26.114  0.00  0.00    +0.031 C 
ATOM      6  C   UNL     1      -3.402   3.790  26.024  0.00  0.00    +0.093 C 
ATOM      7  N   UNL     1      -3.066   3.771  25.270  0.00  0.00    -0.293 N 
ATOM      8  C   UNL     1      -3.545   3.657  24.608  0.00  0.00    +0.093 C 
ATOM      9  C   UNL     1      -4.360   3.563  24.699  0.00  0.00    +0.031 C 
BRANCH   4   2
ATOM      1  N   UNL     1      -5.851   2.742  25.460  0.00  0.00    -0.088 NA
ATOM      2  C   UNL     1      -5.510   3.489  25.544  0.00  0.00    +0.260 C 
ATOM      3  O   UNL     1      -5.984   4.141  25.719  0.00  0.00    -0.272 OA
ENDBRANCH   4   2
ENDBRANCH  10   7
ENDBRANCH  16  12
BRANCH  19  21
ATOM     21  C   UNL     1       0.141   0.771  24.084  0.00  0.00    +0.138 C 
ATOM     22  C   UNL     1       0.586   0.678  23.394  0.00  0.00    +0.027 C 
ATOM     23  C   UNL     1       0.539  -0.114  23.166  0.00  0.00    +0.019 C 
ATOM     24  C   UNL     1       0.066  -0.510  23.713  0.00  0.00    +0.073 C 
ATOM     25  N   UNL     1      -0.180   0.037  24.281  0.00  0.00    -0.263 NA
BRANCH  25  26
ATOM     26  C   UNL     1      -0.662  -0.122  24.931  0.00  0.00    +0.100 C 
BRANCH  26  27
ATOM     27  C   UNL     1      -1.243  -0.705  24.880  0.00  0.00    -0.003 A 
ATOM     28  C   UNL     1      -1.043  -1.498  24.990  0.00  0.00    -0.003 A 
ATOM     29  C   UNL     1      -1.625  -2.081  24.939  0.00  0.00    +0.003 A 
ATOM     30  C   UNL     1      -2.406  -1.871  24.779  0.00  0.00    +0.037 A 
ATOM     31  C   UNL     1      -2.607  -1.078  24.670  0.00  0.00    +0.147 A 
ATOM     37  C   UNL     1      -2.025  -0.495  24.720  0.00  0.00    +0.034 A 
BRANCH  31  32
ATOM     32  O   UNL     1      -3.389  -0.868  24.510  0.00  0.00    -0.404 OA
BRANCH  32  33
ATOM     33  C   UNL     1      -3.806  -0.398  25.044  0.00  0.00    +0.575 C 
ATOM     34  F   UNL     1      -4.223   0.074  25.577  0.00  0.00    -0.133 F 
ATOM     35  F   UNL     1      -3.660   0.264  24.573  0.00  0.00    -0.133 F 
ATOM     36  F   UNL     1      -3.952  -1.059  25.514  0.00  0.00    -0.133 F 
ENDBRANCH  32  33
ENDBRANCH  31  32
ENDBRANCH  26  27
ENDBRANCH  25  26
ENDBRANCH  19  21
TORSDOF 8
ENDMDL
MODEL 2
REMARK VINA RESULT:     -12.8      1.285      4.608
REMARK  Name = 
REMARK  8 active torsions:
REMARK  status: ('A' for Active; 'I' for Inactive)
REMARK    1  A    between atoms: C_2  and  C_4
REMARK    2  A    between atoms: N_7  and  C_10
REMARK    3  A    between atoms: C_12  and  C_16
REMARK    4  A    between atoms: C_19  and  C_21
REMARK    5  A    between atoms: N_25  and  C_26
REMARK    6  A    between atoms: C_26  and  C_27
REMARK    7  A    between atoms: C_31  and  O_32
REMARK    8  A    between atoms: O_32  and  C_33
REMARK                            x       y       z     vdW  Elec       q    Type
REMARK                         _______ _______ _______ _____ _____    ______ ____
ROOT
ATOM     16  C   UNL     1      -0.369   1.744  24.936  0.00  0.00    +0.203 A 
ATOM     17  N   UNL     1       0.044   1.961  25.617  0.00  0.00    -0.056 NA
ATOM     18  O   UNL     1      -0.146   2.744  25.792  0.00  0.00    -0.336 OA
ATOM     19  C   UNL     1      -0.676   3.012  25.219  0.00  0.00    +0.251 A 
ATOM     20  N   UNL     1      -0.814   2.394  24.690  0.00  0.00    -0.190 NA
ENDROOT
BRANCH  16  12
ATOM     10  C   UNL     1      -0.915  -0.280  24.328  0.00  0.00    +0.132 A 
ATOM     11  C   UNL     1      -0.943   0.457  24.698  0.00  0.00    +0.037 A 
ATOM     12  C   UNL     1      -0.342   1.007  24.566  0.00  0.00    +0.043 A 
ATOM     13  C   UNL     1       0.286   0.821  24.065  0.00  0.00    +0.024 A 
ATOM     14  C   UNL     1       0.313   0.084  23.695  0.00  0.00    +0.100 A 
ATOM     15  N   UNL     1      -0.287  -0.467  23.826  0.00  0.00    -0.229 NA
BRANCH  10   7
ATOM      4  C   UNL     1      -2.717  -1.931  24.721  0.00  0.00    +0.083 C 
ATOM      5  C   UNL     1      -2.906  -1.151  24.530  0.00  0.00    +0.031 C 
ATOM      6  C   UNL     1      -2.306  -0.600  24.399  0.00  0.00    +0.093 C 
ATOM      7  N   UNL     1      -1.515  -0.830  24.459  0.00  0.00    -0.293 N 
ATOM      8  C   UNL     1      -1.326  -1.610  24.651  0.00  0.00    +0.093 C 
ATOM      9  C   UNL     1      -1.927  -2.160  24.782  0.00  0.00    +0.031 C 
BRANCH   4   2
ATOM      1  N   UNL     1      -3.790  -2.731  24.224  0.00  0.00    -0.088 NA
ATOM      2  C   UNL     1      -3.318  -2.480  24.852  0.00  0.00    +0.260 C 
ATOM      3  O   UNL     1      -3.447  -2.779  25.610  0.00  0.00    -0.272 OA
ENDBRANCH   4   2
ENDBRANCH  10   7
ENDBRANCH  16  12
BRANCH  19  21
ATOM     21  C   UNL     1      -1.010   3.765  25.181  0.00  0.00    +0.138 C 
ATOM     22  C   UNL     1      -0.658   4.436  24.854  0.00  0.00    +0.027 C 
ATOM     23  C   UNL     1      -1.185   5.066  24.935  0.00  0.00    +0.019 C 
ATOM     24  C   UNL     1      -1.862   4.785  25.311  0.00  0.00    +0.073 C 
ATOM     25  N   UNL     1      -1.755   3.981  25.464  0.00  0.00    -0.263 NA
BRANCH  25  26
ATOM     26  C   UNL     1      -2.296   3.481  25.834  0.00  0.00    +0.100 C 
BRANCH  26  27
ATOM     27  C   UNL     1      -3.105   3.588  25.714  0.00  0.00    -0.003 A 
ATOM     28  C   UNL     1      -3.538   4.070  26.226  0.00  0.00    -0.003 A 
ATOM     29  C   UNL     1      -4.346   4.177  26.107  0.00  0.00    +0.003 A 
ATOM     30  C   UNL     1      -4.724   3.803  25.476  0.00  0.00    +0.037 A 
ATOM     31  C   UNL     1      -4.292   3.321  24.964  0.00  0.00    +0.147 A 
ATOM     37  C   UNL     1      -3.482   3.214  25.083  0.00  0.00    +0.034 A 
BRANCH  31  32
ATOM     32  O   UNL     1      -4.669   2.947  24.332  0.00  0.00    -0.404 OA
BRANCH  32  33
ATOM     33  C   UNL     1      -4.905   2.160  24.402  0.00  0.00    +0.575 C 
ATOM     34  F   UNL     1      -5.141   1.372  24.472  0.00  0.00    -0.133 F 
ATOM     35  F   UNL     1      -4.208   1.918  24.031  0.00  0.00    -0.133 F 
ATOM     36  F   UNL     1      -5.601   2.401  24.772  0.00  0.00    -0.133 F 
ENDBRANCH  32  33
ENDBRANCH  31  32
ENDBRANCH  26  27
ENDBRANCH  25  26
ENDBRANCH  19  21
TORSDOF 8
ENDMDL
MODEL 3
REMARK VINA RESULT:     -12.4      1.758      4.573
REMARK  Name = 
REMARK  8 active torsions:
REMARK  status: ('A' for Active; 'I' for Inactive)
REMARK    1  A    between atoms: C_2  and  C_4
REMARK    2  A    between atoms: N_7  and  C_10
REMARK    3  A    between atoms: C_12  and  C_16
REMARK    4  A    between atoms: C_19  and  C_21
REMARK    5  A    between atoms: N_25  and  C_26
REMARK    6  A    between atoms: C_26  and  C_27
REMARK    7  A    between atoms: C_31  and  O_32
REMARK    8  A    between atoms: O_32  and  C_33
REMARK                            x       y       z     vdW  Elec       q    Type
REMARK                         _______ _______ _______ _____ _____    ______ ____
ROOT
ATOM     16  C   UNL     1      -4.168   2.928  25.433  0.00  0.00    +0.203 A 
ATOM     17  N   UNL     1      -4.357   3.482  26.015  0.00  0.00    -0.056 NA
ATOM     18  O   UNL     1      -3.736   4.024  26.061  0.00  0.00    -0.336 OA
ATOM     19  C   UNL     1      -3.164   3.805  25.509  0.00  0.00    +0.251 A 
ATOM     20  N   UNL     1      -3.432   3.127  25.120  0.00  0.00    -0.190 NA
ENDROOT
BRANCH  16  12
ATOM     10  C   UNL     1      -4.763   0.899  24.892  0.00  0.00    +0.132 A 
ATOM     11  C   UNL     1      -4.296   1.540  25.120  0.00  0.00    +0.037 A 
ATOM     12  C   UNL     1      -4.635   2.287  25.204  0.00  0.00    +0.043 A 
ATOM     13  C   UNL     1      -5.440   2.395  25.059  0.00  0.00    +0.024 A 
ATOM     14  C   UNL     1      -5.907   1.754  24.831  0.00  0.00    +0.100 A 
ATOM     15  N   UNL     1      -5.569   1.006  24.747  0.00  0.00    -0.229 NA
BRANCH  10   7
ATOM      4  C   UNL     1      -3.750  -1.345  24.641  0.00  0.00    +0.083 C 
ATOM      5  C   UNL     1      -3.773  -0.983  25.382  0.00  0.00    +0.031 C 
ATOM      6  C   UNL     1      -4.111  -0.235  25.466  0.00  0.00    +0.093 C 
ATOM      7  N   UNL     1      -4.426   0.151  24.808  0.00  0.00    -0.293 N 
ATOM      8  C   UNL     1      -4.403  -0.211  24.067  0.00  0.00    +0.093 C 
ATOM      9  C   UNL     1      -4.065  -0.959  23.984  0.00  0.00    +0.031 C 
BRANCH   4   2
ATOM      1  N   UNL     1      -3.869  -2.723  24.283  0.00  0.00    -0.088 NA
ATOM      2  C   UNL     1      -3.412  -2.093  24.559  0.00  0.00    +0.260 C 
ATOM      3  O   UNL     1      -2.620  -2.212  24.751  0.00  0.00    -0.272 OA
ENDBRANCH   4   2
ENDBRANCH  10   7
ENDBRANCH  16  12
BRANCH  19  21
ATOM     21  C   UNL     1      -2.451   4.193  25.369  0.00  0.00    +0.138 C 
ATOM     22  C   UNL     1      -2.365   4.949  25.048  0.00  0.00    +0.027 C 
ATOM     23  C   UNL     1      -1.558   5.118  25.006  0.00  0.00    +0.019 C 
ATOM     24  C   UNL     1      -1.146   4.467  25.300  0.00  0.00    +0.073 C 
ATOM     25  N   UNL     1      -1.697   3.896  25.524  0.00  0.00    -0.263 NA
BRANCH  25  26
ATOM     26  C   UNL     1      -1.525   3.156  25.847  0.00  0.00    +0.100 C 
BRANCH  26  27
ATOM     27  C   UNL     1      -0.853   2.746  25.602  0.00  0.00    -0.003 A 
ATOM     28  C   UNL     1      -0.172   2.752  26.070  0.00  0.00    -0.003 A 
ATOM     29  C   UNL     1       0.500   2.342  25.826  0.00  0.00    +0.003 A 
ATOM     30  C   UNL     1       0.493   1.925  25.114  0.00  0.00    +0.037 A 
ATOM     31  C   UNL     1      -0.187   1.918  24.646  0.00  0.00    +0.147 A 
ATOM     37  C   UNL     1      -0.859   2.329  24.891  0.00  0.00    +0.034 A 
BRANCH  31  32
ATOM     32  O   UNL     1      -0.194   1.501  23.934  0.00  0.00    -0.404 OA
BRANCH  32  33
ATOM     33  C   UNL     1      -0.538   0.753  23.899  0.00  0.00    +0.575 C 
ATOM     34  F   UNL     1      -0.883   0.004  23.864  0.00  0.00    -0.133 F 
ATOM     35  F   UNL     1      -1.243   1.090  23.634  0.00  0.00    -0.133 F 
ATOM     36  F   UNL     1       0.166   0.415  24.163  0.00  0.00    -0.133 F 
ENDBRANCH  32  33
ENDBRANCH  31  32
ENDBRANCH  26  27
ENDBRANCH  25  26
ENDBRANCH  19  21
TORSDOF 8
ENDMDL
MODEL 4
REMARK VINA RESULT:     -12.4      1.778      3.599
REMARK  Name = 
REMARK  8 active torsions:
REMARK  status: ('A' for Active; 'I' for Inactive)
REMARK    1  A    between atoms: C_2  and  C_4
REMARK    2  A    between atoms: N_7  and  C_10
REMARK    3  A    between atoms: C_12  and  C_16
REMARK    4  A    between atoms: C_19  and  C_21
REMARK    5  A    between atoms: N_25  and  C_26
REMARK    6  A    between atoms: C_26  and  C_27
REMARK    7  A    between atoms: C_31  and  O_32
REMARK    8  A    between atoms: O_32  and  C_33
REMARK                            x       y       z     vdW  Elec       q    Type
REMARK                         _______ _______ _______ _____ _____    ______ ____
ROOT
ATOM     16  C   UNL     1      -4.626   0.962  25.220  0.00  0.00    +0.203 A 
ATOM     17  N   UNL     1      -4.946   0.483  25.811  0.00  0.00    -0.056 NA
ATOM     18  O   UNL     1      -4.753  -0.300  25.637  0.00  0.00    -0.336 OA
ATOM     19  C   UNL     1      -4.314  -0.305  24.938  0.00  0.00    +0.251 A 
ATOM     20  N   UNL     1      -4.236   0.475  24.681  0.00  0.00    -0.190 NA
ENDROOT
BRANCH  16  12
ATOM     10  C   UNL     1      -4.064   3.069  25.125  0.00  0.00    +0.132 A 
ATOM     11  C   UNL     1      -4.004   2.247  25.169  0.00  0.00    +0.037 A 
ATOM     12  C   UNL     1      -4.687   1.784  25.176  0.00  0.00    +0.043 A 
ATOM     13  C   UNL     1      -5.428   2.141  25.140  0.00  0.00    +0.024 A 
ATOM     14  C   UNL     1      -5.489   2.963  25.096  0.00  0.00    +0.100 A 
ATOM     15  N   UNL     1      -4.807   3.427  25.089  0.00  0.00    -0.229 NA
BRANCH  10   7
ATOM      4  C   UNL     1      -2.018   4.462  25.103  0.00  0.00    +0.083 C 
ATOM      5  C   UNL     1      -2.310   4.168  25.817  0.00  0.00    +0.031 C 
ATOM      6  C   UNL     1      -2.992   3.704  25.825  0.00  0.00    +0.093 C 
ATOM      7  N   UNL     1      -3.382   3.533  25.117  0.00  0.00    -0.293 N 
ATOM      8  C   UNL     1      -3.090   3.827  24.404  0.00  0.00    +0.093 C 
ATOM      9  C   UNL     1      -2.408   4.291  24.397  0.00  0.00    +0.031 C 
BRANCH   4   2
ATOM      1  N   UNL     1      -0.595   4.569  25.036  0.00  0.00    -0.088 NA
ATOM      2  C   UNL     1      -1.336   4.926  25.097  0.00  0.00    +0.260 C 
ATOM      3  O   UNL     1      -1.395   5.747  25.152  0.00  0.00    -0.272 OA
ENDBRANCH   4   2
ENDBRANCH  10   7
ENDBRANCH  16  12
BRANCH  19  21
ATOM     21  C   UNL     1      -4.008  -0.972  24.563  0.00  0.00    +0.138 C 
ATOM     22  C   UNL     1      -4.370  -1.396  23.954  0.00  0.00    +0.027 C 
ATOM     23  C   UNL     1      -3.871  -2.019  23.745  0.00  0.00    +0.019 C 
ATOM     24  C   UNL     1      -3.201  -1.980  24.224  0.00  0.00    +0.073 C 
ATOM     25  N   UNL     1      -3.285  -1.333  24.729  0.00  0.00    -0.263 NA
BRANCH  25  26
ATOM     26  C   UNL     1      -2.742  -1.091  25.301  0.00  0.00    +0.100 C 
BRANCH  26  27
ATOM     27  C   UNL     1      -1.934  -1.112  25.137  0.00  0.00    -0.003 A 
ATOM     28  C   UNL     1      -1.530  -1.831  25.143  0.00  0.00    -0.003 A 
ATOM     29  C   UNL     1      -0.722  -1.852  24.979  0.00  0.00    +0.003 A 
ATOM     30  C   UNL     1      -0.317  -1.154  24.810  0.00  0.00    +0.037 A 
ATOM     31  C   UNL     1      -0.720  -0.434  24.804  0.00  0.00    +0.147 A 
ATOM     37  C   UNL     1      -1.529  -0.413  24.968  0.00  0.00    +0.034 A 
BRANCH  31  32
ATOM     32  O   UNL     1      -0.316   0.265  24.635  0.00  0.00    -0.404 OA
BRANCH  32  33
ATOM     33  C   UNL     1      -0.652   0.823  24.129  0.00  0.00    +0.575 C 
ATOM     34  F   UNL     1      -0.989   1.382  23.623  0.00  0.00    -0.133 F 
ATOM     35  F   UNL     1      -0.908   1.259  24.781  0.00  0.00    -0.133 F 
ATOM     36  F   UNL     1      -0.396   0.387  23.477  0.00  0.00    -0.133 F 
ENDBRANCH  32  33
ENDBRANCH  31  32
ENDBRANCH  26  27
ENDBRANCH  25  26
ENDBRANCH  19  21
TORSDOF 8
ENDMDL
MODEL 5
REMARK VINA RESULT:     -11.5      1.761      3.959
REMARK  Name = 
REMARK  8 active torsions:
REMARK  status: ('A' for Active; 'I' for Inactive)
REMARK    1  A    between atoms: C_2  and  C_4
REMARK    2  A    between atoms: N_7  and  C_10
REMARK    3  A    between atoms: C_12  and  C_16
REMARK    4  A    between atoms: C_19  and  C_21
REMARK    5  A    between atoms: N_25  and  C_26
REMARK    6  A    between atoms: C_26  and  C_27
REMARK    7  A    between atoms: C_31  and  O_32
REMARK    8  A    between atoms: O_32  and  C_33
REMARK                            x       y       z     vdW  Elec       q    Type
REMARK                         _______ _______ _______ _____ _____    ______ ____
ROOT
ATOM     16  C   UNL     1      -1.304  -0.096  24.628  0.00  0.00    +0.203 A 
ATOM     17  N   UNL     1      -1.221  -0.768  25.100  0.00  0.00    -0.056 NA
ATOM     18  O   UNL     1      -1.939  -1.175  25.091  0.00  0.00    -0.336 OA
ATOM     19  C   UNL     1      -2.465  -0.755  24.614  0.00  0.00    +0.251 A 
ATOM     20  N   UNL     1      -2.072  -0.088  24.328  0.00  0.00    -0.190 NA
ENDROOT
BRANCH  16  12
ATOM     10  C   UNL     1      -0.294   1.832  24.466  0.00  0.00    +0.132 A 
ATOM     11  C   UNL     1      -0.878   1.268  24.612  0.00  0.00    +0.037 A 
ATOM     12  C   UNL     1      -0.720   0.469  24.481  0.00  0.00    +0.043 A 
ATOM     13  C   UNL     1       0.020   0.234  24.205  0.00  0.00    +0.024 A 
ATOM     14  C   UNL     1       0.604   0.798  24.059  0.00  0.00    +0.100 A 
ATOM     15  N   UNL     1       0.447   1.597  24.189  0.00  0.00    -0.229 NA
BRANCH  10   7
ATOM      4  C   UNL     1      -0.764   4.231  24.856  0.00  0.00    +0.083 C 
ATOM      5  C   UNL     1      -0.648   3.953  24.088  0.00  0.00    +0.031 C 
ATOM      6  C   UNL     1      -0.491   3.153  23.958  0.00  0.00    +0.093 C 
ATOM      7  N   UNL     1      -0.451   2.632  24.597  0.00  0.00    -0.293 N 
ATOM      8  C   UNL     1      -0.566   2.910  25.364  0.00  0.00    +0.093 C 
ATOM      9  C   UNL     1      -0.723   3.710  25.494  0.00  0.00    +0.031 C 
BRANCH   4   2
ATOM      1  N   UNL     1      -1.621   5.259  25.356  0.00  0.00    -0.088 NA
ATOM      2  C   UNL     1      -0.920   5.031  24.985  0.00  0.00    +0.260 C 
ATOM      3  O   UNL     1      -0.377   5.602  24.744  0.00  0.00    -0.272 OA
ENDBRANCH   4   2
ENDBRANCH  10   7
ENDBRANCH  16  12
BRANCH  19  21
ATOM     21  C   UNL     1      -3.246  -0.964  24.452  0.00  0.00    +0.138 C 
ATOM     22  C   UNL     1      -3.491  -1.596  23.981  0.00  0.00    +0.027 C 
ATOM     23  C   UNL     1      -4.317  -1.600  23.970  0.00  0.00    +0.019 C 
ATOM     24  C   UNL     1      -4.581  -0.972  24.434  0.00  0.00    +0.073 C 
ATOM     25  N   UNL     1      -3.920  -0.578  24.732  0.00  0.00    -0.263 NA
BRANCH  25  26
ATOM     26  C   UNL     1      -3.931   0.084  25.223  0.00  0.00    +0.100 C 
BRANCH  26  27
ATOM     27  C   UNL     1      -4.520   0.654  25.135  0.00  0.00    -0.003 A 
ATOM     28  C   UNL     1      -5.224   0.589  25.561  0.00  0.00    -0.003 A 
ATOM     29  C   UNL     1      -5.814   1.158  25.473  0.00  0.00    +0.003 A 
ATOM     30  C   UNL     1      -5.700   1.793  24.959  0.00  0.00    +0.037 A 
ATOM     31  C   UNL     1      -4.997   1.859  24.532  0.00  0.00    +0.147 A 
ATOM     37  C   UNL     1      -4.407   1.289  24.621  0.00  0.00    +0.034 A 
BRANCH  31  32
ATOM     32  O   UNL     1      -4.883   2.494  24.018  0.00  0.00    -0.404 OA
BRANCH  32  33
ATOM     33  C   UNL     1      -4.405   3.126  24.244  0.00  0.00    +0.575 C 
ATOM     34  F   UNL     1      -3.925   3.759  24.470  0.00  0.00    -0.133 F 
ATOM     35  F   UNL     1      -3.788   2.822  23.788  0.00  0.00    -0.133 F 
ATOM     36  F   UNL     1      -5.021   3.431  24.700  0.00  0.00    -0.133 F 
ENDBRANCH  32  33
ENDBRANCH  31  32
ENDBRANCH  26  27
ENDBRANCH  25  26
ENDBRANCH  19  21
TORSDOF 8
ENDMDL
