REMARK  Name = 
REMARK  10 active torsions:
REMARK  status: ('A' for Active; 'I' for Inactive)
REMARK    1  A    between atoms: O_2  and  C_3
REMARK    2  A    between atoms: C_3  and  C_5
REMARK    3  A    between atoms: C_5  and  C_6
REMARK    4  A    between atoms: C_5  and  N_15
REMARK    5  A    between atoms: C_6  and  C_7
REMARK    6  A    between atoms: C_10  and  O_11
REMARK    7  A    between atoms: C_16  and  C_18
REMARK    8  A    between atoms: N_20  and  S_31
REMARK    9  A    between atoms: C_24  and  C_26
REMARK   10  A    between atoms: S_31  and  C_34
REMARK                            x       y       z     vdW  Elec       q    Type
REMARK                         _______ _______ _______ _____ _____    ______ ____
ROOT
ATOM     18  C   UNL     1       0.442  -4.950   0.000  0.00  0.00    +0.172 C 
ATOM     19  C   UNL     1       0.855  -4.236   0.000  0.00  0.00    +0.125 C 
ATOM     20  N   UNL     1       1.680  -4.236   0.000  0.00  0.00    -0.152 NA
ATOM     21  C   UNL     1       2.092  -4.950   0.000  0.00  0.00    +0.117 C 
ATOM     22  C   UNL     1       1.680  -5.665   0.000  0.00  0.00    +0.113 C 
ATOM     23  N   UNL     1       0.855  -5.665   0.000  0.00  0.00    -0.266 N 
ATOM     24  C   UNL     1       0.442  -6.379   0.000  0.00  0.00    +0.255 C 
ATOM     25  O   UNL     1      -0.383  -6.379   0.000  0.00  0.00    -0.269 OA
ENDROOT
BRANCH  24  26
ATOM     26  C   UNL     1       0.855  -7.093   0.000  0.00  0.00    +0.083 A 
ATOM     27  C   UNL     1       1.675  -7.180   0.000  0.00  0.00    +0.012 A 
ATOM     28  C   UNL     1       1.847  -7.987   0.000  0.00  0.00    +0.008 A 
ATOM     29  C   UNL     1       1.132  -8.399   0.000  0.00  0.00    +0.036 A 
ATOM     30  S   UNL     1       0.519  -7.847   0.000  0.00  0.00    -0.082 S 
ENDBRANCH  24  26
BRANCH  18  16
ATOM     15  N   UNL     1      -0.795  -5.665   0.000  0.00  0.00    -0.194 NA
ATOM     16  C   UNL     1      -0.383  -4.950   0.000  0.00  0.00    +0.261 C 
ATOM     17  O   UNL     1      -0.795  -4.236   0.000  0.00  0.00    -0.271 OA
BRANCH  15   5
ATOM      5  C   UNL     1      -1.620  -5.665   0.000  0.00  0.00    +0.198 C 
BRANCH   5   3
ATOM      3  C   UNL     1      -2.033  -4.950   0.000  0.00  0.00    +0.337 C 
ATOM      4  O   UNL     1      -1.620  -4.236   0.000  0.00  0.00    -0.248 OA
BRANCH   3   2
ATOM      1  C   UNL     1      -3.270  -4.236   0.000  0.00  0.00    +0.256 C 
ATOM      2  O   UNL     1      -2.858  -4.950   0.000  0.00  0.00    -0.443 OA
ENDBRANCH   3   2
ENDBRANCH   5   3
BRANCH   5   6
ATOM      6  C   UNL     1      -2.033  -6.379   0.000  0.00  0.00    +0.059 C 
BRANCH   6   7
ATOM      7  C   UNL     1      -2.858  -6.379   0.000  0.00  0.00    -0.020 A 
ATOM      8  C   UNL     1      -3.270  -7.093   0.000  0.00  0.00    -0.001 A 
ATOM      9  C   UNL     1      -4.095  -7.093   0.000  0.00  0.00    +0.037 A 
ATOM     10  C   UNL     1      -4.508  -6.379   0.000  0.00  0.00    +0.139 A 
ATOM     13  C   UNL     1      -4.095  -5.665   0.000  0.00  0.00    +0.037 A 
ATOM     14  C   UNL     1      -3.270  -5.665   0.000  0.00  0.00    -0.001 A 
BRANCH  10  11
ATOM     11  O   UNL     1      -5.333  -6.379   0.000  0.00  0.00    -0.471 OA
ATOM     12  C   UNL     1      -5.745  -7.093   0.000  0.00  0.00    +0.252 C 
ENDBRANCH  10  11
ENDBRANCH   6   7
ENDBRANCH   5   6
ENDBRANCH  15   5
ENDBRANCH  18  16
BRANCH  20  31
ATOM     31  S   UNL     1       2.092  -3.521   0.000  0.00  0.00    +0.063 S 
ATOM     32  O   UNL     1       2.807  -3.934   0.000  0.00  0.00    -0.153 OA
ATOM     33  O   UNL     1       1.378  -3.109   0.000  0.00  0.00    -0.153 OA
BRANCH  31  34
ATOM     34  C   UNL     1       2.505  -2.807   0.000  0.00  0.00    +0.122 A 
ATOM     35  C   UNL     1       2.092  -2.092   0.000  0.00  0.00    +0.020 A 
ATOM     36  C   UNL     1       2.505  -1.378   0.000  0.00  0.00    +0.001 A 
ATOM     37  C   UNL     1       3.330  -1.378   0.000  0.00  0.00    +0.000 A 
ATOM     38  C   UNL     1       3.742  -2.092   0.000  0.00  0.00    +0.001 A 
ATOM     39  C   UNL     1       3.330  -2.807   0.000  0.00  0.00    +0.020 A 
ENDBRANCH  31  34
ENDBRANCH  20  31
TORSDOF 10
