MODEL 1
REMARK VINA RESULT:      -9.7      0.000      0.000
REMARK  Name = 
REMARK  6 active torsions:
REMARK  status: ('A' for Active; 'I' for Inactive)
REMARK    1  A    between atoms: O_2  and  C_3
REMARK    2  A    between atoms: C_6  and  C_9
REMARK    3  A    between atoms: N_14  and  C_15
REMARK    4  A    between atoms: C_19  and  N_23
REMARK    5  A    between atoms: N_26  and  C_27
REMARK    6  A    between atoms: C_27  and  C_28
REMARK                            x       y       z     vdW  Elec       q    Type
REMARK                         _______ _______ _______ _____ _____    ______ ____
ROOT
ATOM     15  C   UNL     1      -0.663   1.624  24.754  0.00  0.00    +0.154 C 
ATOM     16  C   UNL     1      -0.174   2.147  25.164  0.00  0.00    +0.166 C 
ATOM     17  O   UNL     1       0.584   2.090  24.845  0.00  0.00    -0.350 OA
ATOM     18  C   UNL     1       0.565   1.532  24.238  0.00  0.00    +0.166 C 
ATOM     19  C   UNL     1       1.021   1.151  23.666  0.00  0.00    +0.156 C 
ATOM     20  C   UNL     1       0.532   0.628  23.256  0.00  0.00    +0.166 C 
ATOM     21  O   UNL     1      -0.226   0.686  23.574  0.00  0.00    -0.350 OA
ATOM     22  C   UNL     1      -0.206   1.244  24.182  0.00  0.00    +0.166 C 
ENDROOT
BRANCH  15  14
ATOM      9  C   UNL     1      -3.322   2.652  24.954  0.00  0.00    +0.086 A 
ATOM     10  C   UNL     1      -3.043   3.408  24.779  0.00  0.00    +0.040 A 
ATOM     11  C   UNL     1      -2.239   3.529  24.641  0.00  0.00    +0.103 A 
ATOM     12  N   UNL     1      -1.713   2.894  24.679  0.00  0.00    -0.211 NA
ATOM     13  C   UNL     1      -1.993   2.138  24.854  0.00  0.00    +0.237 A 
ATOM     14  N   UNL     1      -1.467   1.503  24.891  0.00  0.00    -0.200 NA
ATOM     34  N   UNL     1      -2.797   2.017  24.992  0.00  0.00    -0.212 NA
BRANCH   9   6
ATOM      3  C   UNL     1      -5.736   2.288  25.367  0.00  0.00    +0.139 A 
ATOM      4  C   UNL     1      -5.334   2.890  25.766  0.00  0.00    +0.037 A 
ATOM      5  C   UNL     1      -4.530   3.011  25.628  0.00  0.00    +0.005 A 
ATOM      6  C   UNL     1      -4.126   2.531  25.092  0.00  0.00    +0.018 A 
ATOM      7  C   UNL     1      -4.527   1.930  24.694  0.00  0.00    +0.005 A 
ATOM      8  C   UNL     1      -5.332   1.809  24.831  0.00  0.00    +0.037 A 
BRANCH   3   2
ATOM      1  C   UNL     1      -6.791   1.849  26.223  0.00  0.00    +0.252 C 
ATOM      2  O   UNL     1      -6.539   2.168  25.505  0.00  0.00    -0.471 OA
ENDBRANCH   3   2
ENDBRANCH   9   6
ENDBRANCH  15  14
BRANCH  19  23
ATOM     23  N   UNL     1       1.826   1.272  23.528  0.00  0.00    -0.184 NA
ATOM     24  C   UNL     1       2.298   0.649  23.266  0.00  0.00    +0.340 C 
ATOM     25  O   UNL     1       1.966  -0.096  23.141  0.00  0.00    -0.249 OA
ATOM     26  N   UNL     1       3.102   0.770  23.128  0.00  0.00    -0.182 NA
BRANCH  26  27
ATOM     27  C   UNL     1       3.575   0.147  22.866  0.00  0.00    +0.143 C 
BRANCH  27  28
ATOM     28  C   UNL     1       4.328   0.036  23.184  0.00  0.00    -0.001 A 
ATOM     29  C   UNL     1       4.880   0.648  23.163  0.00  0.00    -0.003 A 
ATOM     30  C   UNL     1       5.632   0.537  23.481  0.00  0.00    -0.000 A 
ATOM     31  C   UNL     1       5.833  -0.187  23.822  0.00  0.00    -0.000 A 
ATOM     32  C   UNL     1       5.281  -0.801  23.844  0.00  0.00    -0.000 A 
ATOM     33  C   UNL     1       4.528  -0.689  23.525  0.00  0.00    -0.003 A 
ENDBRANCH  27  28
ENDBRANCH  26  27
ENDBRANCH  19  23
TORSDOF 6
ENDMDL
MODEL 2
REMARK VINA RESULT:      -9.1      1.239      7.899
REMARK  Name = 
REMARK  6 active torsions:
REMARK  status: ('A' for Active; 'I' for Inactive)
REMARK    1  A    between atoms: O_2  and  C_3
REMARK    2  A    between atoms: C_6  and  C_9
REMARK    3  A    between atoms: N_14  and  C_15
REMARK    4  A    between atoms: C_19  and  N_23
REMARK    5  A    between atoms: N_26  and  C_27
REMARK    6  A    between atoms: C_27  and  C_28
REMARK                            x       y       z     vdW  Elec       q    Type
REMARK                         _______ _______ _______ _____ _____    ______ ____
ROOT
ATOM     15  C   UNL     1      -0.070   0.980  23.957  0.00  0.00    +0.154 C 
ATOM     16  C   UNL     1      -0.550   0.316  23.866  0.00  0.00    +0.166 C 
ATOM     17  O   UNL     1      -1.334   0.572  23.838  0.00  0.00    -0.350 OA
ATOM     18  C   UNL     1      -1.338   1.393  23.912  0.00  0.00    +0.166 C 
ATOM     19  C   UNL     1      -1.824   2.059  23.941  0.00  0.00    +0.156 C 
ATOM     20  C   UNL     1      -1.343   2.723  24.032  0.00  0.00    +0.166 C 
ATOM     21  O   UNL     1      -0.560   2.467  24.060  0.00  0.00    -0.350 OA
ATOM     22  C   UNL     1      -0.556   1.645  23.986  0.00  0.00    +0.166 C 
ENDROOT
BRANCH  15  14
ATOM      9  C   UNL     1       2.477   0.204  22.918  0.00  0.00    +0.086 A 
ATOM     10  C   UNL     1       2.104  -0.182  22.291  0.00  0.00    +0.040 A 
ATOM     11  C   UNL     1       1.280  -0.180  22.238  0.00  0.00    +0.103 A 
ATOM     12  N   UNL     1       0.830   0.206  22.811  0.00  0.00    -0.211 NA
ATOM     13  C   UNL     1       1.204   0.592  23.438  0.00  0.00    +0.237 A 
ATOM     14  N   UNL     1       0.754   0.979  24.011  0.00  0.00    -0.200 NA
ATOM     34  N   UNL     1       2.027   0.590  23.491  0.00  0.00    -0.212 NA
BRANCH   9   6
ATOM      3  C   UNL     1       4.947   0.198  23.077  0.00  0.00    +0.139 A 
ATOM      4  C   UNL     1       4.553   0.868  22.800  0.00  0.00    +0.037 A 
ATOM      5  C   UNL     1       3.730   0.870  22.747  0.00  0.00    +0.005 A 
ATOM      6  C   UNL     1       3.300   0.202  22.971  0.00  0.00    +0.018 A 
ATOM      7  C   UNL     1       3.694  -0.468  23.248  0.00  0.00    +0.005 A 
ATOM      8  C   UNL     1       4.518  -0.469  23.301  0.00  0.00    +0.037 A 
BRANCH   3   2
ATOM      1  C   UNL     1       6.137   0.007  23.845  0.00  0.00    +0.252 C 
ATOM      2  O   UNL     1       5.770   0.197  23.130  0.00  0.00    -0.471 OA
ENDBRANCH   3   2
ENDBRANCH   9   6
ENDBRANCH  15  14
BRANCH  19  23
ATOM     23  N   UNL     1      -2.648   2.060  23.887  0.00  0.00    -0.184 NA
ATOM     24  C   UNL     1      -3.096   2.475  24.441  0.00  0.00    +0.340 C 
ATOM     25  O   UNL     1      -2.722   2.889  25.049  0.00  0.00    -0.249 OA
ATOM     26  N   UNL     1      -3.920   2.477  24.388  0.00  0.00    -0.182 NA
BRANCH  26  27
ATOM     27  C   UNL     1      -4.368   2.892  24.942  0.00  0.00    +0.143 C 
BRANCH  27  28
ATOM     28  C   UNL     1      -5.092   2.589  25.198  0.00  0.00    -0.001 A 
ATOM     29  C   UNL     1      -5.504   2.049  24.731  0.00  0.00    -0.003 A 
ATOM     30  C   UNL     1      -6.226   1.747  24.987  0.00  0.00    -0.000 A 
ATOM     31  C   UNL     1      -6.538   1.985  25.713  0.00  0.00    -0.000 A 
ATOM     32  C   UNL     1      -6.127   2.525  26.183  0.00  0.00    -0.000 A 
ATOM     33  C   UNL     1      -5.403   2.827  25.925  0.00  0.00    -0.003 A 
ENDBRANCH  27  28
ENDBRANCH  26  27
ENDBRANCH  19  23
TORSDOF 6
ENDMDL
MODEL 3
REMARK VINA RESULT:      -6.6     18.092     19.193
REMARK  Name = 
REMARK  6 active torsions:
REMARK  status: ('A' for Active; 'I' for Inactive)
REMARK    1  A    between atoms: O_2  and  C_3
REMARK    2  A    between atoms: C_6  and  C_9
REMARK    3  A    between atoms: N_14  and  C_15
REMARK    4  A    between atoms: C_19  and  N_23
REMARK    5  A    between atoms: N_26  and  C_27
REMARK    6  A    between atoms: C_27  and  C_28
REMARK                            x       y       z     vdW  Elec       q    Type
REMARK                         _______ _______ _______ _____ _____    ______ ____
ROOT
ATOM     15  C   UNL     1      16.922  -6.286  27.592  0.00  0.00    +0.154 C 
ATOM     16  C   UNL     1      17.100  -5.582  27.984  0.00  0.00    +0.166 C 
ATOM     17  O   UNL     1      17.254  -5.006  27.414  0.00  0.00    -0.350 OA
ATOM     18  C   UNL     1      17.172  -5.352  26.671  0.00  0.00    +0.166 C 
ATOM     19  C   UNL     1      17.216  -5.212  25.859  0.00  0.00    +0.156 C 
ATOM     20  C   UNL     1      17.038  -5.915  25.467  0.00  0.00    +0.166 C 
ATOM     21  O   UNL     1      16.884  -6.491  26.037  0.00  0.00    -0.350 OA
ATOM     22  C   UNL     1      16.967  -6.144  26.781  0.00  0.00    +0.166 C 
ENDROOT
BRANCH  15  14
ATOM      9  C   UNL     1      15.430  -7.775  29.523  0.00  0.00    +0.086 A 
ATOM     10  C   UNL     1      15.062  -7.080  29.774  0.00  0.00    +0.040 A 
ATOM     11  C   UNL     1      15.252  -6.360  29.417  0.00  0.00    +0.103 A 
ATOM     12  N   UNL     1      15.809  -6.335  28.808  0.00  0.00    -0.211 NA
ATOM     13  C   UNL     1      16.176  -7.031  28.557  0.00  0.00    +0.237 A 
ATOM     14  N   UNL     1      16.733  -7.005  27.949  0.00  0.00    -0.200 NA
ATOM     34  N   UNL     1      15.987  -7.749  28.914  0.00  0.00    -0.212 NA
BRANCH   9   6
ATOM      3  C   UNL     1      14.862  -9.932  30.595  0.00  0.00    +0.139 A 
ATOM      4  C   UNL     1      14.504  -9.717  29.882  0.00  0.00    +0.037 A 
ATOM      5  C   UNL     1      14.693  -8.999  29.526  0.00  0.00    +0.005 A 
ATOM      6  C   UNL     1      15.241  -8.493  29.880  0.00  0.00    +0.018 A 
ATOM      7  C   UNL     1      15.599  -8.707  30.591  0.00  0.00    +0.005 A 
ATOM      8  C   UNL     1      15.410  -9.427  30.949  0.00  0.00    +0.037 A 
BRANCH   3   2
ATOM      1  C   UNL     1      14.524 -10.682  31.762  0.00  0.00    +0.252 C 
ATOM      2  O   UNL     1      14.673 -10.651  30.952  0.00  0.00    -0.471 OA
ENDBRANCH   3   2
ENDBRANCH   9   6
ENDBRANCH  15  14
BRANCH  19  23
ATOM     23  N   UNL     1      17.405  -4.492  25.502  0.00  0.00    -0.184 NA
ATOM     24  C   UNL     1      16.963  -4.221  24.861  0.00  0.00    +0.340 C 
ATOM     25  O   UNL     1      16.332  -4.669  24.576  0.00  0.00    -0.249 OA
ATOM     26  N   UNL     1      17.152  -3.501  24.504  0.00  0.00    -0.182 NA
BRANCH  26  27
ATOM     27  C   UNL     1      16.710  -3.230  23.862  0.00  0.00    +0.143 C 
BRANCH  27  28
ATOM     28  C   UNL     1      16.895  -2.508  23.508  0.00  0.00    -0.001 A 
ATOM     29  C   UNL     1      17.220  -2.490  22.751  0.00  0.00    -0.003 A 
ATOM     30  C   UNL     1      17.404  -1.769  22.398  0.00  0.00    -0.000 A 
ATOM     31  C   UNL     1      17.264  -1.063  22.802  0.00  0.00    -0.000 A 
ATOM     32  C   UNL     1      16.938  -1.080  23.561  0.00  0.00    -0.000 A 
ATOM     33  C   UNL     1      16.754  -1.803  23.914  0.00  0.00    -0.003 A 
ENDBRANCH  27  28
ENDBRANCH  26  27
ENDBRANCH  19  23
TORSDOF 6
ENDMDL
