REMARK  Name = 
REMARK  8 active torsions:
REMARK  status: ('A' for Active; 'I' for Inactive)
REMARK    1  A    between atoms: C_2  and  C_3
REMARK    2  A    between atoms: N_5  and  S_17
REMARK    3  A    between atoms: C_8  and  C_9
REMARK    4  A    between atoms: C_9  and  C_10
REMARK    5  A    between atoms: N_12  and  C_14
REMARK    6  A    between atoms: C_14  and  C_15
REMARK    7  A    between atoms: S_17  and  C_20
REMARK    8  A    between atoms: C_23  and  O_24
REMARK                            x       y       z     vdW  Elec       q    Type
REMARK                         _______ _______ _______ _____ _____    ______ ____
ROOT
ATOM      3  C   UNL     1      -0.715  -4.537   0.000  0.00  0.00    +0.018 C 
ATOM      4  C   UNL     1      -1.429  -4.125   0.000  0.00  0.00    +0.096 C 
ATOM      5  N   UNL     1      -1.429  -3.300   0.000  0.00  0.00    -0.156 NA
ATOM      6  C   UNL     1      -0.715  -2.888   0.000  0.00  0.00    +0.096 C 
ATOM      7  C   UNL     1       0.000  -3.300   0.000  0.00  0.00    +0.020 C 
ATOM      8  C   UNL     1       0.000  -4.125   0.000  0.00  0.00    +0.012 C 
ENDROOT
BRANCH   5  17
ATOM     17  S   UNL     1      -2.143  -2.888   0.000  0.00  0.00    +0.063 S 
ATOM     18  O   UNL     1      -1.731  -2.173   0.000  0.00  0.00    -0.153 OA
ATOM     19  O   UNL     1      -2.556  -3.602   0.000  0.00  0.00    -0.153 OA
BRANCH  17  20
ATOM     20  C   UNL     1      -2.858  -2.475   0.000  0.00  0.00    +0.122 A 
ATOM     21  C   UNL     1      -3.572  -2.888   0.000  0.00  0.00    +0.023 A 
ATOM     22  C   UNL     1      -4.287  -2.475   0.000  0.00  0.00    +0.038 A 
ATOM     23  C   UNL     1      -4.287  -1.650   0.000  0.00  0.00    +0.139 A 
ATOM     26  C   UNL     1      -3.572  -1.238   0.000  0.00  0.00    +0.038 A 
ATOM     27  C   UNL     1      -2.858  -1.650   0.000  0.00  0.00    +0.023 A 
BRANCH  23  24
ATOM     24  O   UNL     1      -5.001  -1.238   0.000  0.00  0.00    -0.471 OA
ATOM     25  C   UNL     1      -5.716  -1.650   0.000  0.00  0.00    +0.252 C 
ENDBRANCH  23  24
ENDBRANCH  17  20
ENDBRANCH   5  17
BRANCH   3   2
ATOM      1  C   UNL     1       0.000  -5.775   0.000  0.00  0.00    +0.000 C 
ATOM      2  C   UNL     1      -0.715  -5.362   0.000  0.00  0.00    +0.001 C 
ENDBRANCH   3   2
BRANCH   8   9
ATOM      9  C   UNL     1       0.715  -4.537   0.000  0.00  0.00    +0.085 C 
BRANCH   9  10
ATOM     10  C   UNL     1       1.429  -4.125   0.000  0.00  0.00    +0.226 C 
ATOM     11  O   UNL     1       1.429  -3.300   0.000  0.00  0.00    -0.275 OA
ATOM     12  N   UNL     1       2.143  -4.537   0.000  0.00  0.00    -0.265 N 
ATOM     13  C   UNL     1       2.143  -5.362   0.000  0.00  0.00    +0.116 C 
BRANCH  12  14
ATOM     14  C   UNL     1       2.858  -4.125   0.000  0.00  0.00    +0.200 C 
BRANCH  14  15
ATOM     15  C   UNL     1       3.572  -4.537   0.000  0.00  0.00    +0.095 C 
ATOM     16  N   UNL     1       4.287  -4.950   0.000  0.00  0.00    -0.194 NA
ENDBRANCH  14  15
ENDBRANCH  12  14
ENDBRANCH   9  10
ENDBRANCH   8   9
TORSDOF 8
