REMARK  Name = 
REMARK  6 active torsions:
REMARK  status: ('A' for Active; 'I' for Inactive)
REMARK    1  A    between atoms: C_2  and  C_4
REMARK    2  A    between atoms: C_2  and  C_8
REMARK    3  A    between atoms: C_4  and  C_5
REMARK    4  A    between atoms: C_8  and  C_9
REMARK    5  A    between atoms: C_16  and  C_17
REMARK    6  A    between atoms: C_19  and  C_22
REMARK                            x       y       z     vdW  Elec       q    Type
REMARK                         _______ _______ _______ _____ _____    ______ ____
ROOT
ATOM      9  C   UNL     1      -2.534   1.165   0.000  0.00  0.00    +0.226 C 
ATOM     10  O   UNL     1      -2.199   0.411   0.000  0.00  0.00    -0.275 OA
ATOM     11  N   UNL     1      -2.049   1.832   0.000  0.00  0.00    -0.267 N 
ATOM     12  C   UNL     1      -2.385   2.586   0.000  0.00  0.00    +0.141 C 
ATOM     13  C   UNL     1      -1.900   3.253   0.000  0.00  0.00    +0.094 A 
ATOM     14  C   UNL     1      -1.079   3.167   0.000  0.00  0.00    +0.078 A 
ATOM     15  C   UNL     1      -0.744   2.413   0.000  0.00  0.00    +0.077 C 
ATOM     16  C   UNL     1      -1.229   1.746   0.000  0.00  0.00    +0.161 C 
ATOM     32  N   UNL     1      -0.744   3.921   0.000  0.00  0.00    -0.227 NA
ATOM     33  C   UNL     1      -1.357   4.473   0.000  0.00  0.00    +0.198 A 
ATOM     34  N   UNL     1      -2.071   4.060   0.000  0.00  0.00    -0.225 NA
ENDROOT
BRANCH  16  17
ATOM     17  C   UNL     1      -0.893   0.992   0.000  0.00  0.00    +0.255 A 
ATOM     18  N   UNL     1      -0.086   0.821   0.000  0.00  0.00    -0.189 NA
ATOM     19  C   UNL     1       0.000   0.000   0.000  0.00  0.00    +0.203 A 
ATOM     20  N   UNL     1      -0.754  -0.336   0.000  0.00  0.00    -0.056 NA
ATOM     21  O   UNL     1      -1.306   0.278   0.000  0.00  0.00    -0.335 OA
BRANCH  19  22
ATOM     22  C   UNL     1       0.715  -0.412   0.000  0.00  0.00    +0.039 A 
ATOM     23  C   UNL     1       1.429   0.000   0.000  0.00  0.00    +0.003 A 
ATOM     24  C   UNL     1       2.143  -0.412   0.000  0.00  0.00    +0.000 A 
ATOM     25  C   UNL     1       2.858   0.000   0.000  0.00  0.00    +0.000 A 
ATOM     26  C   UNL     1       3.572  -0.412   0.000  0.00  0.00    +0.000 A 
ATOM     27  C   UNL     1       3.572  -1.238   0.000  0.00  0.00    +0.000 A 
ATOM     28  C   UNL     1       2.858  -1.650   0.000  0.00  0.00    +0.000 A 
ATOM     29  C   UNL     1       2.143  -1.238   0.000  0.00  0.00    +0.000 A 
ATOM     30  C   UNL     1       1.429  -1.650   0.000  0.00  0.00    +0.000 A 
ATOM     31  C   UNL     1       0.715  -1.238   0.000  0.00  0.00    +0.003 A 
ENDBRANCH  19  22
ENDBRANCH  16  17
BRANCH   9   8
ATOM      8  C   UNL     1      -3.355   1.251   0.000  0.00  0.00    +0.086 C 
BRANCH   8   2
ATOM      1  C   UNL     1      -3.172   0.098   0.000  0.00  0.00    +0.001 C 
ATOM      2  C   UNL     1      -3.840   0.583   0.000  0.00  0.00    +0.019 C 
ATOM      3  C   UNL     1      -4.507   1.068   0.000  0.00  0.00    +0.001 C 
BRANCH   2   4
ATOM      4  C   UNL     1      -4.324  -0.084   0.000  0.00  0.00    +0.115 C 
BRANCH   4   5
ATOM      5  C   UNL     1      -5.145   0.002   0.000  0.00  0.00    +0.365 C 
ATOM      6  O   UNL     1      -5.630  -0.665   0.000  0.00  0.00    -0.246 OA
ATOM      7  O   UNL     1      -5.481   0.756   0.000  0.00  0.00    -0.246 OA
ENDBRANCH   4   5
ENDBRANCH   2   4
ENDBRANCH   8   2
ENDBRANCH   9   8
TORSDOF 6
