MODEL 1
REMARK VINA RESULT:     -11.1      0.000      0.000
REMARK  Name = 
REMARK  8 active torsions:
REMARK  status: ('A' for Active; 'I' for Inactive)
REMARK    1  A    between atoms: O_2  and  C_3
REMARK    2  A    between atoms: C_8  and  N_9
REMARK    3  A    between atoms: N_12  and  C_15
REMARK    4  A    between atoms: C_21  and  N_24
REMARK    5  A    between atoms: N_24  and  C_25
REMARK    6  A    between atoms: N_24  and  C_29
REMARK    7  A    between atoms: C_25  and  C_26
REMARK    8  A    between atoms: C_29  and  C_30
REMARK                            x       y       z     vdW  Elec       q    Type
REMARK                         _______ _______ _______ _____ _____    ______ ____
ROOT
ATOM     15  C   UNL     1      -2.795   1.988  24.493  0.00  0.00    +0.147 C 
ATOM     16  C   UNL     1      -3.223   1.793  23.643  0.00  0.00    +0.253 C 
ATOM     17  O   UNL     1      -3.482   0.997  23.362  0.00  0.00    -0.327 OA
ATOM     18  C   UNL     1      -3.193   1.487  23.813  0.00  0.00    +0.176 C 
ATOM     19  C   UNL     1      -3.022   2.239  23.919  0.00  0.00    +0.164 C 
ATOM     20  O   UNL     1      -3.251   2.552  23.322  0.00  0.00    -0.328 OA
ATOM     21  C   UNL     1      -2.613   2.440  24.729  0.00  0.00    +0.120 C 
ATOM     22  C   UNL     1      -2.586   1.677  25.049  0.00  0.00    +0.188 C 
ATOM     23  O   UNL     1      -2.435   1.067  25.584  0.00  0.00    -0.220 OA
ENDROOT
BRANCH  15  12
ATOM      9  N   UNL     1      -3.263  -0.436  24.326  0.00  0.00    -0.302 N 
ATOM     10  C   UNL     1      -3.754   0.048  24.778  0.00  0.00    +0.108 C 
ATOM     11  C   UNL     1      -3.598   0.856  24.833  0.00  0.00    +0.094 C 
ATOM     12  N   UNL     1      -2.951   1.180  24.437  0.00  0.00    -0.265 NA
ATOM     13  C   UNL     1      -2.460   0.695  23.985  0.00  0.00    +0.094 C 
ATOM     14  C   UNL     1      -2.616  -0.113  23.929  0.00  0.00    +0.108 C 
BRANCH   9   8
ATOM      3  C   UNL     1      -2.858  -1.792  24.528  0.00  0.00    +0.152 A 
ATOM      4  C   UNL     1      -3.014  -2.600  24.474  0.00  0.00    +0.038 A 
ATOM      5  C   UNL     1      -3.731  -2.861  24.162  0.00  0.00    +0.003 A 
ATOM      6  C   UNL     1      -4.293  -2.314  23.905  0.00  0.00    +0.001 A 
ATOM      7  C   UNL     1      -4.137  -1.507  23.959  0.00  0.00    +0.018 A 
ATOM      8  C   UNL     1      -3.420  -1.245  24.271  0.00  0.00    +0.082 A 
BRANCH   3   2
ATOM      1  C   UNL     1      -1.556  -2.076  25.043  0.00  0.00    +0.253 C 
ATOM      2  O   UNL     1      -2.139  -1.531  24.840  0.00  0.00    -0.470 OA
ENDBRANCH   3   2
ENDBRANCH   9   8
ENDBRANCH  15  12
BRANCH  21  24
ATOM     24  N   UNL     1      -2.353   3.162  25.036  0.00  0.00    -0.270 NA
BRANCH  24  25
ATOM     25  C   UNL     1      -1.579   3.239  25.311  0.00  0.00    +0.072 C 
BRANCH  25  26
ATOM     26  C   UNL     1      -1.066   3.774  24.951  0.00  0.00    +0.016 C 
ATOM     27  C   UNL     1      -0.427   3.926  24.452  0.00  0.00    +0.001 C 
ATOM     28  C   UNL     1      -0.814   4.550  24.828  0.00  0.00    +0.001 C 
ENDBRANCH  25  26
ENDBRANCH  24  25
BRANCH  24  29
ATOM     29  C   UNL     1      -2.868   3.806  25.067  0.00  0.00    +0.072 C 
BRANCH  29  30
ATOM     30  C   UNL     1      -3.189   4.042  25.789  0.00  0.00    +0.016 C 
ATOM     31  C   UNL     1      -3.843   4.256  26.244  0.00  0.00    +0.001 C 
ATOM     32  C   UNL     1      -3.092   4.239  26.584  0.00  0.00    +0.001 C 
ENDBRANCH  29  30
ENDBRANCH  24  29
ENDBRANCH  21  24
TORSDOF 8
ENDMDL
MODEL 2
REMARK VINA RESULT:     -11.0      0.019      1.384
REMARK  Name = 
REMARK  8 active torsions:
REMARK  status: ('A' for Active; 'I' for Inactive)
REMARK    1  A    between atoms: O_2  and  C_3
REMARK    2  A    between atoms: C_8  and  N_9
REMARK    3  A    between atoms: N_12  and  C_15
REMARK    4  A    between atoms: C_21  and  N_24
REMARK    5  A    between atoms: N_24  and  C_25
REMARK    6  A    between atoms: N_24  and  C_29
REMARK    7  A    between atoms: C_25  and  C_26
REMARK    8  A    between atoms: C_29  and  C_30
REMARK                            x       y       z     vdW  Elec       q    Type
REMARK                         _______ _______ _______ _____ _____    ______ ____
ROOT
ATOM     15  C   UNL     1      -2.788   1.980  24.480  0.00  0.00    +0.147 C 
ATOM     16  C   UNL     1      -3.205   1.781  23.626  0.00  0.00    +0.253 C 
ATOM     17  O   UNL     1      -3.462   0.985  23.346  0.00  0.00    -0.327 OA
ATOM     18  C   UNL     1      -3.178   1.477  23.797  0.00  0.00    +0.176 C 
ATOM     19  C   UNL     1      -3.007   2.228  23.903  0.00  0.00    +0.164 C 
ATOM     20  O   UNL     1      -3.226   2.539  23.301  0.00  0.00    -0.328 OA
ATOM     21  C   UNL     1      -2.607   2.433  24.716  0.00  0.00    +0.120 C 
ATOM     22  C   UNL     1      -2.587   1.670  25.041  0.00  0.00    +0.188 C 
ATOM     23  O   UNL     1      -2.445   1.063  25.581  0.00  0.00    -0.220 OA
ENDROOT
BRANCH  15  12
ATOM      9  N   UNL     1      -3.261  -0.444  24.320  0.00  0.00    -0.302 N 
ATOM     10  C   UNL     1      -3.759   0.044  24.759  0.00  0.00    +0.108 C 
ATOM     11  C   UNL     1      -3.601   0.852  24.813  0.00  0.00    +0.094 C 
ATOM     12  N   UNL     1      -2.946   1.172  24.427  0.00  0.00    -0.265 NA
ATOM     13  C   UNL     1      -2.448   0.682  23.987  0.00  0.00    +0.094 C 
ATOM     14  C   UNL     1      -2.605  -0.126  23.933  0.00  0.00    +0.108 C 
BRANCH   9   8
ATOM      3  C   UNL     1      -2.857  -1.800  24.521  0.00  0.00    +0.152 A 
ATOM      4  C   UNL     1      -3.014  -2.608  24.469  0.00  0.00    +0.038 A 
ATOM      5  C   UNL     1      -3.734  -2.869  24.161  0.00  0.00    +0.003 A 
ATOM      6  C   UNL     1      -4.297  -2.321  23.907  0.00  0.00    +0.001 A 
ATOM      7  C   UNL     1      -4.139  -1.514  23.959  0.00  0.00    +0.018 A 
ATOM      8  C   UNL     1      -3.419  -1.252  24.267  0.00  0.00    +0.082 A 
BRANCH   3   2
ATOM      1  C   UNL     1      -1.556  -2.086  25.040  0.00  0.00    +0.253 C 
ATOM      2  O   UNL     1      -2.136  -1.540  24.829  0.00  0.00    -0.470 OA
ENDBRANCH   3   2
ENDBRANCH   9   8
ENDBRANCH  15  12
BRANCH  21  24
ATOM     24  N   UNL     1      -2.350   3.155  25.023  0.00  0.00    -0.270 NA
BRANCH  24  25
ATOM     25  C   UNL     1      -2.865   3.799  25.048  0.00  0.00    +0.072 C 
BRANCH  25  26
ATOM     26  C   UNL     1      -3.190   4.040  25.766  0.00  0.00    +0.016 C 
ATOM     27  C   UNL     1      -3.847   4.252  26.217  0.00  0.00    +0.001 C 
ATOM     28  C   UNL     1      -3.096   4.245  26.560  0.00  0.00    +0.001 C 
ENDBRANCH  25  26
ENDBRANCH  24  25
BRANCH  24  29
ATOM     29  C   UNL     1      -1.579   3.233  25.305  0.00  0.00    +0.072 C 
BRANCH  29  30
ATOM     30  C   UNL     1      -1.061   3.766  24.949  0.00  0.00    +0.016 C 
ATOM     31  C   UNL     1      -0.434   3.917  24.435  0.00  0.00    +0.001 C 
ATOM     32  C   UNL     1      -0.790   4.538  24.844  0.00  0.00    +0.001 C 
ENDBRANCH  29  30
ENDBRANCH  24  29
ENDBRANCH  21  24
TORSDOF 8
ENDMDL
MODEL 3
REMARK VINA RESULT:     -10.0      1.180      4.872
REMARK  Name = 
REMARK  8 active torsions:
REMARK  status: ('A' for Active; 'I' for Inactive)
REMARK    1  A    between atoms: O_2  and  C_3
REMARK    2  A    between atoms: C_8  and  N_9
REMARK    3  A    between atoms: N_12  and  C_15
REMARK    4  A    between atoms: C_21  and  N_24
REMARK    5  A    between atoms: N_24  and  C_25
REMARK    6  A    between atoms: N_24  and  C_29
REMARK    7  A    between atoms: C_25  and  C_26
REMARK    8  A    between atoms: C_29  and  C_30
REMARK                            x       y       z     vdW  Elec       q    Type
REMARK                         _______ _______ _______ _____ _____    ______ ____
ROOT
ATOM     15  C   UNL     1      -1.725   0.587  24.407  0.00  0.00    +0.147 C 
ATOM     16  C   UNL     1      -1.157   0.992  23.731  0.00  0.00    +0.253 C 
ATOM     17  O   UNL     1      -0.953   1.848  23.668  0.00  0.00    -0.327 OA
ATOM     18  C   UNL     1      -1.263   1.251  23.942  0.00  0.00    +0.176 C 
ATOM     19  C   UNL     1      -1.350   0.482  23.868  0.00  0.00    +0.164 C 
ATOM     20  O   UNL     1      -0.960   0.321  23.294  0.00  0.00    -0.328 OA
ATOM     21  C   UNL     1      -1.891   0.081  24.508  0.00  0.00    +0.120 C 
ATOM     22  C   UNL     1      -2.087   0.757  24.946  0.00  0.00    +0.188 C 
ATOM     23  O   UNL     1      -2.429   1.227  25.532  0.00  0.00    -0.220 OA
ENDROOT
BRANCH  15  12
ATOM      9  N   UNL     1      -1.562   3.026  24.797  0.00  0.00    -0.302 N 
ATOM     10  C   UNL     1      -1.088   2.507  25.229  0.00  0.00    +0.108 C 
ATOM     11  C   UNL     1      -1.142   1.694  25.099  0.00  0.00    +0.094 C 
ATOM     12  N   UNL     1      -1.670   1.400  24.537  0.00  0.00    -0.265 NA
ATOM     13  C   UNL     1      -2.145   1.920  24.106  0.00  0.00    +0.094 C 
ATOM     14  C   UNL     1      -2.090   2.732  24.236  0.00  0.00    +0.108 C 
BRANCH   9   8
ATOM      3  C   UNL     1      -2.103   4.230  25.344  0.00  0.00    +0.152 A 
ATOM      4  C   UNL     1      -2.049   5.043  25.475  0.00  0.00    +0.038 A 
ATOM      5  C   UNL     1      -1.399   5.464  25.190  0.00  0.00    +0.003 A 
ATOM      6  C   UNL     1      -0.804   5.072  24.774  0.00  0.00    +0.001 A 
ATOM      7  C   UNL     1      -0.858   4.261  24.643  0.00  0.00    +0.018 A 
ATOM      8  C   UNL     1      -1.507   3.839  24.928  0.00  0.00    +0.082 A 
BRANCH   3   2
ATOM      1  C   UNL     1      -3.323   4.190  26.086  0.00  0.00    +0.253 C 
ATOM      2  O   UNL     1      -2.753   3.809  25.630  0.00  0.00    -0.470 OA
ENDBRANCH   3   2
ENDBRANCH   9   8
ENDBRANCH  15  12
BRANCH  21  24
ATOM     24  N   UNL     1      -2.110  -0.708  24.610  0.00  0.00    -0.270 NA
BRANCH  24  25
ATOM     25  C   UNL     1      -1.860  -1.123  25.278  0.00  0.00    +0.072 C 
BRANCH  25  26
ATOM     26  C   UNL     1      -1.319  -1.740  25.202  0.00  0.00    +0.016 C 
ATOM     27  C   UNL     1      -0.585  -2.072  25.379  0.00  0.00    +0.001 C 
ATOM     28  C   UNL     1      -1.115  -2.477  24.892  0.00  0.00    +0.001 C 
ENDBRANCH  25  26
ENDBRANCH  24  25
BRANCH  24  29
ATOM     29  C   UNL     1      -2.578  -1.083  24.043  0.00  0.00    +0.072 C 
BRANCH  29  30
ATOM     30  C   UNL     1      -3.357  -1.287  24.221  0.00  0.00    +0.016 C 
ATOM     31  C   UNL     1      -4.141  -1.389  23.984  0.00  0.00    +0.001 C 
ATOM     32  C   UNL     1      -3.924  -1.537  24.767  0.00  0.00    +0.001 C 
ENDBRANCH  29  30
ENDBRANCH  24  29
ENDBRANCH  21  24
TORSDOF 8
ENDMDL
