MODEL 1
REMARK VINA RESULT:      -9.4      0.000      0.000
REMARK  Name = 
REMARK  10 active torsions:
REMARK  status: ('A' for Active; 'I' for Inactive)
REMARK    1  A    between atoms: C_2  and  C_4
REMARK    2  A    between atoms: C_6  and  C_7
REMARK    3  A    between atoms: C_7  and  C_8
REMARK    4  A    between atoms: N_10  and  C_11
REMARK    5  A    between atoms: C_11  and  C_12
REMARK    6  A    between atoms: C_22  and  C_23
REMARK    7  A    between atoms: C_23  and  N_24
REMARK    8  A    between atoms: N_24  and  S_25
REMARK    9  A    between atoms: S_25  and  C_28
REMARK   10  A    between atoms: C_31  and  N_32
REMARK                            x       y       z     vdW  Elec       q    Type
REMARK                         _______ _______ _______ _____ _____    ______ ____
ROOT
ATOM      4  C   UNL     1      -1.026   1.159  24.671  0.00  0.00    +0.006 C 
ATOM      5  C   UNL     1      -1.836   1.300  24.728  0.00  0.00    +0.005 C 
ATOM      6  C   UNL     1      -2.272   1.475  24.050  0.00  0.00    +0.027 C 
ATOM     19  C   UNL     1      -1.897   1.509  23.316  0.00  0.00    -0.048 C 
ATOM     20  C   UNL     1      -2.334   1.685  22.638  0.00  0.00    +0.026 C 
ATOM     21  C   UNL     1      -1.087   1.368  23.260  0.00  0.00    -0.033 C 
ATOM     22  C   UNL     1      -0.651   1.192  23.937  0.00  0.00    +0.041 C 
ENDROOT
BRANCH   4   2
ATOM      1  C   UNL     1      -0.521   0.201  25.605  0.00  0.00    +0.000 C 
ATOM      2  C   UNL     1      -0.589   0.983  25.350  0.00  0.00    +0.000 C 
ATOM      3  C   UNL     1      -0.222   1.589  25.772  0.00  0.00    +0.000 C 
ENDBRANCH   4   2
BRANCH   6   7
ATOM      7  C   UNL     1      -3.083   1.617  24.107  0.00  0.00    +0.091 C 
BRANCH   7   8
ATOM      8  C   UNL     1      -3.564   1.098  24.533  0.00  0.00    +0.242 C 
ATOM      9  O   UNL     1      -3.924   1.349  25.232  0.00  0.00    -0.273 OA
ATOM     10  N   UNL     1      -3.684   0.330  24.259  0.00  0.00    -0.201 NA
BRANCH  10  11
ATOM     11  C   UNL     1      -4.165  -0.188  24.685  0.00  0.00    +0.141 C 
BRANCH  11  12
ATOM     12  C   UNL     1      -4.068  -1.004  24.600  0.00  0.00    -0.000 A 
ATOM     13  C   UNL     1      -3.718  -1.444  25.204  0.00  0.00    -0.000 A 
ATOM     14  C   UNL     1      -3.622  -2.258  25.119  0.00  0.00    +0.029 A 
ATOM     15  C   UNL     1      -3.876  -2.634  24.429  0.00  0.00    +0.140 A 
ATOM     16  F   UNL     1      -3.779  -3.449  24.344  0.00  0.00    -0.204 F 
ATOM     17  C   UNL     1      -4.226  -2.194  23.825  0.00  0.00    +0.029 A 
ATOM     18  C   UNL     1      -4.322  -1.379  23.910  0.00  0.00    -0.000 A 
ENDBRANCH  11  12
ENDBRANCH  10  11
ENDBRANCH   7   8
ENDBRANCH   6   7
BRANCH  22  23
ATOM     23  C   UNL     1       0.160   1.051  23.881  0.00  0.00    +0.120 C 
BRANCH  23  24
ATOM     24  N   UNL     1       0.504   0.913  23.144  0.00  0.00    -0.077 NA
BRANCH  24  25
ATOM     25  S   UNL     1       1.310   0.748  23.090  0.00  0.00    +0.077 S 
ATOM     26  O   UNL     1       1.484   1.498  23.387  0.00  0.00    -0.152 OA
ATOM     27  O   UNL     1       1.138  -0.002  22.794  0.00  0.00    -0.152 OA
BRANCH  25  28
ATOM     28  C   UNL     1       2.117   0.583  23.036  0.00  0.00    +0.124 A 
ATOM     29  C   UNL     1       2.389  -0.188  23.145  0.00  0.00    +0.021 A 
ATOM     30  C   UNL     1       3.195  -0.353  23.091  0.00  0.00    +0.018 A 
ATOM     31  C   UNL     1       3.730   0.253  22.928  0.00  0.00    +0.073 A 
ATOM     36  C   UNL     1       3.459   1.025  22.820  0.00  0.00    +0.018 A 
ATOM     37  C   UNL     1       2.652   1.190  22.874  0.00  0.00    +0.021 A 
BRANCH  31  32
ATOM     32  N   UNL     1       4.536   0.088  22.874  0.00  0.00    -0.179 NA
ATOM     33  C   UNL     1       5.034   0.246  23.513  0.00  0.00    +0.246 C 
ATOM     34  C   UNL     1       5.840   0.082  23.459  0.00  0.00    +0.097 C 
ATOM     35  O   UNL     1       4.725   0.569  24.206  0.00  0.00    -0.273 OA
ENDBRANCH  31  32
ENDBRANCH  25  28
ENDBRANCH  24  25
ENDBRANCH  23  24
ENDBRANCH  22  23
TORSDOF 10
ENDMDL
MODEL 2
REMARK VINA RESULT:      -9.4      1.961      2.789
REMARK  Name = 
REMARK  10 active torsions:
REMARK  status: ('A' for Active; 'I' for Inactive)
REMARK    1  A    between atoms: C_2  and  C_4
REMARK    2  A    between atoms: C_6  and  C_7
REMARK    3  A    between atoms: C_7  and  C_8
REMARK    4  A    between atoms: N_10  and  C_11
REMARK    5  A    between atoms: C_11  and  C_12
REMARK    6  A    between atoms: C_22  and  C_23
REMARK    7  A    between atoms: C_23  and  N_24
REMARK    8  A    between atoms: N_24  and  S_25
REMARK    9  A    between atoms: S_25  and  C_28
REMARK   10  A    between atoms: C_31  and  N_32
REMARK                            x       y       z     vdW  Elec       q    Type
REMARK                         _______ _______ _______ _____ _____    ______ ____
ROOT
ATOM      4  C   UNL     1      -1.736   0.574  24.894  0.00  0.00    +0.006 C 
ATOM      5  C   UNL     1      -2.496   0.385  25.152  0.00  0.00    +0.005 C 
ATOM      6  C   UNL     1      -2.811  -0.360  24.994  0.00  0.00    +0.027 C 
ATOM     19  C   UNL     1      -2.366  -0.917  24.578  0.00  0.00    -0.048 C 
ATOM     20  C   UNL     1      -2.682  -1.663  24.421  0.00  0.00    +0.026 C 
ATOM     21  C   UNL     1      -1.606  -0.728  24.321  0.00  0.00    -0.033 C 
ATOM     22  C   UNL     1      -1.290   0.017  24.479  0.00  0.00    +0.041 C 
ENDROOT
BRANCH   4   2
ATOM      1  C   UNL     1      -0.981   1.445  25.739  0.00  0.00    +0.000 C 
ATOM      2  C   UNL     1      -1.420   1.320  25.052  0.00  0.00    +0.000 C 
ATOM      3  C   UNL     1      -1.544   1.941  24.523  0.00  0.00    +0.000 C 
ENDBRANCH   4   2
BRANCH   6   7
ATOM      7  C   UNL     1      -3.572  -0.549  25.251  0.00  0.00    +0.091 C 
BRANCH   7   8
ATOM      8  C   UNL     1      -4.225  -0.157  24.932  0.00  0.00    +0.242 C 
ATOM      9  O   UNL     1      -4.592  -0.451  24.254  0.00  0.00    -0.273 OA
ATOM     10  N   UNL     1      -4.510   0.528  25.292  0.00  0.00    -0.201 NA
BRANCH  10  11
ATOM     11  C   UNL     1      -5.162   0.920  24.973  0.00  0.00    +0.141 C 
BRANCH  11  12
ATOM     12  C   UNL     1      -5.308   1.707  25.172  0.00  0.00    -0.000 A 
ATOM     13  C   UNL     1      -5.725   1.889  25.861  0.00  0.00    -0.000 A 
ATOM     14  C   UNL     1      -5.871   2.675  26.060  0.00  0.00    +0.029 A 
ATOM     15  C   UNL     1      -5.600   3.282  25.570  0.00  0.00    +0.140 A 
ATOM     16  F   UNL     1      -5.746   4.069  25.769  0.00  0.00    -0.204 F 
ATOM     17  C   UNL     1      -5.183   3.101  24.881  0.00  0.00    +0.029 A 
ATOM     18  C   UNL     1      -5.037   2.313  24.682  0.00  0.00    -0.000 A 
ENDBRANCH  11  12
ENDBRANCH  10  11
ENDBRANCH   7   8
ENDBRANCH   6   7
BRANCH  22  23
ATOM     23  C   UNL     1      -0.530   0.207  24.222  0.00  0.00    +0.120 C 
BRANCH  23  24
ATOM     24  N   UNL     1      -0.179  -0.228  23.615  0.00  0.00    -0.077 NA
BRANCH  24  25
ATOM     25  S   UNL     1       0.592  -0.060  23.379  0.00  0.00    +0.077 S 
ATOM     26  O   UNL     1       0.882  -0.553  23.974  0.00  0.00    -0.152 OA
ATOM     27  O   UNL     1       0.304   0.434  22.784  0.00  0.00    -0.152 OA
BRANCH  25  28
ATOM     28  C   UNL     1       1.365   0.109  23.143  0.00  0.00    +0.124 A 
ATOM     29  C   UNL     1       1.777   0.732  23.494  0.00  0.00    +0.021 A 
ATOM     30  C   UNL     1       2.549   0.900  23.258  0.00  0.00    +0.018 A 
ATOM     31  C   UNL     1       2.910   0.446  22.671  0.00  0.00    +0.073 A 
ATOM     36  C   UNL     1       2.498  -0.177  22.320  0.00  0.00    +0.018 A 
ATOM     37  C   UNL     1       1.725  -0.346  22.557  0.00  0.00    +0.021 A 
BRANCH  31  32
ATOM     32  N   UNL     1       3.682   0.614  22.435  0.00  0.00    -0.179 NA
ATOM     33  C   UNL     1       4.320   0.302  22.855  0.00  0.00    +0.246 C 
ATOM     34  C   UNL     1       5.092   0.470  22.619  0.00  0.00    +0.097 C 
ATOM     35  O   UNL     1       4.185  -0.179  23.512  0.00  0.00    -0.273 OA
ENDBRANCH  31  32
ENDBRANCH  25  28
ENDBRANCH  24  25
ENDBRANCH  23  24
ENDBRANCH  22  23
TORSDOF 10
ENDMDL
MODEL 3
REMARK VINA RESULT:      -8.8      1.936      2.758
REMARK  Name = 
REMARK  10 active torsions:
REMARK  status: ('A' for Active; 'I' for Inactive)
REMARK    1  A    between atoms: C_2  and  C_4
REMARK    2  A    between atoms: C_6  and  C_7
REMARK    3  A    between atoms: C_7  and  C_8
REMARK    4  A    between atoms: N_10  and  C_11
REMARK    5  A    between atoms: C_11  and  C_12
REMARK    6  A    between atoms: C_22  and  C_23
REMARK    7  A    between atoms: C_23  and  N_24
REMARK    8  A    between atoms: N_24  and  S_25
REMARK    9  A    between atoms: S_25  and  C_28
REMARK   10  A    between atoms: C_31  and  N_32
REMARK                            x       y       z     vdW  Elec       q    Type
REMARK                         _______ _______ _______ _____ _____    ______ ____
ROOT
ATOM      4  C   UNL     1      -1.331  -0.002  24.391  0.00  0.00    +0.006 C 
ATOM      5  C   UNL     1      -2.155   0.029  24.402  0.00  0.00    +0.005 C 
ATOM      6  C   UNL     1      -2.558   0.482  23.843  0.00  0.00    +0.027 C 
ATOM     19  C   UNL     1      -2.137   0.903  23.272  0.00  0.00    -0.048 C 
ATOM     20  C   UNL     1      -2.541   1.355  22.712  0.00  0.00    +0.026 C 
ATOM     21  C   UNL     1      -1.313   0.871  23.260  0.00  0.00    -0.033 C 
ATOM     22  C   UNL     1      -0.910   0.419  23.820  0.00  0.00    +0.041 C 
ENDROOT
BRANCH   4   2
ATOM      1  C   UNL     1      -0.689  -0.113  25.663  0.00  0.00    +0.000 C 
ATOM      2  C   UNL     1      -0.927  -0.455  24.951  0.00  0.00    +0.000 C 
ATOM      3  C   UNL     1      -0.763  -1.249  24.799  0.00  0.00    +0.000 C 
ENDBRANCH   4   2
BRANCH   6   7
ATOM      7  C   UNL     1      -3.383   0.513  23.854  0.00  0.00    +0.091 C 
BRANCH   7   8
ATOM      8  C   UNL     1      -3.779   0.705  24.553  0.00  0.00    +0.242 C 
ATOM      9  O   UNL     1      -3.877   0.135  25.141  0.00  0.00    -0.273 OA
ATOM     10  N   UNL     1      -4.075   1.467  24.662  0.00  0.00    -0.201 NA
BRANCH  10  11
ATOM     11  C   UNL     1      -4.471   1.658  25.360  0.00  0.00    +0.141 C 
BRANCH  11  12
ATOM     12  C   UNL     1      -4.843   2.391  25.436  0.00  0.00    -0.000 A 
ATOM     13  C   UNL     1      -5.653   2.429  25.587  0.00  0.00    -0.000 A 
ATOM     14  C   UNL     1      -6.025   3.162  25.662  0.00  0.00    +0.029 A 
ATOM     15  C   UNL     1      -5.586   3.857  25.586  0.00  0.00    +0.140 A 
ATOM     16  F   UNL     1      -5.958   4.589  25.661  0.00  0.00    -0.204 F 
ATOM     17  C   UNL     1      -4.776   3.819  25.435  0.00  0.00    +0.029 A 
ATOM     18  C   UNL     1      -4.404   3.085  25.359  0.00  0.00    -0.000 A 
ENDBRANCH  11  12
ENDBRANCH  10  11
ENDBRANCH   7   8
ENDBRANCH   6   7
BRANCH  22  23
ATOM     23  C   UNL     1      -0.085   0.387  23.809  0.00  0.00    +0.120 C 
BRANCH  23  24
ATOM     24  N   UNL     1       0.334   0.774  23.213  0.00  0.00    -0.077 NA
BRANCH  24  25
ATOM     25  S   UNL     1       1.144   0.648  23.131  0.00  0.00    +0.077 S 
ATOM     26  O   UNL     1       1.295   1.251  23.672  0.00  0.00    -0.152 OA
ATOM     27  O   UNL     1       0.995   0.043  22.589  0.00  0.00    -0.152 OA
BRANCH  25  28
ATOM     28  C   UNL     1       1.956   0.520  23.048  0.00  0.00    +0.124 A 
ATOM     29  C   UNL     1       2.467   1.161  22.953  0.00  0.00    +0.021 A 
ATOM     30  C   UNL     1       3.277   1.034  22.870  0.00  0.00    +0.018 A 
ATOM     31  C   UNL     1       3.578   0.265  22.882  0.00  0.00    +0.073 A 
ATOM     36  C   UNL     1       3.067  -0.376  22.977  0.00  0.00    +0.018 A 
ATOM     37  C   UNL     1       2.256  -0.248  23.060  0.00  0.00    +0.021 A 
BRANCH  31  32
ATOM     32  N   UNL     1       4.388   0.138  22.799  0.00  0.00    -0.179 NA
ATOM     33  C   UNL     1       4.891   0.244  23.445  0.00  0.00    +0.246 C 
ATOM     34  C   UNL     1       5.701   0.116  23.362  0.00  0.00    +0.097 C 
ATOM     35  O   UNL     1       4.583   0.478  24.173  0.00  0.00    -0.273 OA
ENDBRANCH  31  32
ENDBRANCH  25  28
ENDBRANCH  24  25
ENDBRANCH  23  24
ENDBRANCH  22  23
TORSDOF 10
ENDMDL
MODEL 4
REMARK VINA RESULT:      -8.8      2.624      6.973
REMARK  Name = 
REMARK  10 active torsions:
REMARK  status: ('A' for Active; 'I' for Inactive)
REMARK    1  A    between atoms: C_2  and  C_4
REMARK    2  A    between atoms: C_6  and  C_7
REMARK    3  A    between atoms: C_7  and  C_8
REMARK    4  A    between atoms: N_10  and  C_11
REMARK    5  A    between atoms: C_11  and  C_12
REMARK    6  A    between atoms: C_22  and  C_23
REMARK    7  A    between atoms: C_23  and  N_24
REMARK    8  A    between atoms: N_24  and  S_25
REMARK    9  A    between atoms: S_25  and  C_28
REMARK   10  A    between atoms: C_31  and  N_32
REMARK                            x       y       z     vdW  Elec       q    Type
REMARK                         _______ _______ _______ _____ _____    ______ ____
ROOT
ATOM      4  C   UNL     1      -0.188   1.114  24.136  0.00  0.00    +0.006 C 
ATOM      5  C   UNL     1       0.468   0.667  23.914  0.00  0.00    +0.005 C 
ATOM      6  C   UNL     1       0.371  -0.120  23.686  0.00  0.00    +0.027 C 
ATOM     19  C   UNL     1      -0.381  -0.459  23.681  0.00  0.00    -0.048 C 
ATOM     20  C   UNL     1      -0.476  -1.247  23.453  0.00  0.00    +0.026 C 
ATOM     21  C   UNL     1      -1.036  -0.011  23.903  0.00  0.00    -0.033 C 
ATOM     22  C   UNL     1      -0.940   0.775  24.131  0.00  0.00    +0.041 C 
ENDROOT
BRANCH   4   2
ATOM      1  C   UNL     1       0.042   2.088  25.156  0.00  0.00    +0.000 C 
ATOM      2  C   UNL     1      -0.092   1.902  24.364  0.00  0.00    +0.000 C 
ATOM      3  C   UNL     1      -0.130   2.502  23.799  0.00  0.00    +0.000 C 
ENDBRANCH   4   2
BRANCH   6   7
ATOM      7  C   UNL     1       1.028  -0.569  23.464  0.00  0.00    +0.091 C 
BRANCH   7   8
ATOM      8  C   UNL     1       1.603  -0.241  22.970  0.00  0.00    +0.242 C 
ATOM      9  O   UNL     1       1.394   0.040  22.223  0.00  0.00    -0.273 OA
ATOM     10  N   UNL     1       2.386  -0.196  23.224  0.00  0.00    -0.201 NA
BRANCH  10  11
ATOM     11  C   UNL     1       2.961   0.132  22.730  0.00  0.00    +0.141 C 
BRANCH  11  12
ATOM     12  C   UNL     1       3.748   0.160  22.977  0.00  0.00    -0.000 A 
ATOM     13  C   UNL     1       4.105  -0.511  23.297  0.00  0.00    -0.000 A 
ATOM     14  C   UNL     1       4.892  -0.482  23.544  0.00  0.00    +0.029 A 
ATOM     15  C   UNL     1       5.322   0.219  23.469  0.00  0.00    +0.140 A 
ATOM     16  F   UNL     1       6.109   0.247  23.715  0.00  0.00    -0.204 F 
ATOM     17  C   UNL     1       4.965   0.890  23.148  0.00  0.00    +0.029 A 
ATOM     18  C   UNL     1       4.177   0.861  22.902  0.00  0.00    -0.000 A 
ENDBRANCH  11  12
ENDBRANCH  10  11
ENDBRANCH   7   8
ENDBRANCH   6   7
BRANCH  22  23
ATOM     23  C   UNL     1      -1.596   1.224  24.353  0.00  0.00    +0.120 C 
BRANCH  23  24
ATOM     24  N   UNL     1      -2.353   0.902  24.299  0.00  0.00    -0.077 NA
BRANCH  24  25
ATOM     25  S   UNL     1      -3.013   1.371  24.456  0.00  0.00    +0.077 S 
ATOM     26  O   UNL     1      -2.919   1.235  25.264  0.00  0.00    -0.152 OA
ATOM     27  O   UNL     1      -3.109   1.507  23.648  0.00  0.00    -0.152 OA
BRANCH  25  28
ATOM     28  C   UNL     1      -3.674   1.840  24.612  0.00  0.00    +0.124 A 
ATOM     29  C   UNL     1      -3.724   2.600  24.295  0.00  0.00    +0.021 A 
ATOM     30  C   UNL     1      -4.384   3.069  24.451  0.00  0.00    +0.018 A 
ATOM     31  C   UNL     1      -4.994   2.779  24.925  0.00  0.00    +0.073 A 
ATOM     36  C   UNL     1      -4.944   2.019  25.242  0.00  0.00    +0.018 A 
ATOM     37  C   UNL     1      -4.283   1.549  25.086  0.00  0.00    +0.021 A 
BRANCH  31  32
ATOM     32  N   UNL     1      -5.654   3.248  25.081  0.00  0.00    -0.179 NA
ATOM     33  C   UNL     1      -5.613   3.843  25.651  0.00  0.00    +0.246 C 
ATOM     34  C   UNL     1      -6.273   4.311  25.808  0.00  0.00    +0.097 C 
ATOM     35  O   UNL     1      -4.911   3.968  26.066  0.00  0.00    -0.273 OA
ENDBRANCH  31  32
ENDBRANCH  25  28
ENDBRANCH  24  25
ENDBRANCH  23  24
ENDBRANCH  22  23
TORSDOF 10
ENDMDL
MODEL 5
REMARK VINA RESULT:      -8.1      2.980      5.469
REMARK  Name = 
REMARK  10 active torsions:
REMARK  status: ('A' for Active; 'I' for Inactive)
REMARK    1  A    between atoms: C_2  and  C_4
REMARK    2  A    between atoms: C_6  and  C_7
REMARK    3  A    between atoms: C_7  and  C_8
REMARK    4  A    between atoms: N_10  and  C_11
REMARK    5  A    between atoms: C_11  and  C_12
REMARK    6  A    between atoms: C_22  and  C_23
REMARK    7  A    between atoms: C_23  and  N_24
REMARK    8  A    between atoms: N_24  and  S_25
REMARK    9  A    between atoms: S_25  and  C_28
REMARK   10  A    between atoms: C_31  and  N_32
REMARK                            x       y       z     vdW  Elec       q    Type
REMARK                         _______ _______ _______ _____ _____    ______ ____
ROOT
ATOM      4  C   UNL     1      -0.492   1.706  24.420  0.00  0.00    +0.006 C 
ATOM      5  C   UNL     1      -0.431   2.511  24.588  0.00  0.00    +0.005 C 
ATOM      6  C   UNL     1      -0.355   2.763  25.370  0.00  0.00    +0.027 C 
ATOM     19  C   UNL     1      -0.341   2.211  25.982  0.00  0.00    -0.048 C 
ATOM     20  C   UNL     1      -0.266   2.464  26.764  0.00  0.00    +0.026 C 
ATOM     21  C   UNL     1      -0.403   1.406  25.813  0.00  0.00    -0.033 C 
ATOM     22  C   UNL     1      -0.478   1.154  25.032  0.00  0.00    +0.041 C 
ENDROOT
BRANCH   4   2
ATOM      1  C   UNL     1      -1.296   1.511  23.254  0.00  0.00    +0.000 C 
ATOM      2  C   UNL     1      -0.568   1.453  23.637  0.00  0.00    +0.000 C 
ATOM      3  C   UNL     1       0.085   1.143  23.239  0.00  0.00    +0.000 C 
ENDBRANCH   4   2
BRANCH   6   7
ATOM      7  C   UNL     1      -0.294   3.569  25.539  0.00  0.00    +0.091 C 
BRANCH   7   8
ATOM      8  C   UNL     1      -0.889   4.088  25.298  0.00  0.00    +0.242 C 
ATOM      9  O   UNL     1      -0.711   4.713  24.790  0.00  0.00    -0.273 OA
ATOM     10  N   UNL     1      -1.662   3.980  25.565  0.00  0.00    -0.201 NA
BRANCH  10  11
ATOM     11  C   UNL     1      -2.257   4.498  25.324  0.00  0.00    +0.141 C 
BRANCH  11  12
ATOM     12  C   UNL     1      -3.046   4.257  25.342  0.00  0.00    -0.000 A 
ATOM     13  C   UNL     1      -3.434   4.168  26.064  0.00  0.00    -0.000 A 
ATOM     14  C   UNL     1      -4.223   3.927  26.083  0.00  0.00    +0.029 A 
ATOM     15  C   UNL     1      -4.624   3.775  25.377  0.00  0.00    +0.140 A 
ATOM     16  F   UNL     1      -5.413   3.534  25.396  0.00  0.00    -0.204 F 
ATOM     17  C   UNL     1      -4.236   3.865  24.655  0.00  0.00    +0.029 A 
ATOM     18  C   UNL     1      -3.447   4.106  24.637  0.00  0.00    -0.000 A 
ENDBRANCH  11  12
ENDBRANCH  10  11
ENDBRANCH   7   8
ENDBRANCH   6   7
BRANCH  22  23
ATOM     23  C   UNL     1      -0.540   0.348  24.862  0.00  0.00    +0.120 C 
BRANCH  23  24
ATOM     24  N   UNL     1      -0.788  -0.178  25.447  0.00  0.00    -0.077 NA
BRANCH  24  25
ATOM     25  S   UNL     1      -1.333  -0.770  25.264  0.00  0.00    +0.077 S 
ATOM     26  O   UNL     1      -0.747  -1.183  24.855  0.00  0.00    -0.152 OA
ATOM     27  O   UNL     1      -1.919  -0.357  25.672  0.00  0.00    -0.152 OA
BRANCH  25  28
ATOM     28  C   UNL     1      -1.878  -1.362  25.080  0.00  0.00    +0.124 A 
ATOM     29  C   UNL     1      -1.664  -1.977  24.573  0.00  0.00    +0.021 A 
ATOM     30  C   UNL     1      -2.209  -2.568  24.390  0.00  0.00    +0.018 A 
ATOM     31  C   UNL     1      -2.967  -2.546  24.714  0.00  0.00    +0.073 A 
ATOM     36  C   UNL     1      -3.181  -1.931  25.222  0.00  0.00    +0.018 A 
ATOM     37  C   UNL     1      -2.636  -1.339  25.405  0.00  0.00    +0.021 A 
BRANCH  31  32
ATOM     32  N   UNL     1      -3.512  -3.137  24.532  0.00  0.00    -0.179 NA
ATOM     33  C   UNL     1      -4.099  -2.999  23.969  0.00  0.00    +0.246 C 
ATOM     34  C   UNL     1      -4.644  -3.590  23.786  0.00  0.00    +0.097 C 
ATOM     35  O   UNL     1      -4.141  -2.268  23.589  0.00  0.00    -0.273 OA
ENDBRANCH  31  32
ENDBRANCH  25  28
ENDBRANCH  24  25
ENDBRANCH  23  24
ENDBRANCH  22  23
TORSDOF 10
ENDMDL
MODEL 6
REMARK VINA RESULT:      -5.5     15.573     18.034
REMARK  Name = 
REMARK  10 active torsions:
REMARK  status: ('A' for Active; 'I' for Inactive)
REMARK    1  A    between atoms: C_2  and  C_4
REMARK    2  A    between atoms: C_6  and  C_7
REMARK    3  A    between atoms: C_7  and  C_8
REMARK    4  A    between atoms: N_10  and  C_11
REMARK    5  A    between atoms: C_11  and  C_12
REMARK    6  A    between atoms: C_22  and  C_23
REMARK    7  A    between atoms: C_23  and  N_24
REMARK    8  A    between atoms: N_24  and  S_25
REMARK    9  A    between atoms: S_25  and  C_28
REMARK   10  A    between atoms: C_31  and  N_32
REMARK                            x       y       z     vdW  Elec       q    Type
REMARK                         _______ _______ _______ _____ _____    ______ ____
ROOT
ATOM      4  C   UNL     1      -3.941  -9.788  10.628  0.00  0.00    +0.006 C 
ATOM      5  C   UNL     1      -3.203  -9.924  10.969  0.00  0.00    +0.005 C 
ATOM      6  C   UNL     1      -3.150 -10.129  11.767  0.00  0.00    +0.027 C 
ATOM     19  C   UNL     1      -3.835 -10.197  12.222  0.00  0.00    -0.048 C 
ATOM     20  C   UNL     1      -3.781 -10.401  13.020  0.00  0.00    +0.026 C 
ATOM     21  C   UNL     1      -4.572 -10.061  11.879  0.00  0.00    -0.033 C 
ATOM     22  C   UNL     1      -4.626  -9.856  11.083  0.00  0.00    +0.041 C 
ENDROOT
BRANCH   4   2
ATOM      1  C   UNL     1      -4.095 -10.172   9.260  0.00  0.00    +0.000 C 
ATOM      2  C   UNL     1      -3.994  -9.584   9.829  0.00  0.00    +0.000 C 
ATOM      3  C   UNL     1      -3.947  -8.792   9.602  0.00  0.00    +0.000 C 
ENDBRANCH   4   2
BRANCH   6   7
ATOM      7  C   UNL     1      -2.411 -10.265  12.109  0.00  0.00    +0.091 C 
BRANCH   7   8
ATOM      8  C   UNL     1      -1.723 -10.090  11.689  0.00  0.00    +0.242 C 
ATOM      9  O   UNL     1      -1.455 -10.606  11.103  0.00  0.00    -0.273 OA
ATOM     10  N   UNL     1      -1.303  -9.399  11.854  0.00  0.00    -0.201 NA
BRANCH  10  11
ATOM     11  C   UNL     1      -0.616  -9.225  11.433  0.00  0.00    +0.141 C 
BRANCH  11  12
ATOM     12  C   UNL     1      -0.122  -8.613  11.685  0.00  0.00    -0.000 A 
ATOM     13  C   UNL     1      -0.332  -8.157  12.341  0.00  0.00    -0.000 A 
ATOM     14  C   UNL     1       0.161  -7.546  12.593  0.00  0.00    +0.029 A 
ATOM     15  C   UNL     1       0.864  -7.390  12.189  0.00  0.00    +0.140 A 
ATOM     16  F   UNL     1       1.357  -6.778  12.442  0.00  0.00    -0.204 F 
ATOM     17  C   UNL     1       1.074  -7.845  11.534  0.00  0.00    +0.029 A 
ATOM     18  C   UNL     1       0.580  -8.458  11.282  0.00  0.00    -0.000 A 
ENDBRANCH  11  12
ENDBRANCH  10  11
ENDBRANCH   7   8
ENDBRANCH   6   7
BRANCH  22  23
ATOM     23  C   UNL     1      -5.364  -9.720  10.739  0.00  0.00    +0.120 C 
BRANCH  23  24
ATOM     24  N   UNL     1      -6.046  -9.753  11.203  0.00  0.00    -0.077 NA
BRANCH  24  25
ATOM     25  S   UNL     1      -6.774  -9.540  10.880  0.00  0.00    +0.077 S 
ATOM     26  O   UNL     1      -6.690  -8.780  11.190  0.00  0.00    -0.152 OA
ATOM     27  O   UNL     1      -6.859 -10.299  10.569  0.00  0.00    -0.152 OA
BRANCH  25  28
ATOM     28  C   UNL     1      -7.503  -9.326  10.556  0.00  0.00    +0.124 A 
ATOM     29  C   UNL     1      -8.195  -9.681  10.831  0.00  0.00    +0.021 A 
ATOM     30  C   UNL     1      -8.923  -9.467  10.507  0.00  0.00    +0.018 A 
ATOM     31  C   UNL     1      -8.960  -8.900   9.909  0.00  0.00    +0.073 A 
ATOM     36  C   UNL     1      -8.267  -8.546   9.635  0.00  0.00    +0.018 A 
ATOM     37  C   UNL     1      -7.538  -8.759   9.959  0.00  0.00    +0.021 A 
BRANCH  31  32
ATOM     32  N   UNL     1      -9.687  -8.687   9.586  0.00  0.00    -0.179 NA
ATOM     33  C   UNL     1      -9.915  -8.982   8.850  0.00  0.00    +0.246 C 
ATOM     34  C   UNL     1     -10.643  -8.769   8.527  0.00  0.00    +0.097 C 
ATOM     35  O   UNL     1      -9.414  -9.492   8.438  0.00  0.00    -0.273 OA
ENDBRANCH  31  32
ENDBRANCH  25  28
ENDBRANCH  24  25
ENDBRANCH  23  24
ENDBRANCH  22  23
TORSDOF 10
ENDMDL
