MODEL 1
REMARK VINA RESULT:     -13.8      0.000      0.000
REMARK  Name = 
REMARK  4 active torsions:
REMARK  status: ('A' for Active; 'I' for Inactive)
REMARK    1  A    between atoms: C_2  and  C_3
REMARK    2  A    between atoms: C_3  and  S_4
REMARK    3  A    between atoms: S_4  and  N_7
REMARK    4  A    between atoms: C_16  and  C_17
REMARK                            x       y       z     vdW  Elec       q    Type
REMARK                         _______ _______ _______ _____ _____    ______ ____
ROOT
ATOM      7  N   UNL     1      -3.026   2.016  24.106  0.00  0.00    -0.159 NA
ATOM      8  C   UNL     1      -3.086   2.849  24.083  0.00  0.00    +0.097 C 
ATOM      9  C   UNL     1      -3.981   2.962  24.485  0.00  0.00    +0.041 C 
ATOM     10  C   UNL     1      -4.690   3.220  24.793  0.00  0.00    +0.011 C 
ATOM     11  C   UNL     1      -4.365   2.608  24.682  0.00  0.00    +0.056 C 
ATOM     12  C   UNL     1      -3.498   2.516  24.292  0.00  0.00    +0.101 C 
ATOM     13  C   UNL     1      -4.478   1.702  24.788  0.00  0.00    +0.041 A 
ATOM     14  C   UNL     1      -5.025   1.154  25.071  0.00  0.00    +0.013 A 
ATOM     15  C   UNL     1      -4.854   0.348  25.042  0.00  0.00    +0.002 A 
ATOM     16  C   UNL     1      -4.135   0.089  24.729  0.00  0.00    +0.034 A 
ATOM     23  C   UNL     1      -3.588   0.638  24.446  0.00  0.00    +0.257 A 
ATOM     24  O   UNL     1      -2.869   0.379  24.133  0.00  0.00    -0.267 OA
ATOM     25  N   UNL     1      -3.759   1.444  24.476  0.00  0.00    -0.299 N 
ATOM     26  C   UNL     1      -4.090   2.014  24.592  0.00  0.00    +0.110 C 
ENDROOT
BRANCH  16  17
ATOM     17  C   UNL     1      -3.965  -0.717  24.700  0.00  0.00    +0.027 C 
ATOM     18  C   UNL     1      -3.592  -1.083  25.339  0.00  0.00    +0.005 C 
ATOM     19  C   UNL     1      -3.421  -1.889  25.310  0.00  0.00    +0.000 C 
ATOM     20  C   UNL     1      -3.623  -2.330  24.643  0.00  0.00    +0.000 C 
ATOM     21  C   UNL     1      -3.996  -1.965  24.004  0.00  0.00    +0.000 C 
ATOM     22  C   UNL     1      -4.167  -1.158  24.033  0.00  0.00    +0.005 C 
ENDBRANCH  16  17
BRANCH   7   4
ATOM      4  S   UNL     1      -2.700   1.265  24.002  0.00  0.00    +0.044 S 
ATOM      5  O   UNL     1      -3.318   1.068  23.492  0.00  0.00    -0.157 OA
ATOM      6  O   UNL     1      -2.374   0.514  23.899  0.00  0.00    -0.157 OA
BRANCH   4   3
ATOM      3  C   UNL     1      -2.082   1.462  24.513  0.00  0.00    +0.169 C 
BRANCH   3   2
ATOM      1  C   UNL     1      -0.691   1.437  24.840  0.00  0.00    +0.002 C 
ATOM      2  C   UNL     1      -1.306   1.265  24.317  0.00  0.00    +0.027 C 
ENDBRANCH   3   2
ENDBRANCH   4   3
ENDBRANCH   7   4
TORSDOF 4
ENDMDL
MODEL 2
REMARK VINA RESULT:     -13.0      1.350      3.447
REMARK  Name = 
REMARK  4 active torsions:
REMARK  status: ('A' for Active; 'I' for Inactive)
REMARK    1  A    between atoms: C_2  and  C_3
REMARK    2  A    between atoms: C_3  and  S_4
REMARK    3  A    between atoms: S_4  and  N_7
REMARK    4  A    between atoms: C_16  and  C_17
REMARK                            x       y       z     vdW  Elec       q    Type
REMARK                         _______ _______ _______ _____ _____    ______ ____
ROOT
ATOM      7  N   UNL     1      -2.245  -1.409  24.970  0.00  0.00    -0.159 NA
ATOM      8  C   UNL     1      -2.109  -2.232  25.019  0.00  0.00    +0.097 C 
ATOM      9  C   UNL     1      -2.968  -2.563  24.662  0.00  0.00    +0.041 C 
ATOM     10  C   UNL     1      -3.609  -2.990  24.394  0.00  0.00    +0.011 C 
ATOM     11  C   UNL     1      -3.431  -2.315  24.474  0.00  0.00    +0.056 C 
ATOM     12  C   UNL     1      -2.595  -2.011  24.820  0.00  0.00    +0.101 C 
ATOM     13  C   UNL     1      -3.756  -1.465  24.348  0.00  0.00    +0.041 A 
ATOM     14  C   UNL     1      -4.426  -1.069  24.075  0.00  0.00    +0.013 A 
ATOM     15  C   UNL     1      -4.446  -0.244  24.074  0.00  0.00    +0.002 A 
ATOM     16  C   UNL     1      -3.796   0.185  24.346  0.00  0.00    +0.034 A 
ATOM     23  C   UNL     1      -3.125  -0.211  24.618  0.00  0.00    +0.257 A 
ATOM     24  O   UNL     1      -2.475   0.218  24.890  0.00  0.00    -0.267 OA
ATOM     25  N   UNL     1      -3.105  -1.036  24.619  0.00  0.00    -0.299 N 
ATOM     26  C   UNL     1      -3.299  -1.671  24.534  0.00  0.00    +0.110 C 
ENDROOT
BRANCH  16  17
ATOM     17  C   UNL     1      -3.816   1.009  24.345  0.00  0.00    +0.027 C 
ATOM     18  C   UNL     1      -3.519   1.428  23.699  0.00  0.00    +0.005 C 
ATOM     19  C   UNL     1      -3.540   2.252  23.697  0.00  0.00    +0.000 C 
ATOM     20  C   UNL     1      -3.857   2.658  24.341  0.00  0.00    +0.000 C 
ATOM     21  C   UNL     1      -4.154   2.240  24.987  0.00  0.00    +0.000 C 
ATOM     22  C   UNL     1      -4.134   1.415  24.989  0.00  0.00    +0.005 C 
ENDBRANCH  16  17
BRANCH   7   4
ATOM      4  S   UNL     1      -2.099  -0.599  25.037  0.00  0.00    +0.044 S 
ATOM      5  O   UNL     1      -2.727  -0.530  25.569  0.00  0.00    -0.157 OA
ATOM      6  O   UNL     1      -1.953   0.210  25.105  0.00  0.00    -0.157 OA
BRANCH   4   3
ATOM      3  C   UNL     1      -1.471  -0.668  24.506  0.00  0.00    +0.169 C 
BRANCH   3   2
ATOM      1  C   UNL     1      -0.136  -0.337  24.119  0.00  0.00    +0.002 C 
ATOM      2  C   UNL     1      -0.754  -0.294  24.665  0.00  0.00    +0.027 C 
ENDBRANCH   3   2
ENDBRANCH   4   3
ENDBRANCH   7   4
TORSDOF 4
ENDMDL
MODEL 3
REMARK VINA RESULT:     -12.9      1.887      3.746
REMARK  Name = 
REMARK  4 active torsions:
REMARK  status: ('A' for Active; 'I' for Inactive)
REMARK    1  A    between atoms: C_2  and  C_3
REMARK    2  A    between atoms: C_3  and  S_4
REMARK    3  A    between atoms: S_4  and  N_7
REMARK    4  A    between atoms: C_16  and  C_17
REMARK                            x       y       z     vdW  Elec       q    Type
REMARK                         _______ _______ _______ _____ _____    ______ ____
ROOT
ATOM      7  N   UNL     1      -4.386   2.526  24.382  0.00  0.00    -0.159 NA
ATOM      8  C   UNL     1      -5.166   2.230  24.431  0.00  0.00    +0.097 C 
ATOM      9  C   UNL     1      -5.435   2.615  25.300  0.00  0.00    +0.041 C 
ATOM     10  C   UNL     1      -5.805   2.854  25.985  0.00  0.00    +0.011 C 
ATOM     11  C   UNL     1      -5.180   2.937  25.677  0.00  0.00    +0.056 C 
ATOM     12  C   UNL     1      -4.934   2.558  24.836  0.00  0.00    +0.101 C 
ATOM     13  C   UNL     1      -4.365   3.345  25.797  0.00  0.00    +0.041 A 
ATOM     14  C   UNL     1      -3.961   3.821  26.336  0.00  0.00    +0.013 A 
ATOM     15  C   UNL     1      -3.185   4.053  26.179  0.00  0.00    +0.002 A 
ATOM     16  C   UNL     1      -2.814   3.810  25.484  0.00  0.00    +0.034 A 
ATOM     23  C   UNL     1      -3.218   3.333  24.945  0.00  0.00    +0.257 A 
ATOM     24  O   UNL     1      -2.847   3.090  24.250  0.00  0.00    -0.267 OA
ATOM     25  N   UNL     1      -3.994   3.101  25.102  0.00  0.00    -0.299 N 
ATOM     26  C   UNL     1      -4.581   3.037  25.417  0.00  0.00    +0.110 C 
ENDROOT
BRANCH  16  17
ATOM     17  C   UNL     1      -2.038   4.042  25.328  0.00  0.00    +0.027 C 
ATOM     18  C   UNL     1      -1.890   4.777  24.982  0.00  0.00    +0.005 C 
ATOM     19  C   UNL     1      -1.115   5.011  24.826  0.00  0.00    +0.000 C 
ATOM     20  C   UNL     1      -0.487   4.510  25.015  0.00  0.00    +0.000 C 
ATOM     21  C   UNL     1      -0.634   3.775  25.360  0.00  0.00    +0.000 C 
ATOM     22  C   UNL     1      -1.411   3.542  25.517  0.00  0.00    +0.005 C 
ENDBRANCH  16  17
BRANCH   7   4
ATOM      4  S   UNL     1      -3.632   2.663  24.075  0.00  0.00    +0.044 S 
ATOM      5  O   UNL     1      -3.796   3.471  24.035  0.00  0.00    -0.157 OA
ATOM      6  O   UNL     1      -2.879   2.800  23.767  0.00  0.00    -0.157 OA
BRANCH   4   3
ATOM      3  C   UNL     1      -3.469   1.855  24.115  0.00  0.00    +0.169 C 
BRANCH   3   2
ATOM      1  C   UNL     1      -2.943   0.667  23.519  0.00  0.00    +0.002 C 
ATOM      2  C   UNL     1      -3.110   1.475  23.477  0.00  0.00    +0.027 C 
ENDBRANCH   3   2
ENDBRANCH   4   3
ENDBRANCH   7   4
TORSDOF 4
ENDMDL
MODEL 4
REMARK VINA RESULT:     -12.8      1.155      2.226
REMARK  Name = 
REMARK  4 active torsions:
REMARK  status: ('A' for Active; 'I' for Inactive)
REMARK    1  A    between atoms: C_2  and  C_3
REMARK    2  A    between atoms: C_3  and  S_4
REMARK    3  A    between atoms: S_4  and  N_7
REMARK    4  A    between atoms: C_16  and  C_17
REMARK                            x       y       z     vdW  Elec       q    Type
REMARK                         _______ _______ _______ _____ _____    ______ ____
ROOT
ATOM      7  N   UNL     1      -4.170   2.846  24.757  0.00  0.00    -0.159 NA
ATOM      8  C   UNL     1      -4.015   3.664  24.830  0.00  0.00    +0.097 C 
ATOM      9  C   UNL     1      -3.033   3.639  24.930  0.00  0.00    +0.041 C 
ATOM     10  C   UNL     1      -2.237   3.786  25.022  0.00  0.00    +0.011 C 
ATOM     11  C   UNL     1      -2.655   3.229  24.940  0.00  0.00    +0.056 C 
ATOM     12  C   UNL     1      -3.604   3.270  24.845  0.00  0.00    +0.101 C 
ATOM     13  C   UNL     1      -2.629   2.312  24.878  0.00  0.00    +0.041 A 
ATOM     14  C   UNL     1      -2.095   1.684  24.889  0.00  0.00    +0.013 A 
ATOM     15  C   UNL     1      -2.367   0.910  24.807  0.00  0.00    +0.002 A 
ATOM     16  C   UNL     1      -3.174   0.763  24.714  0.00  0.00    +0.034 A 
ATOM     23  C   UNL     1      -3.708   1.391  24.703  0.00  0.00    +0.257 A 
ATOM     24  O   UNL     1      -4.515   1.245  24.609  0.00  0.00    -0.267 OA
ATOM     25  N   UNL     1      -3.436   2.166  24.785  0.00  0.00    -0.299 N 
ATOM     26  C   UNL     1      -3.016   2.681  24.864  0.00  0.00    +0.110 C 
ENDROOT
BRANCH  16  17
ATOM     17  C   UNL     1      -3.445  -0.011  24.632  0.00  0.00    +0.027 C 
ATOM     18  C   UNL     1      -3.576  -0.475  25.301  0.00  0.00    +0.005 C 
ATOM     19  C   UNL     1      -3.848  -1.250  25.220  0.00  0.00    +0.000 C 
ATOM     20  C   UNL     1      -3.988  -1.560  24.469  0.00  0.00    +0.000 C 
ATOM     21  C   UNL     1      -3.858  -1.097  23.799  0.00  0.00    +0.000 C 
ATOM     22  C   UNL     1      -3.586  -0.322  23.881  0.00  0.00    +0.005 C 
ENDBRANCH  16  17
BRANCH   7   4
ATOM      4  S   UNL     1      -4.604   2.151  24.664  0.00  0.00    +0.044 S 
ATOM      5  O   UNL     1      -4.206   1.998  23.957  0.00  0.00    -0.157 OA
ATOM      6  O   UNL     1      -5.037   1.455  24.570  0.00  0.00    -0.157 OA
BRANCH   4   3
ATOM      3  C   UNL     1      -5.001   2.303  25.371  0.00  0.00    +0.169 C 
BRANCH   3   2
ATOM      1  C   UNL     1      -6.206   2.291  26.139  0.00  0.00    +0.002 C 
ATOM      2  C   UNL     1      -5.817   2.191  25.418  0.00  0.00    +0.027 C 
ENDBRANCH   3   2
ENDBRANCH   4   3
ENDBRANCH   7   4
TORSDOF 4
ENDMDL
MODEL 5
REMARK VINA RESULT:     -12.4      1.280      3.651
REMARK  Name = 
REMARK  4 active torsions:
REMARK  status: ('A' for Active; 'I' for Inactive)
REMARK    1  A    between atoms: C_2  and  C_3
REMARK    2  A    between atoms: C_3  and  S_4
REMARK    3  A    between atoms: S_4  and  N_7
REMARK    4  A    between atoms: C_16  and  C_17
REMARK                            x       y       z     vdW  Elec       q    Type
REMARK                         _______ _______ _______ _____ _____    ______ ____
ROOT
ATOM      7  N   UNL     1      -3.841  -0.642  24.191  0.00  0.00    -0.159 NA
ATOM      8  C   UNL     1      -4.408  -1.245  24.079  0.00  0.00    +0.097 C 
ATOM      9  C   UNL     1      -3.865  -2.031  24.335  0.00  0.00    +0.041 C 
ATOM     10  C   UNL     1      -3.560  -2.765  24.510  0.00  0.00    +0.011 C 
ATOM     11  C   UNL     1      -3.340  -2.099  24.507  0.00  0.00    +0.056 C 
ATOM     12  C   UNL     1      -3.876  -1.350  24.257  0.00  0.00    +0.101 C 
ATOM     13  C   UNL     1      -2.599  -1.584  24.684  0.00  0.00    +0.041 A 
ATOM     14  C   UNL     1      -1.817  -1.652  24.937  0.00  0.00    +0.013 A 
ATOM     15  C   UNL     1      -1.347  -0.978  25.011  0.00  0.00    +0.002 A 
ATOM     16  C   UNL     1      -1.660  -0.236  24.832  0.00  0.00    +0.034 A 
ATOM     23  C   UNL     1      -2.442  -0.167  24.579  0.00  0.00    +0.257 A 
ATOM     24  O   UNL     1      -2.754   0.575  24.400  0.00  0.00    -0.267 OA
ATOM     25  N   UNL     1      -2.911  -0.842  24.505  0.00  0.00    -0.299 N 
ATOM     26  C   UNL     1      -3.097  -1.485  24.516  0.00  0.00    +0.110 C 
ENDROOT
BRANCH  16  17
ATOM     17  C   UNL     1      -1.190   0.438  24.906  0.00  0.00    +0.027 C 
ATOM     18  C   UNL     1      -1.160   0.842  25.624  0.00  0.00    +0.005 C 
ATOM     19  C   UNL     1      -0.690   1.516  25.699  0.00  0.00    +0.000 C 
ATOM     20  C   UNL     1      -0.250   1.785  25.056  0.00  0.00    +0.000 C 
ATOM     21  C   UNL     1      -0.278   1.381  24.338  0.00  0.00    +0.000 C 
ATOM     22  C   UNL     1      -0.749   0.707  24.263  0.00  0.00    +0.005 C 
ENDBRANCH  16  17
BRANCH   7   4
ATOM      4  S   UNL     1      -3.519   0.118  24.209  0.00  0.00    +0.044 S 
ATOM      5  O   UNL     1      -2.953  -0.108  23.653  0.00  0.00    -0.157 OA
ATOM      6  O   UNL     1      -3.198   0.878  24.227  0.00  0.00    -0.157 OA
BRANCH   4   3
ATOM      3  C   UNL     1      -4.086   0.345  24.765  0.00  0.00    +0.169 C 
BRANCH   3   2
ATOM      1  C   UNL     1      -5.032   1.301  25.249  0.00  0.00    +0.002 C 
ATOM      2  C   UNL     1      -4.471   1.070  24.689  0.00  0.00    +0.027 C 
ENDBRANCH   3   2
ENDBRANCH   4   3
ENDBRANCH   7   4
TORSDOF 4
ENDMDL
