MODEL 1
REMARK VINA RESULT:      -8.3      0.000      0.000
REMARK  Name = 
REMARK  6 active torsions:
REMARK  status: ('A' for Active; 'I' for Inactive)
REMARK    1  A    between atoms: C_2  and  C_4
REMARK    2  A    between atoms: C_4  and  C_5
REMARK    3  A    between atoms: C_5  and  C_6
REMARK    4  A    between atoms: N_8  and  C_9
REMARK    5  A    between atoms: C_13  and  N_17
REMARK    6  A    between atoms: C_20  and  C_24
REMARK                            x       y       z     vdW  Elec       q    Type
REMARK                         _______ _______ _______ _____ _____    ______ ____
ROOT
ATOM      9  C   UNL     1       0.602   1.130  23.901  0.00  0.00    +0.154 C 
ATOM     10  C   UNL     1       0.160   0.495  23.616  0.00  0.00    +0.166 C 
ATOM     11  O   UNL     1      -0.604   0.558  23.922  0.00  0.00    -0.350 OA
ATOM     12  C   UNL     1      -0.633   1.233  24.397  0.00  0.00    +0.166 C 
ATOM     13  C   UNL     1      -1.124   1.688  24.880  0.00  0.00    +0.154 C 
ATOM     14  C   UNL     1      -0.681   2.323  25.165  0.00  0.00    +0.166 C 
ATOM     15  O   UNL     1       0.083   2.260  24.858  0.00  0.00    -0.350 OA
ATOM     16  C   UNL     1       0.112   1.586  24.384  0.00  0.00    +0.166 C 
ENDROOT
BRANCH  13  17
ATOM     17  N   UNL     1      -1.916   1.535  25.048  0.00  0.00    -0.200 NA
ATOM     18  C   UNL     1      -2.484   2.121  24.926  0.00  0.00    +0.237 A 
ATOM     19  N   UNL     1      -3.277   1.968  25.094  0.00  0.00    -0.209 NA
ATOM     20  C   UNL     1      -3.845   2.554  24.973  0.00  0.00    +0.120 A 
ATOM     21  C   UNL     1      -3.620   3.293  24.683  0.00  0.00    +0.043 A 
ATOM     22  C   UNL     1      -2.827   3.446  24.515  0.00  0.00    +0.104 A 
ATOM     23  N   UNL     1      -2.259   2.860  24.636  0.00  0.00    -0.211 NA
BRANCH  20  24
ATOM     24  C   UNL     1      -4.638   2.402  25.140  0.00  0.00    +0.163 A 
ATOM     25  C   UNL     1      -5.153   1.949  24.680  0.00  0.00    +0.042 A 
ATOM     26  C   UNL     1      -5.889   1.943  25.053  0.00  0.00    +0.044 A 
ATOM     27  C   UNL     1      -5.830   2.391  25.743  0.00  0.00    +0.180 A 
ATOM     28  O   UNL     1      -5.057   2.674  25.797  0.00  0.00    -0.449 OA
ENDBRANCH  20  24
ENDBRANCH  13  17
BRANCH   9   8
ATOM      6  C   UNL     1       1.815   0.779  23.233  0.00  0.00    +0.242 C 
ATOM      7  O   UNL     1       1.443   0.122  22.901  0.00  0.00    -0.273 OA
ATOM      8  N   UNL     1       1.395   1.283  23.734  0.00  0.00    -0.202 NA
BRANCH   6   5
ATOM      5  C   UNL     1       2.608   0.932  23.066  0.00  0.00    +0.099 C 
BRANCH   5   4
ATOM      4  C   UNL     1       3.095   0.327  22.784  0.00  0.00    +0.124 C 
BRANCH   4   2
ATOM      1  O   UNL     1       4.457   0.170  23.185  0.00  0.00    -0.246 OA
ATOM      2  C   UNL     1       3.897   0.469  22.657  0.00  0.00    +0.365 C 
ATOM      3  O   UNL     1       4.140   0.910  22.003  0.00  0.00    -0.246 OA
ENDBRANCH   4   2
ENDBRANCH   5   4
ENDBRANCH   6   5
ENDBRANCH   9   8
TORSDOF 6
ENDMDL
MODEL 2
REMARK VINA RESULT:      -7.9      2.037      2.470
REMARK  Name = 
REMARK  6 active torsions:
REMARK  status: ('A' for Active; 'I' for Inactive)
REMARK    1  A    between atoms: C_2  and  C_4
REMARK    2  A    between atoms: C_4  and  C_5
REMARK    3  A    between atoms: C_5  and  C_6
REMARK    4  A    between atoms: N_8  and  C_9
REMARK    5  A    between atoms: C_13  and  N_17
REMARK    6  A    between atoms: C_20  and  C_24
REMARK                            x       y       z     vdW  Elec       q    Type
REMARK                         _______ _______ _______ _____ _____    ______ ____
ROOT
ATOM      9  C   UNL     1       1.995   0.644  23.081  0.00  0.00    +0.154 C 
ATOM     10  C   UNL     1       1.684   0.082  22.563  0.00  0.00    +0.166 C 
ATOM     11  O   UNL     1       0.867   0.056  22.676  0.00  0.00    -0.350 OA
ATOM     12  C   UNL     1       0.673   0.602  23.264  0.00  0.00    +0.166 C 
ATOM     13  C   UNL     1       0.048   0.922  23.697  0.00  0.00    +0.154 C 
ATOM     14  C   UNL     1       0.359   1.485  24.215  0.00  0.00    +0.166 C 
ATOM     15  O   UNL     1       1.176   1.511  24.101  0.00  0.00    -0.350 OA
ATOM     16  C   UNL     1       1.370   0.965  23.514  0.00  0.00    +0.166 C 
ENDROOT
BRANCH  13  17
ATOM     17  N   UNL     1      -0.748   0.717  23.625  0.00  0.00    -0.200 NA
ATOM     18  C   UNL     1      -1.148   0.386  24.264  0.00  0.00    +0.237 A 
ATOM     19  N   UNL     1      -1.944   0.181  24.193  0.00  0.00    -0.209 NA
ATOM     20  C   UNL     1      -2.344  -0.151  24.833  0.00  0.00    +0.120 A 
ATOM     21  C   UNL     1      -1.948  -0.278  25.546  0.00  0.00    +0.043 A 
ATOM     22  C   UNL     1      -1.153  -0.073  25.618  0.00  0.00    +0.104 A 
ATOM     23  N   UNL     1      -0.752   0.259  24.977  0.00  0.00    -0.211 NA
BRANCH  20  24
ATOM     24  C   UNL     1      -3.140  -0.356  24.761  0.00  0.00    +0.163 A 
ATOM     25  C   UNL     1      -3.432  -1.100  24.553  0.00  0.00    +0.042 A 
ATOM     26  C   UNL     1      -4.256  -1.057  24.548  0.00  0.00    +0.044 A 
ATOM     27  C   UNL     1      -4.474  -0.289  24.753  0.00  0.00    +0.180 A 
ATOM     28  O   UNL     1      -3.784   0.145  24.884  0.00  0.00    -0.449 OA
ENDBRANCH  20  24
ENDBRANCH  13  17
BRANCH   9   8
ATOM      6  C   UNL     1       3.377   0.295  22.979  0.00  0.00    +0.242 C 
ATOM      7  O   UNL     1       3.167  -0.464  22.733  0.00  0.00    -0.273 OA
ATOM      8  N   UNL     1       2.790   0.850  23.154  0.00  0.00    -0.202 NA
BRANCH   6   5
ATOM      5  C   UNL     1       4.172   0.501  23.052  0.00  0.00    +0.099 C 
BRANCH   5   4
ATOM      4  C   UNL     1       4.701  -0.019  23.415  0.00  0.00    +0.124 C 
BRANCH   4   2
ATOM      1  O   UNL     1       5.581   0.700  24.281  0.00  0.00    -0.246 OA
ATOM      2  C   UNL     1       5.461   0.235  23.610  0.00  0.00    +0.365 C 
ATOM      3  O   UNL     1       6.101   0.025  23.133  0.00  0.00    -0.246 OA
ENDBRANCH   4   2
ENDBRANCH   5   4
ENDBRANCH   6   5
ENDBRANCH   9   8
TORSDOF 6
ENDMDL
MODEL 3
REMARK VINA RESULT:      -7.8      1.067      6.573
REMARK  Name = 
REMARK  6 active torsions:
REMARK  status: ('A' for Active; 'I' for Inactive)
REMARK    1  A    between atoms: C_2  and  C_4
REMARK    2  A    between atoms: C_4  and  C_5
REMARK    3  A    between atoms: C_5  and  C_6
REMARK    4  A    between atoms: N_8  and  C_9
REMARK    5  A    between atoms: C_13  and  N_17
REMARK    6  A    between atoms: C_20  and  C_24
REMARK                            x       y       z     vdW  Elec       q    Type
REMARK                         _______ _______ _______ _____ _____    ______ ____
ROOT
ATOM      9  C   UNL     1      -2.605   1.801  24.215  0.00  0.00    +0.154 C 
ATOM     10  C   UNL     1      -2.327   2.421  23.748  0.00  0.00    +0.166 C 
ATOM     11  O   UNL     1      -1.507   2.352  23.694  0.00  0.00    -0.350 OA
ATOM     12  C   UNL     1      -1.278   1.687  24.127  0.00  0.00    +0.166 C 
ATOM     13  C   UNL     1      -0.629   1.234  24.361  0.00  0.00    +0.154 C 
ATOM     14  C   UNL     1      -0.909   0.613  24.828  0.00  0.00    +0.166 C 
ATOM     15  O   UNL     1      -1.729   0.683  24.882  0.00  0.00    -0.350 OA
ATOM     16  C   UNL     1      -1.957   1.347  24.449  0.00  0.00    +0.166 C 
ENDROOT
BRANCH  13  17
ATOM     17  N   UNL     1       0.158   1.376  24.164  0.00  0.00    -0.200 NA
ATOM     18  C   UNL     1       0.575   0.829  23.708  0.00  0.00    +0.237 A 
ATOM     19  N   UNL     1       1.363   0.971  23.511  0.00  0.00    -0.209 NA
ATOM     20  C   UNL     1       1.779   0.424  23.055  0.00  0.00    +0.120 A 
ATOM     21  C   UNL     1       1.408  -0.266  22.798  0.00  0.00    +0.043 A 
ATOM     22  C   UNL     1       0.619  -0.409  22.995  0.00  0.00    +0.104 A 
ATOM     23  N   UNL     1       0.203   0.139  23.451  0.00  0.00    -0.211 NA
BRANCH  20  24
ATOM     24  C   UNL     1       2.568   0.565  22.858  0.00  0.00    +0.163 A 
ATOM     25  C   UNL     1       3.025   0.117  22.337  0.00  0.00    +0.042 A 
ATOM     26  C   UNL     1       3.777   0.454  22.303  0.00  0.00    +0.044 A 
ATOM     27  C   UNL     1       3.785   1.111  22.802  0.00  0.00    +0.180 A 
ATOM     28  O   UNL     1       3.038   1.180  23.145  0.00  0.00    -0.449 OA
ENDBRANCH  20  24
ENDBRANCH  13  17
BRANCH   9   8
ATOM      6  C   UNL     1      -3.917   2.290  24.500  0.00  0.00    +0.242 C 
ATOM      7  O   UNL     1      -3.653   3.063  24.390  0.00  0.00    -0.273 OA
ATOM      8  N   UNL     1      -3.393   1.658  24.413  0.00  0.00    -0.202 NA
BRANCH   6   5
ATOM      5  C   UNL     1      -4.705   2.147  24.698  0.00  0.00    +0.099 C 
BRANCH   5   4
ATOM      4  C   UNL     1      -5.103   2.664  25.204  0.00  0.00    +0.124 C 
BRANCH   4   2
ATOM      1  O   UNL     1      -5.925   2.579  26.370  0.00  0.00    -0.246 OA
ATOM      2  C   UNL     1      -5.804   2.426  25.568  0.00  0.00    +0.365 C 
ATOM      3  O   UNL     1      -6.384   2.036  25.131  0.00  0.00    -0.246 OA
ENDBRANCH   4   2
ENDBRANCH   5   4
ENDBRANCH   6   5
ENDBRANCH   9   8
TORSDOF 6
ENDMDL
MODEL 4
REMARK VINA RESULT:      -6.6     15.556     16.868
REMARK  Name = 
REMARK  6 active torsions:
REMARK  status: ('A' for Active; 'I' for Inactive)
REMARK    1  A    between atoms: C_2  and  C_4
REMARK    2  A    between atoms: C_4  and  C_5
REMARK    3  A    between atoms: C_5  and  C_6
REMARK    4  A    between atoms: N_8  and  C_9
REMARK    5  A    between atoms: C_13  and  N_17
REMARK    6  A    between atoms: C_20  and  C_24
REMARK                            x       y       z     vdW  Elec       q    Type
REMARK                         _______ _______ _______ _____ _____    ______ ____
ROOT
ATOM      9  C   UNL     1      -5.815 -10.148  16.021  0.00  0.00    +0.154 C 
ATOM     10  C   UNL     1      -4.992 -10.200  16.008  0.00  0.00    +0.166 C 
ATOM     11  O   UNL     1      -4.751 -10.240  15.220  0.00  0.00    -0.350 OA
ATOM     12  C   UNL     1      -5.426 -10.213  14.745  0.00  0.00    +0.166 C 
ATOM     13  C   UNL     1      -5.694 -10.221  13.965  0.00  0.00    +0.154 C 
ATOM     14  C   UNL     1      -6.518 -10.169  13.978  0.00  0.00    +0.166 C 
ATOM     15  O   UNL     1      -6.758 -10.129  14.767  0.00  0.00    -0.350 OA
ATOM     16  C   UNL     1      -6.083 -10.156  15.240  0.00  0.00    +0.166 C 
ENDROOT
BRANCH  13  17
ATOM     17  N   UNL     1      -5.222 -10.272  13.290  0.00  0.00    -0.200 NA
ATOM     18  C   UNL     1      -5.397  -9.812  12.629  0.00  0.00    +0.237 A 
ATOM     19  N   UNL     1      -4.925  -9.862  11.954  0.00  0.00    -0.209 NA
ATOM     20  C   UNL     1      -5.100  -9.402  11.293  0.00  0.00    +0.120 A 
ATOM     21  C   UNL     1      -5.747  -8.891  11.306  0.00  0.00    +0.043 A 
ATOM     22  C   UNL     1      -6.219  -8.839  11.980  0.00  0.00    +0.104 A 
ATOM     23  N   UNL     1      -6.044  -9.300  12.642  0.00  0.00    -0.211 NA
BRANCH  20  24
ATOM     24  C   UNL     1      -4.628  -9.453  10.617  0.00  0.00    +0.163 A 
ATOM     25  C   UNL     1      -3.980  -8.973  10.442  0.00  0.00    +0.042 A 
ATOM     26  C   UNL     1      -3.673  -9.215   9.716  0.00  0.00    +0.044 A 
ATOM     27  C   UNL     1      -4.131  -9.844   9.442  0.00  0.00    +0.180 A 
ATOM     28  O   UNL     1      -4.721  -9.991   9.999  0.00  0.00    -0.449 OA
ENDBRANCH  20  24
ENDBRANCH  13  17
BRANCH   9   8
ATOM      6  C   UNL     1      -6.010 -10.390  17.416  0.00  0.00    +0.242 C 
ATOM      7  O   UNL     1      -5.261 -10.732  17.461  0.00  0.00    -0.273 OA
ATOM      8  N   UNL     1      -6.287 -10.097  16.695  0.00  0.00    -0.202 NA
BRANCH   6   5
ATOM      5  C   UNL     1      -6.482 -10.339  18.090  0.00  0.00    +0.099 C 
BRANCH   5   4
ATOM      4  C   UNL     1      -6.231 -10.686  18.796  0.00  0.00    +0.124 C 
BRANCH   4   2
ATOM      1  O   UNL     1      -6.270 -10.152  20.121  0.00  0.00    -0.246 OA
ATOM      2  C   UNL     1      -6.644 -10.540  19.495  0.00  0.00    +0.365 C 
ATOM      3  O   UNL     1      -7.429 -10.781  19.569  0.00  0.00    -0.246 OA
ENDBRANCH   4   2
ENDBRANCH   5   4
ENDBRANCH   6   5
ENDBRANCH   9   8
TORSDOF 6
ENDMDL
MODEL 5
REMARK VINA RESULT:      -6.2     15.441     16.316
REMARK  Name = 
REMARK  6 active torsions:
REMARK  status: ('A' for Active; 'I' for Inactive)
REMARK    1  A    between atoms: C_2  and  C_4
REMARK    2  A    between atoms: C_4  and  C_5
REMARK    3  A    between atoms: C_5  and  C_6
REMARK    4  A    between atoms: N_8  and  C_9
REMARK    5  A    between atoms: C_13  and  N_17
REMARK    6  A    between atoms: C_20  and  C_24
REMARK                            x       y       z     vdW  Elec       q    Type
REMARK                         _______ _______ _______ _____ _____    ______ ____
ROOT
ATOM      9  C   UNL     1      -5.779  -9.891  12.591  0.00  0.00    +0.154 C 
ATOM     10  C   UNL     1      -6.506  -9.554  12.786  0.00  0.00    +0.166 C 
ATOM     11  O   UNL     1      -6.631  -9.667  13.594  0.00  0.00    -0.350 OA
ATOM     12  C   UNL     1      -5.980 -10.075  13.898  0.00  0.00    +0.166 C 
ATOM     13  C   UNL     1      -5.656 -10.396  14.585  0.00  0.00    +0.154 C 
ATOM     14  C   UNL     1      -4.928 -10.733  14.388  0.00  0.00    +0.166 C 
ATOM     15  O   UNL     1      -4.804 -10.619  13.581  0.00  0.00    -0.350 OA
ATOM     16  C   UNL     1      -5.454 -10.213  13.278  0.00  0.00    +0.166 C 
ENDROOT
BRANCH  13  17
ATOM     17  N   UNL     1      -5.998 -10.383  15.335  0.00  0.00    -0.200 NA
ATOM     18  C   UNL     1      -5.524 -10.460  16.005  0.00  0.00    +0.237 A 
ATOM     19  N   UNL     1      -5.866 -10.447  16.756  0.00  0.00    -0.209 NA
ATOM     20  C   UNL     1      -5.392 -10.524  17.427  0.00  0.00    +0.120 A 
ATOM     21  C   UNL     1      -4.576 -10.613  17.347  0.00  0.00    +0.043 A 
ATOM     22  C   UNL     1      -4.233 -10.626  16.597  0.00  0.00    +0.104 A 
ATOM     23  N   UNL     1      -4.708 -10.549  15.926  0.00  0.00    -0.211 NA
BRANCH  20  24
ATOM     24  C   UNL     1      -5.734 -10.511  18.178  0.00  0.00    +0.163 A 
ATOM     25  C   UNL     1      -5.376 -10.764  18.877  0.00  0.00    +0.042 A 
ATOM     26  C   UNL     1      -5.914 -10.653  19.493  0.00  0.00    +0.044 A 
ATOM     27  C   UNL     1      -6.604 -10.331  19.175  0.00  0.00    +0.180 A 
ATOM     28  O   UNL     1      -6.492 -10.243  18.362  0.00  0.00    -0.449 OA
ENDBRANCH  20  24
ENDBRANCH  13  17
BRANCH   9   8
ATOM      6  C   UNL     1      -5.404  -9.213  11.390  0.00  0.00    +0.242 C 
ATOM      7  O   UNL     1      -5.714  -8.510  11.690  0.00  0.00    -0.273 OA
ATOM      8  N   UNL     1      -5.437  -9.904  11.841  0.00  0.00    -0.202 NA
BRANCH   6   5
ATOM      5  C   UNL     1      -5.062  -9.226  10.640  0.00  0.00    +0.099 C 
BRANCH   5   4
ATOM      4  C   UNL     1      -4.375  -8.791  10.493  0.00  0.00    +0.124 C 
BRANCH   4   2
ATOM      1  O   UNL     1      -3.145  -9.073   9.822  0.00  0.00    -0.246 OA
ATOM      2  C   UNL     1      -3.954  -8.910   9.793  0.00  0.00    +0.365 C 
ATOM      3  O   UNL     1      -4.341  -8.867   9.066  0.00  0.00    -0.246 OA
ENDBRANCH   4   2
ENDBRANCH   5   4
ENDBRANCH   6   5
ENDBRANCH   9   8
TORSDOF 6
ENDMDL
MODEL 6
REMARK VINA RESULT:      -6.0     15.651     17.081
REMARK  Name = 
REMARK  6 active torsions:
REMARK  status: ('A' for Active; 'I' for Inactive)
REMARK    1  A    between atoms: C_2  and  C_4
REMARK    2  A    between atoms: C_4  and  C_5
REMARK    3  A    between atoms: C_5  and  C_6
REMARK    4  A    between atoms: N_8  and  C_9
REMARK    5  A    between atoms: C_13  and  N_17
REMARK    6  A    between atoms: C_20  and  C_24
REMARK                            x       y       z     vdW  Elec       q    Type
REMARK                         _______ _______ _______ _____ _____    ______ ____
ROOT
ATOM      9  C   UNL     1      -5.583 -10.322  15.755  0.00  0.00    +0.154 C 
ATOM     10  C   UNL     1      -6.260  -9.987  15.424  0.00  0.00    +0.166 C 
ATOM     11  O   UNL     1      -6.147  -9.935  14.609  0.00  0.00    -0.350 OA
ATOM     12  C   UNL     1      -5.399 -10.238  14.435  0.00  0.00    +0.166 C 
ATOM     13  C   UNL     1      -4.867 -10.393  13.824  0.00  0.00    +0.154 C 
ATOM     14  C   UNL     1      -4.189 -10.728  14.156  0.00  0.00    +0.166 C 
ATOM     15  O   UNL     1      -4.303 -10.780  14.971  0.00  0.00    -0.350 OA
ATOM     16  C   UNL     1      -5.050 -10.477  15.144  0.00  0.00    +0.166 C 
ENDROOT
BRANCH  13  17
ATOM     17  N   UNL     1      -4.990 -10.240  13.023  0.00  0.00    -0.200 NA
ATOM     18  C   UNL     1      -4.349 -10.202  12.507  0.00  0.00    +0.237 A 
ATOM     19  N   UNL     1      -4.471 -10.049  11.705  0.00  0.00    -0.209 NA
ATOM     20  C   UNL     1      -3.830 -10.011  11.189  0.00  0.00    +0.120 A 
ATOM     21  C   UNL     1      -3.064 -10.126  11.474  0.00  0.00    +0.043 A 
ATOM     22  C   UNL     1      -2.940 -10.279  12.275  0.00  0.00    +0.104 A 
ATOM     23  N   UNL     1      -3.583 -10.317  12.792  0.00  0.00    -0.211 NA
BRANCH  20  24
ATOM     24  C   UNL     1      -3.953  -9.858  10.388  0.00  0.00    +0.163 A 
ATOM     25  C   UNL     1      -4.128  -9.123  10.056  0.00  0.00    +0.042 A 
ATOM     26  C   UNL     1      -4.206  -9.224   9.241  0.00  0.00    +0.044 A 
ATOM     27  C   UNL     1      -4.079 -10.020   9.068  0.00  0.00    +0.180 A 
ATOM     28  O   UNL     1      -3.922 -10.412   9.777  0.00  0.00    -0.449 OA
ENDBRANCH  20  24
ENDBRANCH  13  17
BRANCH   9   8
ATOM      6  C   UNL     1      -6.066 -10.344  17.100  0.00  0.00    +0.242 C 
ATOM      7  O   UNL     1      -6.797 -10.060  16.842  0.00  0.00    -0.273 OA
ATOM      8  N   UNL     1      -5.459 -10.475  16.556  0.00  0.00    -0.202 NA
BRANCH   6   5
ATOM      5  C   UNL     1      -5.942 -10.497  17.901  0.00  0.00    +0.099 C 
BRANCH   5   4
ATOM      4  C   UNL     1      -6.546 -10.355  18.446  0.00  0.00    +0.124 C 
BRANCH   4   2
ATOM      1  O   UNL     1      -5.718 -10.720  19.551  0.00  0.00    -0.246 OA
ATOM      2  C   UNL     1      -6.469 -10.619  19.223  0.00  0.00    +0.365 C 
ATOM      3  O   UNL     1      -7.141 -10.781  19.673  0.00  0.00    -0.246 OA
ENDBRANCH   4   2
ENDBRANCH   5   4
ENDBRANCH   6   5
ENDBRANCH   9   8
TORSDOF 6
ENDMDL
MODEL 7
REMARK VINA RESULT:      -5.9     15.305     17.042
REMARK  Name = 
REMARK  6 active torsions:
REMARK  status: ('A' for Active; 'I' for Inactive)
REMARK    1  A    between atoms: C_2  and  C_4
REMARK    2  A    between atoms: C_4  and  C_5
REMARK    3  A    between atoms: C_5  and  C_6
REMARK    4  A    between atoms: N_8  and  C_9
REMARK    5  A    between atoms: C_13  and  N_17
REMARK    6  A    between atoms: C_20  and  C_24
REMARK                            x       y       z     vdW  Elec       q    Type
REMARK                         _______ _______ _______ _____ _____    ______ ____
ROOT
ATOM      9  C   UNL     1      -7.418  -9.738  16.024  0.00  0.00    +0.154 C 
ATOM     10  C   UNL     1      -6.758  -9.510  16.464  0.00  0.00    +0.166 C 
ATOM     11  O   UNL     1      -6.083  -9.733  16.046  0.00  0.00    -0.350 OA
ATOM     12  C   UNL     1      -6.326 -10.100  15.346  0.00  0.00    +0.166 C 
ATOM     13  C   UNL     1      -6.058 -10.464  14.656  0.00  0.00    +0.154 C 
ATOM     14  C   UNL     1      -6.719 -10.691  14.217  0.00  0.00    +0.166 C 
ATOM     15  O   UNL     1      -7.394 -10.468  14.636  0.00  0.00    -0.350 OA
ATOM     16  C   UNL     1      -7.151 -10.102  15.334  0.00  0.00    +0.166 C 
ENDROOT
BRANCH  13  17
ATOM     17  N   UNL     1      -5.271 -10.580  14.443  0.00  0.00    -0.200 NA
ATOM     18  C   UNL     1      -5.020 -10.402  13.678  0.00  0.00    +0.237 A 
ATOM     19  N   UNL     1      -4.231 -10.518  13.464  0.00  0.00    -0.209 NA
ATOM     20  C   UNL     1      -3.980 -10.339  12.699  0.00  0.00    +0.120 A 
ATOM     21  C   UNL     1      -4.518 -10.045  12.147  0.00  0.00    +0.043 A 
ATOM     22  C   UNL     1      -5.306  -9.928  12.360  0.00  0.00    +0.104 A 
ATOM     23  N   UNL     1      -5.557 -10.107  13.126  0.00  0.00    -0.211 NA
BRANCH  20  24
ATOM     24  C   UNL     1      -3.192 -10.455  12.485  0.00  0.00    +0.163 A 
ATOM     25  C   UNL     1      -2.921 -10.689  11.741  0.00  0.00    +0.042 A 
ATOM     26  C   UNL     1      -2.098 -10.736  11.773  0.00  0.00    +0.044 A 
ATOM     27  C   UNL     1      -1.860 -10.532  12.536  0.00  0.00    +0.180 A 
ATOM     28  O   UNL     1      -2.536 -10.359  12.976  0.00  0.00    -0.449 OA
ENDBRANCH  20  24
ENDBRANCH  13  17
BRANCH   9   8
ATOM      6  C   UNL     1      -8.397  -9.091  16.840  0.00  0.00    +0.242 C 
ATOM      7  O   UNL     1      -7.799  -8.676  17.229  0.00  0.00    -0.273 OA
ATOM      8  N   UNL     1      -8.206  -9.622  16.237  0.00  0.00    -0.202 NA
BRANCH   6   5
ATOM      5  C   UNL     1      -9.185  -8.975  17.052  0.00  0.00    +0.099 C 
BRANCH   5   4
ATOM      4  C   UNL     1      -9.457  -8.216  17.229  0.00  0.00    +0.124 C 
BRANCH   4   2
ATOM      1  O   UNL     1     -10.629  -7.434  16.990  0.00  0.00    -0.246 OA
ATOM      2  C   UNL     1     -10.263  -8.084  17.344  0.00  0.00    +0.365 C 
ATOM      3  O   UNL     1     -10.704  -8.600  17.813  0.00  0.00    -0.246 OA
ENDBRANCH   4   2
ENDBRANCH   5   4
ENDBRANCH   6   5
ENDBRANCH   9   8
TORSDOF 6
ENDMDL
MODEL 8
REMARK VINA RESULT:      -5.9     15.709     16.412
REMARK  Name = 
REMARK  6 active torsions:
REMARK  status: ('A' for Active; 'I' for Inactive)
REMARK    1  A    between atoms: C_2  and  C_4
REMARK    2  A    between atoms: C_4  and  C_5
REMARK    3  A    between atoms: C_5  and  C_6
REMARK    4  A    between atoms: N_8  and  C_9
REMARK    5  A    between atoms: C_13  and  N_17
REMARK    6  A    between atoms: C_20  and  C_24
REMARK                            x       y       z     vdW  Elec       q    Type
REMARK                         _______ _______ _______ _____ _____    ______ ____
ROOT
ATOM      9  C   UNL     1      -6.045  -9.732  12.439  0.00  0.00    +0.154 C 
ATOM     10  C   UNL     1      -6.688  -9.259  12.231  0.00  0.00    +0.166 C 
ATOM     11  O   UNL     1      -7.236  -9.288  12.848  0.00  0.00    -0.350 OA
ATOM     12  C   UNL     1      -6.931  -9.779  13.437  0.00  0.00    +0.166 C 
ATOM     13  C   UNL     1      -7.081 -10.100  14.182  0.00  0.00    +0.154 C 
ATOM     14  C   UNL     1      -6.437 -10.573  14.390  0.00  0.00    +0.166 C 
ATOM     15  O   UNL     1      -5.890 -10.544  13.773  0.00  0.00    -0.350 OA
ATOM     16  C   UNL     1      -6.195 -10.053  13.185  0.00  0.00    +0.166 C 
ENDROOT
BRANCH  13  17
ATOM     17  N   UNL     1      -7.755  -9.971  14.639  0.00  0.00    -0.200 NA
ATOM     18  C   UNL     1      -7.682  -9.764  15.434  0.00  0.00    +0.237 A 
ATOM     19  N   UNL     1      -8.356  -9.635  15.891  0.00  0.00    -0.209 NA
ATOM     20  C   UNL     1      -8.283  -9.427  16.686  0.00  0.00    +0.120 A 
ATOM     21  C   UNL     1      -7.535  -9.349  17.024  0.00  0.00    +0.043 A 
ATOM     22  C   UNL     1      -6.860  -9.478  16.568  0.00  0.00    +0.104 A 
ATOM     23  N   UNL     1      -6.933  -9.685  15.772  0.00  0.00    -0.211 NA
BRANCH  20  24
ATOM     24  C   UNL     1      -8.957  -9.298  17.143  0.00  0.00    +0.163 A 
ATOM     25  C   UNL     1      -9.370  -8.586  17.209  0.00  0.00    +0.042 A 
ATOM     26  C   UNL     1     -10.005  -8.706  17.721  0.00  0.00    +0.044 A 
ATOM     27  C   UNL     1      -9.986  -9.491  17.973  0.00  0.00    +0.180 A 
ATOM     28  O   UNL     1      -9.339  -9.857  17.616  0.00  0.00    -0.449 OA
ENDBRANCH  20  24
ENDBRANCH  13  17
BRANCH   9   8
ATOM      6  C   UNL     1      -5.120  -9.287  11.445  0.00  0.00    +0.242 C 
ATOM      7  O   UNL     1      -5.545  -8.584  11.365  0.00  0.00    -0.273 OA
ATOM      8  N   UNL     1      -5.371  -9.861  11.983  0.00  0.00    -0.202 NA
BRANCH   6   5
ATOM      5  C   UNL     1      -4.445  -9.416  10.989  0.00  0.00    +0.099 C 
BRANCH   5   4
ATOM      4  C   UNL     1      -4.241  -8.881  10.394  0.00  0.00    +0.124 C 
BRANCH   4   2
ATOM      1  O   UNL     1      -3.815  -9.186   9.065  0.00  0.00    -0.246 OA
ATOM      2  C   UNL     1      -3.639  -9.067   9.862  0.00  0.00    +0.365 C 
ATOM      3  O   UNL     1      -2.860  -9.133  10.127  0.00  0.00    -0.246 OA
ENDBRANCH   4   2
ENDBRANCH   5   4
ENDBRANCH   6   5
ENDBRANCH   9   8
TORSDOF 6
ENDMDL
MODEL 9
REMARK VINA RESULT:      -5.8     16.611     17.508
REMARK  Name = 
REMARK  6 active torsions:
REMARK  status: ('A' for Active; 'I' for Inactive)
REMARK    1  A    between atoms: C_2  and  C_4
REMARK    2  A    between atoms: C_4  and  C_5
REMARK    3  A    between atoms: C_5  and  C_6
REMARK    4  A    between atoms: N_8  and  C_9
REMARK    5  A    between atoms: C_13  and  N_17
REMARK    6  A    between atoms: C_20  and  C_24
REMARK                            x       y       z     vdW  Elec       q    Type
REMARK                         _______ _______ _______ _____ _____    ______ ____
ROOT
ATOM      9  C   UNL     1      -3.700 -10.529  13.208  0.00  0.00    +0.154 C 
ATOM     10  C   UNL     1      -4.440 -10.391  13.544  0.00  0.00    +0.166 C 
ATOM     11  O   UNL     1      -4.982 -10.282  12.931  0.00  0.00    -0.350 OA
ATOM     12  C   UNL     1      -4.576 -10.352  12.216  0.00  0.00    +0.166 C 
ATOM     13  C   UNL     1      -4.660 -10.328  11.396  0.00  0.00    +0.154 C 
ATOM     14  C   UNL     1      -3.919 -10.466  11.060  0.00  0.00    +0.166 C 
ATOM     15  O   UNL     1      -3.377 -10.575  11.673  0.00  0.00    -0.350 OA
ATOM     16  C   UNL     1      -3.783 -10.505  12.387  0.00  0.00    +0.166 C 
ENDROOT
BRANCH  13  17
ATOM     17  N   UNL     1      -5.361 -10.191  10.984  0.00  0.00    -0.200 NA
ATOM     18  C   UNL     1      -5.435  -9.522  10.508  0.00  0.00    +0.237 A 
ATOM     19  N   UNL     1      -6.137  -9.384  10.096  0.00  0.00    -0.209 NA
ATOM     20  C   UNL     1      -6.211  -8.715   9.620  0.00  0.00    +0.120 A 
ATOM     21  C   UNL     1      -5.584  -8.182   9.556  0.00  0.00    +0.043 A 
ATOM     22  C   UNL     1      -4.882  -8.319   9.968  0.00  0.00    +0.104 A 
ATOM     23  N   UNL     1      -4.808  -8.989  10.444  0.00  0.00    -0.211 NA
BRANCH  20  24
ATOM     24  C   UNL     1      -6.912  -8.576   9.208  0.00  0.00    +0.163 A 
ATOM     25  C   UNL     1      -7.671  -8.562   9.533  0.00  0.00    +0.042 A 
ATOM     26  C   UNL     1      -8.206  -8.406   8.924  0.00  0.00    +0.044 A 
ATOM     27  C   UNL     1      -7.779  -8.323   8.224  0.00  0.00    +0.180 A 
ATOM     28  O   UNL     1      -6.980  -8.428   8.399  0.00  0.00    -0.449 OA
ENDBRANCH  20  24
ENDBRANCH  13  17
BRANCH   9   8
ATOM      6  C   UNL     1      -2.992 -10.642  14.444  0.00  0.00    +0.242 C 
ATOM      7  O   UNL     1      -3.688 -10.480  14.857  0.00  0.00    -0.273 OA
ATOM      8  N   UNL     1      -2.998 -10.667  13.619  0.00  0.00    -0.202 NA
BRANCH   6   5
ATOM      5  C   UNL     1      -2.291 -10.780  14.856  0.00  0.00    +0.099 C 
BRANCH   5   4
ATOM      4  C   UNL     1      -2.114 -10.336  15.529  0.00  0.00    +0.124 C 
BRANCH   4   2
ATOM      1  O   UNL     1      -0.697 -10.148  15.525  0.00  0.00    -0.246 OA
ATOM      2  C   UNL     1      -1.381 -10.422  15.898  0.00  0.00    +0.365 C 
ATOM      3  O   UNL     1      -1.331 -10.781  16.639  0.00  0.00    -0.246 OA
ENDBRANCH   4   2
ENDBRANCH   5   4
ENDBRANCH   6   5
ENDBRANCH   9   8
TORSDOF 6
ENDMDL
MODEL 10
REMARK VINA RESULT:      -5.5     18.160     19.724
REMARK  Name = 
REMARK  6 active torsions:
REMARK  status: ('A' for Active; 'I' for Inactive)
REMARK    1  A    between atoms: C_2  and  C_4
REMARK    2  A    between atoms: C_4  and  C_5
REMARK    3  A    between atoms: C_5  and  C_6
REMARK    4  A    between atoms: N_8  and  C_9
REMARK    5  A    between atoms: C_13  and  N_17
REMARK    6  A    between atoms: C_20  and  C_24
REMARK                            x       y       z     vdW  Elec       q    Type
REMARK                         _______ _______ _______ _____ _____    ______ ____
ROOT
ATOM      9  C   UNL     1      -6.771  -8.755   8.839  0.00  0.00    +0.154 C 
ATOM     10  C   UNL     1      -6.618  -8.076   9.282  0.00  0.00    +0.166 C 
ATOM     11  O   UNL     1      -5.815  -8.070   9.470  0.00  0.00    -0.350 OA
ATOM     12  C   UNL     1      -5.471  -8.745   9.142  0.00  0.00    +0.166 C 
ATOM     13  C   UNL     1      -4.761  -9.157   9.056  0.00  0.00    +0.154 C 
ATOM     14  C   UNL     1      -4.915  -9.837   8.613  0.00  0.00    +0.166 C 
ATOM     15  O   UNL     1      -5.718  -9.843   8.425  0.00  0.00    -0.350 OA
ATOM     16  C   UNL     1      -6.061  -9.168   8.752  0.00  0.00    +0.166 C 
ENDROOT
BRANCH  13  17
ATOM     17  N   UNL     1      -4.029  -8.932   9.360  0.00  0.00    -0.200 NA
ATOM     18  C   UNL     1      -3.636  -9.419   9.896  0.00  0.00    +0.237 A 
ATOM     19  N   UNL     1      -2.903  -9.194  10.200  0.00  0.00    -0.209 NA
ATOM     20  C   UNL     1      -2.510  -9.682  10.736  0.00  0.00    +0.120 A 
ATOM     21  C   UNL     1      -2.851 -10.396  10.969  0.00  0.00    +0.043 A 
ATOM     22  C   UNL     1      -3.584 -10.623  10.666  0.00  0.00    +0.104 A 
ATOM     23  N   UNL     1      -3.977 -10.134  10.129  0.00  0.00    -0.211 NA
BRANCH  20  24
ATOM     24  C   UNL     1      -1.777  -9.456  11.040  0.00  0.00    +0.163 A 
ATOM     25  C   UNL     1      -1.435  -9.735  11.737  0.00  0.00    +0.042 A 
ATOM     26  C   UNL     1      -0.704  -9.364  11.828  0.00  0.00    +0.044 A 
ATOM     27  C   UNL     1      -0.594  -8.855  11.189  0.00  0.00    +0.180 A 
ATOM     28  O   UNL     1      -1.257  -8.912  10.701  0.00  0.00    -0.449 OA
ENDBRANCH  20  24
ENDBRANCH  13  17
BRANCH   9   8
ATOM      6  C   UNL     1      -8.198  -8.698   8.880  0.00  0.00    +0.242 C 
ATOM      7  O   UNL     1      -8.159  -8.189   9.528  0.00  0.00    -0.273 OA
ATOM      8  N   UNL     1      -7.503  -8.982   8.535  0.00  0.00    -0.202 NA
BRANCH   6   5
ATOM      5  C   UNL     1      -8.931  -8.925   8.576  0.00  0.00    +0.099 C 
BRANCH   5   4
ATOM      4  C   UNL     1      -9.617  -8.799   9.018  0.00  0.00    +0.124 C 
BRANCH   4   2
ATOM      1  O   UNL     1     -10.701  -9.730   9.044  0.00  0.00    -0.246 OA
ATOM      2  C   UNL     1     -10.346  -9.055   8.728  0.00  0.00    +0.365 C 
ATOM      3  O   UNL     1     -10.719  -8.636   8.124  0.00  0.00    -0.246 OA
ENDBRANCH   4   2
ENDBRANCH   5   4
ENDBRANCH   6   5
ENDBRANCH   9   8
TORSDOF 6
ENDMDL
