MODEL 1
REMARK VINA RESULT:      -8.8      0.000      0.000
REMARK  Name = 
REMARK  7 active torsions:
REMARK  status: ('A' for Active; 'I' for Inactive)
REMARK    1  A    between atoms: N_4  and  C_5
REMARK    2  A    between atoms: C_8  and  C_9
REMARK    3  A    between atoms: C_9  and  N_10
REMARK    4  A    between atoms: N_10  and  C_11
REMARK    5  A    between atoms: C_14  and  C_15
REMARK    6  A    between atoms: C_15  and  N_16
REMARK    7  A    between atoms: C_17  and  C_19
REMARK                            x       y       z     vdW  Elec       q    Type
REMARK                         _______ _______ _______ _____ _____    ______ ____
ROOT
ATOM     11  C   UNL     1      -0.200   0.162  23.853  0.00  0.00    +0.135 C 
ATOM     12  C   UNL     1      -0.645   0.850  23.752  0.00  0.00    +0.162 C 
ATOM     13  O   UNL     1      -1.417   0.693  23.998  0.00  0.00    -0.350 OA
ATOM     14  C   UNL     1      -1.449  -0.092  24.251  0.00  0.00    +0.169 C 
ATOM     25  C   UNL     1      -0.697  -0.420  24.161  0.00  0.00    +0.199 C 
ATOM     26  O   UNL     1      -0.480  -1.194  24.347  0.00  0.00    -0.219 OA
ENDROOT
BRANCH  11  10
ATOM     10  N   UNL     1       0.601   0.072  23.677  0.00  0.00    -0.209 NA
BRANCH  10   9
ATOM      9  C   UNL     1       0.934   0.489  23.047  0.00  0.00    +0.115 C 
BRANCH   9   8
ATOM      5  C   UNL     1       3.391   0.542  22.761  0.00  0.00    +0.073 A 
ATOM      6  C   UNL     1       3.016   1.124  23.209  0.00  0.00    +0.016 A 
ATOM      7  C   UNL     1       2.197   1.106  23.305  0.00  0.00    -0.002 A 
ATOM      8  C   UNL     1       1.753   0.507  22.952  0.00  0.00    -0.005 A 
ATOM     27  C   UNL     1       2.129  -0.075  22.502  0.00  0.00    -0.002 A 
ATOM     28  C   UNL     1       2.948  -0.057  22.407  0.00  0.00    +0.016 A 
BRANCH   5   4
ATOM      1  C   UNL     1       5.514   0.138  23.074  0.00  0.00    +0.097 C 
ATOM      2  C   UNL     1       4.695   0.120  23.169  0.00  0.00    +0.246 C 
ATOM      3  O   UNL     1       4.358  -0.337  23.768  0.00  0.00    -0.273 OA
ATOM      4  N   UNL     1       4.211   0.560  22.665  0.00  0.00    -0.179 NA
ENDBRANCH   5   4
ENDBRANCH   9   8
ENDBRANCH  10   9
ENDBRANCH  11  10
BRANCH  14  15
ATOM     15  C   UNL     1      -2.115  -0.481  24.542  0.00  0.00    +0.148 C 
BRANCH  15  16
ATOM     16  N   UNL     1      -2.691  -0.059  24.958  0.00  0.00    -0.199 NA
ATOM     17  C   UNL     1      -3.425  -0.402  25.106  0.00  0.00    +0.265 C 
ATOM     18  O   UNL     1      -4.000   0.019  25.523  0.00  0.00    -0.268 OA
BRANCH  17  19
ATOM     19  C   UNL     1      -3.587  -1.166  24.839  0.00  0.00    +0.055 A 
ATOM     20  C   UNL     1      -3.956  -1.277  24.109  0.00  0.00    +0.005 A 
ATOM     21  C   UNL     1      -4.117  -2.041  23.842  0.00  0.00    +0.000 A 
ATOM     22  C   UNL     1      -3.911  -2.692  24.304  0.00  0.00    +0.000 A 
ATOM     23  C   UNL     1      -3.542  -2.580  25.033  0.00  0.00    +0.000 A 
ATOM     24  C   UNL     1      -3.380  -1.817  25.301  0.00  0.00    +0.005 A 
ENDBRANCH  17  19
ENDBRANCH  15  16
ENDBRANCH  14  15
TORSDOF 7
ENDMDL
MODEL 2
REMARK VINA RESULT:      -8.6      4.378      5.060
REMARK  Name = 
REMARK  7 active torsions:
REMARK  status: ('A' for Active; 'I' for Inactive)
REMARK    1  A    between atoms: N_4  and  C_5
REMARK    2  A    between atoms: C_8  and  C_9
REMARK    3  A    between atoms: C_9  and  N_10
REMARK    4  A    between atoms: N_10  and  C_11
REMARK    5  A    between atoms: C_14  and  C_15
REMARK    6  A    between atoms: C_15  and  N_16
REMARK    7  A    between atoms: C_17  and  C_19
REMARK                            x       y       z     vdW  Elec       q    Type
REMARK                         _______ _______ _______ _____ _____    ______ ____
ROOT
ATOM     11  C   UNL     1      -4.266   1.418  24.623  0.00  0.00    +0.135 C 
ATOM     12  C   UNL     1      -4.934   1.127  25.009  0.00  0.00    +0.162 C 
ATOM     13  O   UNL     1      -4.895   0.303  25.002  0.00  0.00    -0.350 OA
ATOM     14  C   UNL     1      -4.202   0.085  24.610  0.00  0.00    +0.169 C 
ATOM     25  C   UNL     1      -3.813   0.774  24.376  0.00  0.00    +0.199 C 
ATOM     26  O   UNL     1      -3.097   0.813  23.968  0.00  0.00    -0.219 OA
ENDROOT
BRANCH  11  10
ATOM     10  N   UNL     1      -4.082   2.214  24.504  0.00  0.00    -0.209 NA
BRANCH  10   9
ATOM      9  C   UNL     1      -4.060   2.732  25.146  0.00  0.00    +0.115 C 
BRANCH   9   8
ATOM      5  C   UNL     1      -2.386   4.554  25.205  0.00  0.00    +0.073 A 
ATOM      6  C   UNL     1      -2.875   4.465  24.547  0.00  0.00    +0.016 A 
ATOM      7  C   UNL     1      -3.433   3.858  24.528  0.00  0.00    -0.002 A 
ATOM      8  C   UNL     1      -3.502   3.339  25.166  0.00  0.00    -0.005 A 
ATOM     27  C   UNL     1      -3.012   3.429  25.825  0.00  0.00    -0.002 A 
ATOM     28  C   UNL     1      -2.454   4.037  25.844  0.00  0.00    +0.016 A 
BRANCH   5   4
ATOM      1  C   UNL     1      -0.510   5.642  24.950  0.00  0.00    +0.097 C 
ATOM      2  C   UNL     1      -1.068   5.034  24.930  0.00  0.00    +0.246 C 
ATOM      3  O   UNL     1      -0.866   4.299  24.616  0.00  0.00    -0.273 OA
ATOM      4  N   UNL     1      -1.828   5.162  25.225  0.00  0.00    -0.179 NA
ENDBRANCH   5   4
ENDBRANCH   9   8
ENDBRANCH  10   9
ENDBRANCH  11  10
BRANCH  14  15
ATOM     15  C   UNL     1      -3.943  -0.687  24.476  0.00  0.00    +0.148 C 
BRANCH  15  16
ATOM     16  N   UNL     1      -4.427  -1.221  24.075  0.00  0.00    -0.199 NA
ATOM     17  C   UNL     1      -4.207  -2.013  24.018  0.00  0.00    +0.265 C 
ATOM     18  O   UNL     1      -4.691  -2.548  23.616  0.00  0.00    -0.268 OA
BRANCH  17  19
ATOM     19  C   UNL     1      -3.504  -2.273  24.362  0.00  0.00    +0.055 A 
ATOM     20  C   UNL     1      -2.809  -2.288  23.918  0.00  0.00    +0.005 A 
ATOM     21  C   UNL     1      -2.105  -2.548  24.262  0.00  0.00    +0.000 A 
ATOM     22  C   UNL     1      -2.097  -2.792  25.050  0.00  0.00    +0.000 A 
ATOM     23  C   UNL     1      -2.792  -2.778  25.493  0.00  0.00    +0.000 A 
ATOM     24  C   UNL     1      -3.496  -2.518  25.150  0.00  0.00    +0.005 A 
ENDBRANCH  17  19
ENDBRANCH  15  16
ENDBRANCH  14  15
TORSDOF 7
ENDMDL
MODEL 3
REMARK VINA RESULT:      -8.5      4.312      6.235
REMARK  Name = 
REMARK  7 active torsions:
REMARK  status: ('A' for Active; 'I' for Inactive)
REMARK    1  A    between atoms: N_4  and  C_5
REMARK    2  A    between atoms: C_8  and  C_9
REMARK    3  A    between atoms: C_9  and  N_10
REMARK    4  A    between atoms: N_10  and  C_11
REMARK    5  A    between atoms: C_14  and  C_15
REMARK    6  A    between atoms: C_15  and  N_16
REMARK    7  A    between atoms: C_17  and  C_19
REMARK                            x       y       z     vdW  Elec       q    Type
REMARK                         _______ _______ _______ _____ _____    ______ ____
ROOT
ATOM     11  C   UNL     1      -4.239   1.589  24.664  0.00  0.00    +0.135 C 
ATOM     12  C   UNL     1      -4.846   1.999  25.043  0.00  0.00    +0.162 C 
ATOM     13  O   UNL     1      -4.544   2.725  25.295  0.00  0.00    -0.350 OA
ATOM     14  C   UNL     1      -3.751   2.763  25.071  0.00  0.00    +0.169 C 
ATOM     25  C   UNL     1      -3.562   2.061  24.681  0.00  0.00    +0.199 C 
ATOM     26  O   UNL     1      -2.826   1.864  24.363  0.00  0.00    -0.219 OA
ENDROOT
BRANCH  11  10
ATOM     10  N   UNL     1      -4.298   0.838  24.326  0.00  0.00    -0.209 NA
BRANCH  10   9
ATOM      9  C   UNL     1      -4.603   0.211  24.768  0.00  0.00    +0.115 C 
BRANCH   9   8
ATOM      5  C   UNL     1      -3.645  -2.057  24.518  0.00  0.00    +0.073 A 
ATOM      6  C   UNL     1      -3.574  -1.656  25.234  0.00  0.00    +0.016 A 
ATOM      7  C   UNL     1      -3.893  -0.900  25.318  0.00  0.00    -0.002 A 
ATOM      8  C   UNL     1      -4.284  -0.545  24.684  0.00  0.00    -0.005 A 
ATOM     27  C   UNL     1      -4.355  -0.947  23.967  0.00  0.00    -0.002 A 
ATOM     28  C   UNL     1      -4.036  -1.703  23.883  0.00  0.00    +0.016 A 
BRANCH   5   4
ATOM      1  C   UNL     1      -2.202  -3.662  24.189  0.00  0.00    +0.097 C 
ATOM      2  C   UNL     1      -2.522  -2.906  24.272  0.00  0.00    +0.246 C 
ATOM      3  O   UNL     1      -2.038  -2.243  24.193  0.00  0.00    -0.273 OA
ATOM      4  N   UNL     1      -3.326  -2.813  24.434  0.00  0.00    -0.179 NA
ENDBRANCH   5   4
ENDBRANCH   9   8
ENDBRANCH  10   9
ENDBRANCH  11  10
BRANCH  14  15
ATOM     15  C   UNL     1      -3.236   3.392  25.212  0.00  0.00    +0.148 C 
BRANCH  15  16
ATOM     16  N   UNL     1      -3.376   3.907  25.842  0.00  0.00    -0.199 NA
ATOM     17  C   UNL     1      -2.806   4.463  26.054  0.00  0.00    +0.265 C 
ATOM     18  O   UNL     1      -2.945   4.978  26.684  0.00  0.00    -0.268 OA
BRANCH  17  19
ATOM     19  C   UNL     1      -2.095   4.505  25.637  0.00  0.00    +0.055 A 
ATOM     20  C   UNL     1      -2.001   5.065  25.038  0.00  0.00    +0.005 A 
ATOM     21  C   UNL     1      -1.290   5.108  24.622  0.00  0.00    +0.000 A 
ATOM     22  C   UNL     1      -0.674   4.591  24.804  0.00  0.00    +0.000 A 
ATOM     23  C   UNL     1      -0.768   4.031  25.402  0.00  0.00    +0.000 A 
ATOM     24  C   UNL     1      -1.478   3.988  25.819  0.00  0.00    +0.005 A 
ENDBRANCH  17  19
ENDBRANCH  15  16
ENDBRANCH  14  15
TORSDOF 7
ENDMDL
MODEL 4
REMARK VINA RESULT:      -8.2      2.790      4.011
REMARK  Name = 
REMARK  7 active torsions:
REMARK  status: ('A' for Active; 'I' for Inactive)
REMARK    1  A    between atoms: N_4  and  C_5
REMARK    2  A    between atoms: C_8  and  C_9
REMARK    3  A    between atoms: C_9  and  N_10
REMARK    4  A    between atoms: N_10  and  C_11
REMARK    5  A    between atoms: C_14  and  C_15
REMARK    6  A    between atoms: C_15  and  N_16
REMARK    7  A    between atoms: C_17  and  C_19
REMARK                            x       y       z     vdW  Elec       q    Type
REMARK                         _______ _______ _______ _____ _____    ______ ____
ROOT
ATOM     11  C   UNL     1      -0.814   0.560  24.537  0.00  0.00    +0.135 C 
ATOM     12  C   UNL     1      -0.362  -0.014  24.920  0.00  0.00    +0.162 C 
ATOM     13  O   UNL     1      -0.854  -0.655  25.088  0.00  0.00    -0.350 OA
ATOM     14  C   UNL     1      -1.609  -0.477  24.808  0.00  0.00    +0.169 C 
ATOM     25  C   UNL     1      -1.584   0.274  24.467  0.00  0.00    +0.199 C 
ATOM     26  O   UNL     1      -2.219   0.669  24.119  0.00  0.00    -0.219 OA
ENDROOT
BRANCH  11  10
ATOM     10  N   UNL     1      -0.543   1.292  24.269  0.00  0.00    -0.209 NA
BRANCH  10   9
ATOM      9  C   UNL     1      -0.103   1.777  24.772  0.00  0.00    +0.115 C 
BRANCH   9   8
ATOM      5  C   UNL     1      -0.614   4.195  24.914  0.00  0.00    +0.073 A 
ATOM      6  C   UNL     1      -0.578   3.740  25.601  0.00  0.00    +0.016 A 
ATOM      7  C   UNL     1      -0.408   2.934  25.554  0.00  0.00    -0.002 A 
ATOM      8  C   UNL     1      -0.273   2.583  24.819  0.00  0.00    -0.005 A 
ATOM     27  C   UNL     1      -0.309   3.039  24.132  0.00  0.00    -0.002 A 
ATOM     28  C   UNL     1      -0.479   3.845  24.179  0.00  0.00    +0.016 A 
BRANCH   5   4
ATOM      1  C   UNL     1      -1.736   6.059  25.090  0.00  0.00    +0.097 C 
ATOM      2  C   UNL     1      -1.565   5.254  25.043  0.00  0.00    +0.246 C 
ATOM      3  O   UNL     1      -2.176   4.700  25.077  0.00  0.00    -0.273 OA
ATOM      4  N   UNL     1      -0.784   5.001  24.962  0.00  0.00    -0.179 NA
ENDBRANCH   5   4
ENDBRANCH   9   8
ENDBRANCH  10   9
ENDBRANCH  11  10
BRANCH  14  15
ATOM     15  C   UNL     1      -2.273  -0.965  24.860  0.00  0.00    +0.148 C 
BRANCH  15  16
ATOM     16  N   UNL     1      -2.634  -1.094  25.590  0.00  0.00    -0.199 NA
ATOM     17  C   UNL     1      -3.291  -1.590  25.643  0.00  0.00    +0.265 C 
ATOM     18  O   UNL     1      -3.652  -1.720  26.373  0.00  0.00    -0.268 OA
BRANCH  17  19
ATOM     19  C   UNL     1      -3.587  -1.957  24.966  0.00  0.00    +0.055 A 
ATOM     20  C   UNL     1      -4.143  -1.568  24.496  0.00  0.00    +0.005 A 
ATOM     21  C   UNL     1      -4.440  -1.935  23.819  0.00  0.00    +0.000 A 
ATOM     22  C   UNL     1      -4.180  -2.690  23.612  0.00  0.00    +0.000 A 
ATOM     23  C   UNL     1      -3.624  -3.078  24.080  0.00  0.00    +0.000 A 
ATOM     24  C   UNL     1      -3.327  -2.712  24.758  0.00  0.00    +0.005 A 
ENDBRANCH  17  19
ENDBRANCH  15  16
ENDBRANCH  14  15
TORSDOF 7
ENDMDL
MODEL 5
REMARK VINA RESULT:      -7.4      1.794      2.576
REMARK  Name = 
REMARK  7 active torsions:
REMARK  status: ('A' for Active; 'I' for Inactive)
REMARK    1  A    between atoms: N_4  and  C_5
REMARK    2  A    between atoms: C_8  and  C_9
REMARK    3  A    between atoms: C_9  and  N_10
REMARK    4  A    between atoms: N_10  and  C_11
REMARK    5  A    between atoms: C_14  and  C_15
REMARK    6  A    between atoms: C_15  and  N_16
REMARK    7  A    between atoms: C_17  and  C_19
REMARK                            x       y       z     vdW  Elec       q    Type
REMARK                         _______ _______ _______ _____ _____    ______ ____
ROOT
ATOM     11  C   UNL     1      -0.658   0.675  23.930  0.00  0.00    +0.135 C 
ATOM     12  C   UNL     1      -1.007  -0.047  24.123  0.00  0.00    +0.162 C 
ATOM     13  O   UNL     1      -1.802   0.092  24.298  0.00  0.00    -0.350 OA
ATOM     14  C   UNL     1      -1.944   0.900  24.213  0.00  0.00    +0.169 C 
ATOM     25  C   UNL     1      -1.237   1.260  23.986  0.00  0.00    +0.199 C 
ATOM     26  O   UNL     1      -1.128   2.066  23.840  0.00  0.00    -0.219 OA
ENDROOT
BRANCH  11  10
ATOM     10  N   UNL     1       0.130   0.792  23.719  0.00  0.00    -0.209 NA
BRANCH  10   9
ATOM      9  C   UNL     1       0.530   0.215  23.283  0.00  0.00    +0.115 C 
BRANCH   9   8
ATOM      5  C   UNL     1       2.925   0.516  22.739  0.00  0.00    +0.073 A 
ATOM      6  C   UNL     1       2.572   0.986  23.317  0.00  0.00    +0.016 A 
ATOM      7  C   UNL     1       1.773   0.886  23.498  0.00  0.00    -0.002 A 
ATOM      8  C   UNL     1       1.328   0.315  23.102  0.00  0.00    -0.005 A 
ATOM     27  C   UNL     1       1.683  -0.155  22.523  0.00  0.00    -0.002 A 
ATOM     28  C   UNL     1       2.481  -0.055  22.342  0.00  0.00    +0.016 A 
BRANCH   5   4
ATOM      1  C   UNL     1       5.097   0.295  22.794  0.00  0.00    +0.097 C 
ATOM      2  C   UNL     1       4.298   0.194  22.975  0.00  0.00    +0.246 C 
ATOM      3  O   UNL     1       4.073  -0.327  23.574  0.00  0.00    -0.273 OA
ATOM      4  N   UNL     1       3.724   0.616  22.558  0.00  0.00    -0.179 NA
ENDBRANCH   5   4
ENDBRANCH   9   8
ENDBRANCH  10   9
ENDBRANCH  11  10
BRANCH  14  15
ATOM     15  C   UNL     1      -2.665   1.281  24.334  0.00  0.00    +0.148 C 
BRANCH  15  16
ATOM     16  N   UNL     1      -3.353   0.839  24.444  0.00  0.00    -0.199 NA
ATOM     17  C   UNL     1      -4.069   1.220  24.590  0.00  0.00    +0.265 C 
ATOM     18  O   UNL     1      -4.757   0.777  24.700  0.00  0.00    -0.268 OA
BRANCH  17  19
ATOM     19  C   UNL     1      -4.099   2.043  24.626  0.00  0.00    +0.055 A 
ATOM     20  C   UNL     1      -4.008   2.428  25.351  0.00  0.00    +0.005 A 
ATOM     21  C   UNL     1      -4.038   3.251  25.387  0.00  0.00    +0.000 A 
ATOM     22  C   UNL     1      -4.159   3.690  24.699  0.00  0.00    +0.000 A 
ATOM     23  C   UNL     1      -4.250   3.306  23.975  0.00  0.00    +0.000 A 
ATOM     24  C   UNL     1      -4.220   2.482  23.939  0.00  0.00    +0.005 A 
ENDBRANCH  17  19
ENDBRANCH  15  16
ENDBRANCH  14  15
TORSDOF 7
ENDMDL
MODEL 6
REMARK VINA RESULT:      -7.2      2.223      6.578
REMARK  Name = 
REMARK  7 active torsions:
REMARK  status: ('A' for Active; 'I' for Inactive)
REMARK    1  A    between atoms: N_4  and  C_5
REMARK    2  A    between atoms: C_8  and  C_9
REMARK    3  A    between atoms: C_9  and  N_10
REMARK    4  A    between atoms: N_10  and  C_11
REMARK    5  A    between atoms: C_14  and  C_15
REMARK    6  A    between atoms: C_15  and  N_16
REMARK    7  A    between atoms: C_17  and  C_19
REMARK                            x       y       z     vdW  Elec       q    Type
REMARK                         _______ _______ _______ _____ _____    ______ ____
ROOT
ATOM     11  C   UNL     1      -0.198   0.796  24.042  0.00  0.00    +0.135 C 
ATOM     12  C   UNL     1      -0.290  -0.011  23.896  0.00  0.00    +0.162 C 
ATOM     13  O   UNL     1       0.399  -0.285  23.533  0.00  0.00    -0.350 OA
ATOM     14  C   UNL     1       0.916   0.353  23.454  0.00  0.00    +0.169 C 
ATOM     25  C   UNL     1       0.547   1.021  23.769  0.00  0.00    +0.199 C 
ATOM     26  O   UNL     1       0.868   1.781  23.803  0.00  0.00    -0.219 OA
ENDROOT
BRANCH  11  10
ATOM     10  N   UNL     1      -0.753   1.291  24.398  0.00  0.00    -0.209 NA
BRANCH  10   9
ATOM      9  C   UNL     1      -1.547   1.067  24.426  0.00  0.00    +0.115 C 
BRANCH   9   8
ATOM      5  C   UNL     1      -3.300   2.768  24.823  0.00  0.00    +0.073 A 
ATOM      6  C   UNL     1      -2.686   2.675  25.366  0.00  0.00    +0.016 A 
ATOM      7  C   UNL     1      -2.102   2.107  25.233  0.00  0.00    -0.002 A 
ATOM      8  C   UNL     1      -2.131   1.634  24.558  0.00  0.00    -0.005 A 
ATOM     27  C   UNL     1      -2.746   1.728  24.015  0.00  0.00    -0.002 A 
ATOM     28  C   UNL     1      -3.330   2.295  24.148  0.00  0.00    +0.016 A 
BRANCH   5   4
ATOM      1  C   UNL     1      -5.183   3.685  25.440  0.00  0.00    +0.097 C 
ATOM      2  C   UNL     1      -4.599   3.118  25.307  0.00  0.00    +0.246 C 
ATOM      3  O   UNL     1      -4.728   2.333  25.525  0.00  0.00    -0.273 OA
ATOM      4  N   UNL     1      -3.884   3.336  24.956  0.00  0.00    -0.179 NA
ENDBRANCH   5   4
ENDBRANCH   9   8
ENDBRANCH  10   9
ENDBRANCH  11  10
BRANCH  14  15
ATOM     15  C   UNL     1       1.670   0.328  23.120  0.00  0.00    +0.148 C 
BRANCH  15  16
ATOM     16  N   UNL     1       1.766   0.097  22.333  0.00  0.00    -0.199 NA
ATOM     17  C   UNL     1       2.522   0.011  22.018  0.00  0.00    +0.265 C 
ATOM     18  O   UNL     1       2.618  -0.220  21.231  0.00  0.00    -0.268 OA
BRANCH  17  19
ATOM     19  C   UNL     1       3.185   0.156  22.488  0.00  0.00    +0.055 A 
ATOM     20  C   UNL     1       3.494  -0.445  22.961  0.00  0.00    +0.005 A 
ATOM     21  C   UNL     1       4.156  -0.301  23.431  0.00  0.00    +0.000 A 
ATOM     22  C   UNL     1       4.509   0.445  23.428  0.00  0.00    +0.000 A 
ATOM     23  C   UNL     1       4.200   1.046  22.956  0.00  0.00    +0.000 A 
ATOM     24  C   UNL     1       3.538   0.902  22.485  0.00  0.00    +0.005 A 
ENDBRANCH  17  19
ENDBRANCH  15  16
ENDBRANCH  14  15
TORSDOF 7
ENDMDL
MODEL 7
REMARK VINA RESULT:      -7.1      3.246      5.788
REMARK  Name = 
REMARK  7 active torsions:
REMARK  status: ('A' for Active; 'I' for Inactive)
REMARK    1  A    between atoms: N_4  and  C_5
REMARK    2  A    between atoms: C_8  and  C_9
REMARK    3  A    between atoms: C_9  and  N_10
REMARK    4  A    between atoms: N_10  and  C_11
REMARK    5  A    between atoms: C_14  and  C_15
REMARK    6  A    between atoms: C_15  and  N_16
REMARK    7  A    between atoms: C_17  and  C_19
REMARK                            x       y       z     vdW  Elec       q    Type
REMARK                         _______ _______ _______ _____ _____    ______ ____
ROOT
ATOM     11  C   UNL     1      -0.944   0.735  25.123  0.00  0.00    +0.135 C 
ATOM     12  C   UNL     1      -0.420   1.029  25.689  0.00  0.00    +0.162 C 
ATOM     13  O   UNL     1      -0.575   1.834  25.785  0.00  0.00    -0.350 OA
ATOM     14  C   UNL     1      -1.194   2.037  25.279  0.00  0.00    +0.169 C 
ATOM     25  C   UNL     1      -1.423   1.357  24.870  0.00  0.00    +0.199 C 
ATOM     26  O   UNL     1      -2.024   1.309  24.307  0.00  0.00    -0.219 OA
ENDROOT
BRANCH  11  10
ATOM     10  N   UNL     1      -0.983  -0.045  24.857  0.00  0.00    -0.209 NA
BRANCH  10   9
ATOM      9  C   UNL     1      -1.162  -0.652  25.387  0.00  0.00    +0.115 C 
BRANCH   9   8
ATOM      5  C   UNL     1      -2.769  -2.421  24.742  0.00  0.00    +0.073 A 
ATOM      6  C   UNL     1      -2.966  -1.880  25.332  0.00  0.00    +0.016 A 
ATOM      7  C   UNL     1      -2.431  -1.290  25.547  0.00  0.00    -0.002 A 
ATOM      8  C   UNL     1      -1.698  -1.242  25.172  0.00  0.00    -0.005 A 
ATOM     27  C   UNL     1      -1.500  -1.784  24.581  0.00  0.00    -0.002 A 
ATOM     28  C   UNL     1      -2.036  -2.373  24.366  0.00  0.00    +0.016 A 
BRANCH   5   4
ATOM      1  C   UNL     1      -4.478  -3.419  23.820  0.00  0.00    +0.097 C 
ATOM      2  C   UNL     1      -3.942  -2.829  24.035  0.00  0.00    +0.246 C 
ATOM      3  O   UNL     1      -4.044  -2.058  23.759  0.00  0.00    -0.273 OA
ATOM      4  N   UNL     1      -3.304  -3.010  24.527  0.00  0.00    -0.179 NA
ENDBRANCH   5   4
ENDBRANCH   9   8
ENDBRANCH  10   9
ENDBRANCH  11  10
BRANCH  14  15
ATOM     15  C   UNL     1      -1.527   2.787  25.196  0.00  0.00    +0.148 C 
BRANCH  15  16
ATOM     16  N   UNL     1      -1.044   3.456  25.192  0.00  0.00    -0.199 NA
ATOM     17  C   UNL     1      -1.376   4.205  25.276  0.00  0.00    +0.265 C 
ATOM     18  O   UNL     1      -0.892   4.874  25.271  0.00  0.00    -0.268 OA
BRANCH  17  19
ATOM     19  C   UNL     1      -2.192   4.288  25.364  0.00  0.00    +0.055 A 
ATOM     20  C   UNL     1      -2.529   4.270  26.118  0.00  0.00    +0.005 A 
ATOM     21  C   UNL     1      -3.345   4.353  26.206  0.00  0.00    +0.000 A 
ATOM     22  C   UNL     1      -3.824   4.453  25.542  0.00  0.00    +0.000 A 
ATOM     23  C   UNL     1      -3.488   4.472  24.790  0.00  0.00    +0.000 A 
ATOM     24  C   UNL     1      -2.671   4.389  24.700  0.00  0.00    +0.005 A 
ENDBRANCH  17  19
ENDBRANCH  15  16
ENDBRANCH  14  15
TORSDOF 7
ENDMDL
MODEL 8
REMARK VINA RESULT:      -6.7     13.895     16.229
REMARK  Name = 
REMARK  7 active torsions:
REMARK  status: ('A' for Active; 'I' for Inactive)
REMARK    1  A    between atoms: N_4  and  C_5
REMARK    2  A    between atoms: C_8  and  C_9
REMARK    3  A    between atoms: C_9  and  N_10
REMARK    4  A    between atoms: N_10  and  C_11
REMARK    5  A    between atoms: C_14  and  C_15
REMARK    6  A    between atoms: C_15  and  N_16
REMARK    7  A    between atoms: C_17  and  C_19
REMARK                            x       y       z     vdW  Elec       q    Type
REMARK                         _______ _______ _______ _____ _____    ______ ____
ROOT
ATOM     11  C   UNL     1      -5.056 -10.344  13.878  0.00  0.00    +0.135 C 
ATOM     12  C   UNL     1      -4.387 -10.781  14.084  0.00  0.00    +0.162 C 
ATOM     13  O   UNL     1      -3.873 -10.780  13.438  0.00  0.00    -0.350 OA
ATOM     14  C   UNL     1      -4.224 -10.342  12.834  0.00  0.00    +0.169 C 
ATOM     25  C   UNL     1      -4.956 -10.073  13.106  0.00  0.00    +0.199 C 
ATOM     26  O   UNL     1      -5.492  -9.613  12.680  0.00  0.00    -0.219 OA
ENDROOT
BRANCH  11  10
ATOM     10  N   UNL     1      -5.710 -10.203  14.360  0.00  0.00    -0.209 NA
BRANCH  10   9
ATOM      9  C   UNL     1      -5.695 -10.433  15.153  0.00  0.00    +0.115 C 
BRANCH   9   8
ATOM      5  C   UNL     1      -7.513  -9.730  16.679  0.00  0.00    +0.073 A 
ATOM      6  C   UNL     1      -7.646 -10.327  16.127  0.00  0.00    +0.016 A 
ATOM      7  C   UNL     1      -7.041 -10.562  15.618  0.00  0.00    -0.002 A 
ATOM      8  C   UNL     1      -6.301 -10.199  15.661  0.00  0.00    -0.005 A 
ATOM     27  C   UNL     1      -6.167  -9.601  16.215  0.00  0.00    -0.002 A 
ATOM     28  C   UNL     1      -6.773  -9.366  16.723  0.00  0.00    +0.016 A 
BRANCH   5   4
ATOM      1  C   UNL     1      -9.285  -8.710  17.444  0.00  0.00    +0.097 C 
ATOM      2  C   UNL     1      -8.680  -8.945  16.935  0.00  0.00    +0.246 C 
ATOM      3  O   UNL     1      -8.634  -8.630  16.174  0.00  0.00    -0.273 OA
ATOM      4  N   UNL     1      -8.118  -9.495  17.187  0.00  0.00    -0.179 NA
ENDBRANCH   5   4
ENDBRANCH   9   8
ENDBRANCH  10   9
ENDBRANCH  11  10
BRANCH  14  15
ATOM     15  C   UNL     1      -3.902 -10.199  12.088  0.00  0.00    +0.148 C 
BRANCH  15  16
ATOM     16  N   UNL     1      -3.083 -10.212  11.983  0.00  0.00    -0.199 NA
ATOM     17  C   UNL     1      -2.763 -10.095  11.232  0.00  0.00    +0.265 C 
ATOM     18  O   UNL     1      -1.945 -10.108  11.127  0.00  0.00    -0.268 OA
BRANCH  17  19
ATOM     19  C   UNL     1      -3.260  -9.966  10.586  0.00  0.00    +0.055 A 
ATOM     20  C   UNL     1      -3.584 -10.608  10.181  0.00  0.00    +0.005 A 
ATOM     21  C   UNL     1      -4.081 -10.479   9.535  0.00  0.00    +0.000 A 
ATOM     22  C   UNL     1      -4.253  -9.709   9.294  0.00  0.00    +0.000 A 
ATOM     23  C   UNL     1      -3.928  -9.068   9.699  0.00  0.00    +0.000 A 
ATOM     24  C   UNL     1      -3.432  -9.197  10.345  0.00  0.00    +0.005 A 
ENDBRANCH  17  19
ENDBRANCH  15  16
ENDBRANCH  14  15
TORSDOF 7
ENDMDL
MODEL 9
REMARK VINA RESULT:      -5.5     16.486     17.714
REMARK  Name = 
REMARK  7 active torsions:
REMARK  status: ('A' for Active; 'I' for Inactive)
REMARK    1  A    between atoms: N_4  and  C_5
REMARK    2  A    between atoms: C_8  and  C_9
REMARK    3  A    between atoms: C_9  and  N_10
REMARK    4  A    between atoms: N_10  and  C_11
REMARK    5  A    between atoms: C_14  and  C_15
REMARK    6  A    between atoms: C_15  and  N_16
REMARK    7  A    between atoms: C_17  and  C_19
REMARK                            x       y       z     vdW  Elec       q    Type
REMARK                         _______ _______ _______ _____ _____    ______ ____
ROOT
ATOM     11  C   UNL     1      -5.766  -9.021   9.458  0.00  0.00    +0.135 C 
ATOM     12  C   UNL     1      -5.704  -8.949   8.638  0.00  0.00    +0.162 C 
ATOM     13  O   UNL     1      -6.409  -8.624   8.356  0.00  0.00    -0.350 OA
ATOM     14  C   UNL     1      -6.906  -8.496   9.002  0.00  0.00    +0.169 C 
ATOM     25  C   UNL     1      -6.509  -8.741   9.683  0.00  0.00    +0.199 C 
ATOM     26  O   UNL     1      -6.803  -8.711  10.453  0.00  0.00    -0.219 OA
ENDROOT
BRANCH  11  10
ATOM     10  N   UNL     1      -5.187  -9.320   9.964  0.00  0.00    -0.209 NA
BRANCH  10   9
ATOM      9  C   UNL     1      -4.462  -9.569   9.658  0.00  0.00    +0.115 C 
BRANCH   9   8
ATOM      5  C   UNL     1      -2.634 -10.224  11.192  0.00  0.00    +0.073 A 
ATOM      6  C   UNL     1      -3.269 -10.734  11.067  0.00  0.00    +0.016 A 
ATOM      7  C   UNL     1      -3.878 -10.516  10.555  0.00  0.00    -0.002 A 
ATOM      8  C   UNL     1      -3.853  -9.788  10.170  0.00  0.00    -0.005 A 
ATOM     27  C   UNL     1      -3.216  -9.276  10.296  0.00  0.00    -0.002 A 
ATOM     28  C   UNL     1      -2.607  -9.495  10.807  0.00  0.00    +0.016 A 
BRANCH   5   4
ATOM      1  C   UNL     1      -1.569 -10.770  13.019  0.00  0.00    +0.097 C 
ATOM      2  C   UNL     1      -2.179 -10.552  12.507  0.00  0.00    +0.246 C 
ATOM      3  O   UNL     1      -2.943 -10.443  12.798  0.00  0.00    -0.273 OA
ATOM      4  N   UNL     1      -2.024 -10.442  11.704  0.00  0.00    -0.179 NA
ENDBRANCH   5   4
ENDBRANCH   9   8
ENDBRANCH  10   9
ENDBRANCH  11  10
BRANCH  14  15
ATOM     15  C   UNL     1      -7.667  -8.179   8.973  0.00  0.00    +0.148 C 
BRANCH  15  16
ATOM     16  N   UNL     1      -7.793  -7.439   8.629  0.00  0.00    -0.199 NA
ATOM     17  C   UNL     1      -8.561  -7.183   8.474  0.00  0.00    +0.265 C 
ATOM     18  O   UNL     1      -8.687  -6.443   8.130  0.00  0.00    -0.268 OA
BRANCH  17  19
ATOM     19  C   UNL     1      -9.203  -7.664   8.662  0.00  0.00    +0.055 A 
ATOM     20  C   UNL     1      -9.463  -8.234   8.124  0.00  0.00    +0.005 A 
ATOM     21  C   UNL     1     -10.106  -8.716   8.312  0.00  0.00    +0.000 A 
ATOM     22  C   UNL     1     -10.489  -8.628   9.037  0.00  0.00    +0.000 A 
ATOM     23  C   UNL     1     -10.229  -8.059   9.574  0.00  0.00    +0.000 A 
ATOM     24  C   UNL     1      -9.586  -7.577   9.387  0.00  0.00    +0.005 A 
ENDBRANCH  17  19
ENDBRANCH  15  16
ENDBRANCH  14  15
TORSDOF 7
ENDMDL
MODEL 10
REMARK VINA RESULT:      -4.9     14.158     15.613
REMARK  Name = 
REMARK  7 active torsions:
REMARK  status: ('A' for Active; 'I' for Inactive)
REMARK    1  A    between atoms: N_4  and  C_5
REMARK    2  A    between atoms: C_8  and  C_9
REMARK    3  A    between atoms: C_9  and  N_10
REMARK    4  A    between atoms: N_10  and  C_11
REMARK    5  A    between atoms: C_14  and  C_15
REMARK    6  A    between atoms: C_15  and  N_16
REMARK    7  A    between atoms: C_17  and  C_19
REMARK                            x       y       z     vdW  Elec       q    Type
REMARK                         _______ _______ _______ _____ _____    ______ ____
ROOT
ATOM     11  C   UNL     1      -7.548  -9.812  13.494  0.00  0.00    +0.135 C 
ATOM     12  C   UNL     1      -8.348  -9.655  13.366  0.00  0.00    +0.162 C 
ATOM     13  O   UNL     1      -8.739  -9.716  14.090  0.00  0.00    -0.350 OA
ATOM     14  C   UNL     1      -8.181  -9.910  14.666  0.00  0.00    +0.169 C 
ATOM     25  C   UNL     1      -7.445  -9.969  14.297  0.00  0.00    +0.199 C 
ATOM     26  O   UNL     1      -6.731 -10.154  14.667  0.00  0.00    -0.219 OA
ENDROOT
BRANCH  11  10
ATOM     10  N   UNL     1      -6.956  -9.811  12.920  0.00  0.00    -0.209 NA
BRANCH  10   9
ATOM      9  C   UNL     1      -7.093  -9.456  12.188  0.00  0.00    +0.115 C 
BRANCH   9   8
ATOM      5  C   UNL     1      -5.226  -9.160  10.590  0.00  0.00    +0.073 A 
ATOM      6  C   UNL     1      -5.416  -8.556  11.117  0.00  0.00    +0.016 A 
ATOM      7  C   UNL     1      -6.038  -8.655  11.650  0.00  0.00    -0.002 A 
ATOM      8  C   UNL     1      -6.470  -9.357  11.655  0.00  0.00    -0.005 A 
ATOM     27  C   UNL     1      -6.280  -9.962  11.126  0.00  0.00    -0.002 A 
ATOM     28  C   UNL     1      -5.658  -9.863  10.593  0.00  0.00    +0.016 A 
BRANCH   5   4
ATOM      1  C   UNL     1      -3.213  -9.171   9.743  0.00  0.00    +0.097 C 
ATOM      2  C   UNL     1      -3.835  -9.270  10.276  0.00  0.00    +0.246 C 
ATOM      3  O   UNL     1      -3.691  -9.576  11.028  0.00  0.00    -0.273 OA
ATOM      4  N   UNL     1      -4.604  -9.061  10.057  0.00  0.00    -0.179 NA
ENDBRANCH   5   4
ENDBRANCH   9   8
ENDBRANCH  10   9
ENDBRANCH  11  10
BRANCH  14  15
ATOM     15  C   UNL     1      -8.332 -10.025  15.468  0.00  0.00    +0.148 C 
BRANCH  15  16
ATOM     16  N   UNL     1      -9.110 -10.073  15.740  0.00  0.00    -0.199 NA
ATOM     17  C   UNL     1      -9.262 -10.100  16.549  0.00  0.00    +0.265 C 
ATOM     18  O   UNL     1     -10.040 -10.148  16.821  0.00  0.00    -0.268 OA
BRANCH  17  19
ATOM     19  C   UNL     1      -8.638 -10.078  17.089  0.00  0.00    +0.055 A 
ATOM     20  C   UNL     1      -8.347  -9.352  17.353  0.00  0.00    +0.005 A 
ATOM     21  C   UNL     1      -7.724  -9.331  17.893  0.00  0.00    +0.000 A 
ATOM     22  C   UNL     1      -7.391 -10.034  18.167  0.00  0.00    +0.000 A 
ATOM     23  C   UNL     1      -7.682 -10.759  17.903  0.00  0.00    +0.000 A 
ATOM     24  C   UNL     1      -8.306 -10.781  17.363  0.00  0.00    +0.005 A 
ENDBRANCH  17  19
ENDBRANCH  15  16
ENDBRANCH  14  15
TORSDOF 7
ENDMDL
