MODEL 1
REMARK VINA RESULT:     -11.6      0.000      0.000
REMARK  Name = 
REMARK  4 active torsions:
REMARK  status: ('A' for Active; 'I' for Inactive)
REMARK    1  A    between atoms: C_2  and  C_3
REMARK    2  A    between atoms: C_10  and  C_11
REMARK    3  A    between atoms: C_11  and  N_12
REMARK    4  A    between atoms: C_13  and  C_15
REMARK                            x       y       z     vdW  Elec       q    Type
REMARK                         _______ _______ _______ _____ _____    ______ ____
ROOT
ATOM     11  C   UNL     1      -3.159   1.626  24.904  0.00  0.00    +0.131 C 
ENDROOT
BRANCH  11  10
ATOM      3  C   UNL     1      -1.788   3.546  25.127  0.00  0.00    +0.016 C 
ATOM      4  C   UNL     1      -2.559   3.650  25.128  0.00  0.00    +0.072 C 
ATOM      5  N   UNL     1      -2.165   2.928  25.056  0.00  0.00    -0.272 NA
ATOM      6  C   UNL     1      -1.137   3.132  25.092  0.00  0.00    +0.072 C 
ATOM      7  C   UNL     1      -0.516   2.928  25.079  0.00  0.00    +0.017 C 
ATOM      8  C   UNL     1      -1.408   2.834  25.057  0.00  0.00    +0.004 C 
ATOM      9  C   UNL     1      -1.707   2.014  24.966  0.00  0.00    +0.018 C 
ATOM     10  C   UNL     1      -2.469   2.073  24.961  0.00  0.00    +0.079 C 
BRANCH   3   2
ATOM      1  C   UNL     1      -1.665   4.966  25.236  0.00  0.00    +0.000 C 
ATOM      2  C   UNL     1      -1.316   4.219  25.205  0.00  0.00    +0.001 C 
ENDBRANCH   3   2
ENDBRANCH  11  10
BRANCH  11  12
ATOM     12  N   UNL     1      -3.118   0.802  24.899  0.00  0.00    -0.200 NA
ATOM     13  C   UNL     1      -3.810   0.355  24.936  0.00  0.00    +0.265 C 
ATOM     14  O   UNL     1      -4.543   0.732  24.978  0.00  0.00    -0.268 OA
BRANCH  13  15
ATOM     15  C   UNL     1      -3.770  -0.469  24.931  0.00  0.00    +0.056 A 
ATOM     16  C   UNL     1      -4.029  -0.891  24.271  0.00  0.00    +0.018 A 
ATOM     17  C   UNL     1      -3.988  -1.715  24.266  0.00  0.00    +0.085 A 
ATOM     18 CL   UNL     1      -4.247  -2.137  23.607  0.00  0.00    -0.080 Cl
ATOM     19  C   UNL     1      -3.688  -2.117  24.921  0.00  0.00    +0.151 A 
ATOM     20  F   UNL     1      -3.647  -2.941  24.917  0.00  0.00    -0.203 F 
ATOM     21  C   UNL     1      -3.429  -1.695  25.581  0.00  0.00    +0.031 A 
ATOM     22  C   UNL     1      -3.470  -0.872  25.586  0.00  0.00    +0.007 A 
ENDBRANCH  13  15
ENDBRANCH  11  12
TORSDOF 4
ENDMDL
MODEL 2
REMARK VINA RESULT:     -11.5      2.499      5.053
REMARK  Name = 
REMARK  4 active torsions:
REMARK  status: ('A' for Active; 'I' for Inactive)
REMARK    1  A    between atoms: C_2  and  C_3
REMARK    2  A    between atoms: C_10  and  C_11
REMARK    3  A    between atoms: C_11  and  N_12
REMARK    4  A    between atoms: C_13  and  C_15
REMARK                            x       y       z     vdW  Elec       q    Type
REMARK                         _______ _______ _______ _____ _____    ______ ____
ROOT
ATOM     11  C   UNL     1      -3.840   1.003  24.472  0.00  0.00    +0.131 C 
ENDROOT
BRANCH  11  10
ATOM      3  C   UNL     1      -3.842  -1.367  24.488  0.00  0.00    +0.016 C 
ATOM      4  C   UNL     1      -4.085  -1.009  23.841  0.00  0.00    +0.072 C 
ATOM      5  N   UNL     1      -3.823  -0.642  24.532  0.00  0.00    -0.272 NA
ATOM      6  C   UNL     1      -3.571  -1.400  25.210  0.00  0.00    +0.072 C 
ATOM      7  C   UNL     1      -3.352  -1.589  25.796  0.00  0.00    +0.017 C 
ATOM      8  C   UNL     1      -3.587  -0.999  25.163  0.00  0.00    +0.004 C 
ATOM      9  C   UNL     1      -3.505  -0.152  25.376  0.00  0.00    +0.018 C 
ATOM     10  C   UNL     1      -3.735   0.238  24.760  0.00  0.00    +0.079 C 
BRANCH   3   2
ATOM      1  C   UNL     1      -4.107  -2.603  23.822  0.00  0.00    +0.000 C 
ATOM      2  C   UNL     1      -3.846  -2.193  24.487  0.00  0.00    +0.001 C 
ENDBRANCH   3   2
ENDBRANCH  11  10
BRANCH  11  12
ATOM     12  N   UNL     1      -3.464   1.638  24.839  0.00  0.00    -0.200 NA
ATOM     13  C   UNL     1      -3.556   2.401  24.539  0.00  0.00    +0.265 C 
ATOM     14  O   UNL     1      -4.024   2.529  23.872  0.00  0.00    -0.268 OA
BRANCH  13  15
ATOM     15  C   UNL     1      -3.179   3.036  24.906  0.00  0.00    +0.056 A 
ATOM     16  C   UNL     1      -2.401   3.227  24.706  0.00  0.00    +0.018 A 
ATOM     17  C   UNL     1      -2.024   3.862  25.073  0.00  0.00    +0.085 A 
ATOM     18 CL   UNL     1      -1.247   4.053  24.873  0.00  0.00    -0.080 Cl
ATOM     19  C   UNL     1      -2.425   4.308  25.640  0.00  0.00    +0.151 A 
ATOM     20  F   UNL     1      -2.049   4.943  26.007  0.00  0.00    -0.203 F 
ATOM     21  C   UNL     1      -3.203   4.117  25.840  0.00  0.00    +0.031 A 
ATOM     22  C   UNL     1      -3.579   3.483  25.473  0.00  0.00    +0.007 A 
ENDBRANCH  13  15
ENDBRANCH  11  12
TORSDOF 4
ENDMDL
MODEL 3
REMARK VINA RESULT:     -11.0      1.001      1.299
REMARK  Name = 
REMARK  4 active torsions:
REMARK  status: ('A' for Active; 'I' for Inactive)
REMARK    1  A    between atoms: C_2  and  C_3
REMARK    2  A    between atoms: C_10  and  C_11
REMARK    3  A    between atoms: C_11  and  N_12
REMARK    4  A    between atoms: C_13  and  C_15
REMARK                            x       y       z     vdW  Elec       q    Type
REMARK                         _______ _______ _______ _____ _____    ______ ____
ROOT
ATOM     11  C   UNL     1      -1.997   1.698  24.660  0.00  0.00    +0.131 C 
ENDROOT
BRANCH  11  10
ATOM      3  C   UNL     1      -1.770   3.999  25.177  0.00  0.00    +0.016 C 
ATOM      4  C   UNL     1      -1.228   3.675  24.722  0.00  0.00    +0.072 C 
ATOM      5  N   UNL     1      -1.883   3.293  25.047  0.00  0.00    -0.272 NA
ATOM      6  C   UNL     1      -2.412   4.005  25.606  0.00  0.00    +0.072 C 
ATOM      7  C   UNL     1      -2.916   4.167  25.988  0.00  0.00    +0.017 C 
ATOM      8  C   UNL     1      -2.410   3.617  25.492  0.00  0.00    +0.004 C 
ATOM      9  C   UNL     1      -2.687   2.786  25.435  0.00  0.00    +0.018 C 
ATOM     10  C   UNL     1      -2.176   2.430  24.992  0.00  0.00    +0.079 C 
BRANCH   3   2
ATOM      1  C   UNL     1      -1.095   5.244  24.984  0.00  0.00    +0.000 C 
ATOM      2  C   UNL     1      -1.685   4.801  25.353  0.00  0.00    +0.001 C 
ENDBRANCH   3   2
ENDBRANCH  11  10
BRANCH  11  12
ATOM     12  N   UNL     1      -2.437   1.031  24.866  0.00  0.00    -0.200 NA
ATOM     13  C   UNL     1      -2.228   0.291  24.569  0.00  0.00    +0.265 C 
ATOM     14  O   UNL     1      -1.579   0.216  24.064  0.00  0.00    -0.268 OA
BRANCH  13  15
ATOM     15  C   UNL     1      -2.668  -0.376  24.775  0.00  0.00    +0.056 A 
ATOM     16  C   UNL     1      -3.266  -0.647  24.275  0.00  0.00    +0.018 A 
ATOM     17  C   UNL     1      -3.706  -1.313  24.482  0.00  0.00    +0.085 A 
ATOM     18 CL   UNL     1      -4.303  -1.585  23.982  0.00  0.00    -0.080 Cl
ATOM     19  C   UNL     1      -3.549  -1.709  25.188  0.00  0.00    +0.151 A 
ATOM     20  F   UNL     1      -3.988  -2.375  25.396  0.00  0.00    -0.203 F 
ATOM     21  C   UNL     1      -2.951  -1.437  25.689  0.00  0.00    +0.031 A 
ATOM     22  C   UNL     1      -2.511  -0.772  25.482  0.00  0.00    +0.007 A 
ENDBRANCH  13  15
ENDBRANCH  11  12
TORSDOF 4
ENDMDL
MODEL 4
REMARK VINA RESULT:     -10.9      1.418      2.006
REMARK  Name = 
REMARK  4 active torsions:
REMARK  status: ('A' for Active; 'I' for Inactive)
REMARK    1  A    between atoms: C_2  and  C_3
REMARK    2  A    between atoms: C_10  and  C_11
REMARK    3  A    between atoms: C_11  and  N_12
REMARK    4  A    between atoms: C_13  and  C_15
REMARK                            x       y       z     vdW  Elec       q    Type
REMARK                         _______ _______ _______ _____ _____    ______ ____
ROOT
ATOM     11  C   UNL     1      -3.792   1.277  24.195  0.00  0.00    +0.131 C 
ENDROOT
BRANCH  11  10
ATOM      3  C   UNL     1      -3.904   3.309  25.408  0.00  0.00    +0.016 C 
ATOM      4  C   UNL     1      -3.204   3.072  25.164  0.00  0.00    +0.072 C 
ATOM      5  N   UNL     1      -3.921   2.682  25.042  0.00  0.00    -0.272 NA
ATOM      6  C   UNL     1      -4.669   3.260  25.494  0.00  0.00    +0.072 C 
ATOM      7  C   UNL     1      -5.297   3.359  25.647  0.00  0.00    +0.017 C 
ATOM      8  C   UNL     1      -4.603   2.921  25.285  0.00  0.00    +0.004 C 
ATOM      9  C   UNL     1      -4.795   2.171  24.871  0.00  0.00    +0.018 C 
ATOM     10  C   UNL     1      -4.128   1.903  24.613  0.00  0.00    +0.079 C 
BRANCH   3   2
ATOM      1  C   UNL     1      -3.239   4.378  26.085  0.00  0.00    +0.000 C 
ATOM      2  C   UNL     1      -3.936   4.018  25.831  0.00  0.00    +0.001 C 
ENDBRANCH   3   2
ENDBRANCH  11  10
BRANCH  11  12
ATOM     12  N   UNL     1      -3.866   0.505  24.476  0.00  0.00    -0.200 NA
ATOM     13  C   UNL     1      -3.392  -0.094  24.164  0.00  0.00    +0.265 C 
ATOM     14  O   UNL     1      -2.845   0.078  23.571  0.00  0.00    -0.268 OA
BRANCH  13  15
ATOM     15  C   UNL     1      -3.466  -0.866  24.445  0.00  0.00    +0.056 A 
ATOM     16  C   UNL     1      -3.862  -1.433  23.995  0.00  0.00    +0.018 A 
ATOM     17  C   UNL     1      -3.936  -2.205  24.276  0.00  0.00    +0.085 A 
ATOM     18 CL   UNL     1      -4.332  -2.772  23.827  0.00  0.00    -0.080 Cl
ATOM     19  C   UNL     1      -3.614  -2.410  25.007  0.00  0.00    +0.151 A 
ATOM     20  F   UNL     1      -3.687  -3.182  25.289  0.00  0.00    -0.203 F 
ATOM     21  C   UNL     1      -3.217  -1.843  25.457  0.00  0.00    +0.031 A 
ATOM     22  C   UNL     1      -3.144  -1.072  25.176  0.00  0.00    +0.007 A 
ENDBRANCH  13  15
ENDBRANCH  11  12
TORSDOF 4
ENDMDL
MODEL 5
REMARK VINA RESULT:      -8.9     16.458     18.325
REMARK  Name = 
REMARK  4 active torsions:
REMARK  status: ('A' for Active; 'I' for Inactive)
REMARK    1  A    between atoms: C_2  and  C_3
REMARK    2  A    between atoms: C_10  and  C_11
REMARK    3  A    between atoms: C_11  and  N_12
REMARK    4  A    between atoms: C_13  and  C_15
REMARK                            x       y       z     vdW  Elec       q    Type
REMARK                         _______ _______ _______ _____ _____    ______ ____
ROOT
ATOM     11  C   UNL     1      13.912   6.789  19.854  0.00  0.00    +0.131 C 
ENDROOT
BRANCH  11  10
ATOM      3  C   UNL     1      16.252   6.426  19.770  0.00  0.00    +0.016 C 
ATOM      4  C   UNL     1      15.854   6.373  19.104  0.00  0.00    +0.072 C 
ATOM      5  N   UNL     1      15.540   6.545  19.847  0.00  0.00    -0.272 NA
ATOM      6  C   UNL     1      16.336   6.541  20.529  0.00  0.00    +0.072 C 
ATOM      7  C   UNL     1      16.564   6.610  21.137  0.00  0.00    +0.017 C 
ATOM      8  C   UNL     1      15.937   6.595  20.496  0.00  0.00    +0.004 C 
ATOM      9  C   UNL     1      15.115   6.762  20.756  0.00  0.00    +0.018 C 
ATOM     10  C   UNL     1      14.688   6.719  20.125  0.00  0.00    +0.079 C 
BRANCH   3   2
ATOM      1  C   UNL     1      17.405   5.984  19.050  0.00  0.00    +0.000 C 
ATOM      2  C   UNL     1      17.068   6.298  19.734  0.00  0.00    +0.001 C 
ENDBRANCH   3   2
ENDBRANCH  11  10
BRANCH  11  12
ATOM     12  N   UNL     1      13.295   6.898  20.391  0.00  0.00    -0.200 NA
ATOM     13  C   UNL     1      12.513   6.858  20.133  0.00  0.00    +0.265 C 
ATOM     14  O   UNL     1      12.347   6.709  19.339  0.00  0.00    -0.268 OA
BRANCH  13  15
ATOM     15  C   UNL     1      11.896   6.967  20.670  0.00  0.00    +0.056 A 
ATOM     16  C   UNL     1      11.552   7.712  20.758  0.00  0.00    +0.018 A 
ATOM     17  C   UNL     1      10.935   7.821  21.295  0.00  0.00    +0.085 A 
ATOM     18 CL   UNL     1      10.592   8.565  21.383  0.00  0.00    -0.080 Cl
ATOM     19  C   UNL     1      10.662   7.185  21.744  0.00  0.00    +0.151 A 
ATOM     20  F   UNL     1      10.046   7.294  22.281  0.00  0.00    -0.203 F 
ATOM     21  C   UNL     1      11.006   6.440  21.656  0.00  0.00    +0.031 A 
ATOM     22  C   UNL     1      11.622   6.331  21.120  0.00  0.00    +0.007 A 
ENDBRANCH  13  15
ENDBRANCH  11  12
TORSDOF 4
ENDMDL
MODEL 6
REMARK VINA RESULT:      -7.9     15.977     17.861
REMARK  Name = 
REMARK  4 active torsions:
REMARK  status: ('A' for Active; 'I' for Inactive)
REMARK    1  A    between atoms: C_2  and  C_3
REMARK    2  A    between atoms: C_10  and  C_11
REMARK    3  A    between atoms: C_11  and  N_12
REMARK    4  A    between atoms: C_13  and  C_15
REMARK                            x       y       z     vdW  Elec       q    Type
REMARK                         _______ _______ _______ _____ _____    ______ ____
ROOT
ATOM     11  C   UNL     1      11.838   8.263  18.531  0.00  0.00    +0.131 C 
ENDROOT
BRANCH  11  10
ATOM      3  C   UNL     1      13.581   8.364  16.929  0.00  0.00    +0.016 C 
ATOM      4  C   UNL     1      12.956   8.813  16.813  0.00  0.00    +0.072 C 
ATOM      5  N   UNL     1      13.075   8.298  17.447  0.00  0.00    -0.272 NA
ATOM      6  C   UNL     1      14.011   7.847  17.307  0.00  0.00    +0.072 C 
ATOM      7  C   UNL     1      14.478   7.434  17.505  0.00  0.00    +0.017 C 
ATOM      8  C   UNL     1      13.691   7.861  17.554  0.00  0.00    +0.004 C 
ATOM      9  C   UNL     1      13.190   7.668  18.248  0.00  0.00    +0.018 C 
ATOM     10  C   UNL     1      12.560   8.092  18.171  0.00  0.00    +0.079 C 
BRANCH   3   2
ATOM      1  C   UNL     1      14.118   8.918  15.726  0.00  0.00    +0.000 C 
ATOM      2  C   UNL     1      14.186   8.405  16.367  0.00  0.00    +0.001 C 
ENDBRANCH   3   2
ENDBRANCH  11  10
BRANCH  11  12
ATOM     12  N   UNL     1      11.769   8.234  19.352  0.00  0.00    -0.200 NA
ATOM     13  C   UNL     1      11.046   8.402  19.711  0.00  0.00    +0.265 C 
ATOM     14  O   UNL     1      10.391   8.599  19.249  0.00  0.00    -0.268 OA
BRANCH  13  15
ATOM     15  C   UNL     1      10.977   8.374  20.533  0.00  0.00    +0.056 A 
ATOM     16  C   UNL     1      10.767   7.668  20.905  0.00  0.00    +0.018 A 
ATOM     17  C   UNL     1      10.698   7.640  21.727  0.00  0.00    +0.085 A 
ATOM     18 CL   UNL     1      10.488   6.935  22.099  0.00  0.00    -0.080 Cl
ATOM     19  C   UNL     1      10.839   8.317  22.176  0.00  0.00    +0.151 A 
ATOM     20  F   UNL     1      10.770   8.290  22.998  0.00  0.00    -0.203 F 
ATOM     21  C   UNL     1      11.049   9.023  21.803  0.00  0.00    +0.031 A 
ATOM     22  C   UNL     1      11.118   9.051  20.983  0.00  0.00    +0.007 A 
ENDBRANCH  13  15
ENDBRANCH  11  12
TORSDOF 4
ENDMDL
