REMARK  Name = 
REMARK  8 active torsions:
REMARK  status: ('A' for Active; 'I' for Inactive)
REMARK    1  A    between atoms: O_2  and  C_3
REMARK    2  A    between atoms: C_6  and  C_9
REMARK    3  A    between atoms: C_11  and  C_12
REMARK    4  A    between atoms: C_12  and  C_13
REMARK    5  A    between atoms: C_13  and  N_17
REMARK    6  A    between atoms: N_17  and  C_18
REMARK    7  A    between atoms: C_18  and  C_19
REMARK    8  A    between atoms: C_24  and  O_25
REMARK                            x       y       z     vdW  Elec       q    Type
REMARK                         _______ _______ _______ _____ _____    ______ ____
ROOT
ATOM     12  C   UNL     1       1.258  -1.721   0.000  0.00  0.00    +0.070 C 
ENDROOT
BRANCH  12  11
ATOM      9  C   UNL     1      -0.872  -1.864   0.000  0.00  0.00    +0.177 A 
ATOM     10  C   UNL     1      -0.180  -1.415   0.000  0.00  0.00    +0.058 A 
ATOM     11  C   UNL     1       0.461  -1.934   0.000  0.00  0.00    +0.102 A 
ATOM     27  N   UNL     1       0.166  -2.704   0.000  0.00  0.00    -0.081 NA
ATOM     28  O   UNL     1      -0.658  -2.661   0.000  0.00  0.00    -0.354 OA
BRANCH   9   6
ATOM      3  C   UNL     1      -3.183  -0.978   0.000  0.00  0.00    +0.139 A 
ATOM      4  C   UNL     1      -2.541  -0.458   0.000  0.00  0.00    +0.037 A 
ATOM      5  C   UNL     1      -1.771  -0.754   0.000  0.00  0.00    +0.006 A 
ATOM      6  C   UNL     1      -1.642  -1.569   0.000  0.00  0.00    +0.037 A 
ATOM      7  C   UNL     1      -2.283  -2.088   0.000  0.00  0.00    +0.006 A 
ATOM      8  C   UNL     1      -3.053  -1.792   0.000  0.00  0.00    +0.037 A 
BRANCH   3   2
ATOM      1  C   UNL     1      -4.594  -1.201   0.000  0.00  0.00    +0.252 C 
ATOM      2  O   UNL     1      -3.953  -0.682   0.000  0.00  0.00    -0.471 OA
ENDBRANCH   3   2
ENDBRANCH   9   6
ENDBRANCH  12  11
BRANCH  12  13
ATOM     13  C   UNL     1       1.841  -2.304   0.000  0.00  0.00    +0.120 C 
ATOM     14  C   UNL     1       2.425  -2.888   0.000  0.00  0.00    +0.161 C 
ATOM     15  O   UNL     1       1.841  -3.471   0.000  0.00  0.00    -0.351 OA
ATOM     16  C   UNL     1       1.258  -2.888   0.000  0.00  0.00    +0.161 C 
BRANCH  13  17
ATOM     17  N   UNL     1       2.425  -1.721   0.000  0.00  0.00    -0.211 NA
BRANCH  17  18
ATOM     18  C   UNL     1       2.211  -0.924   0.000  0.00  0.00    +0.118 C 
BRANCH  18  19
ATOM     19  C   UNL     1       2.795  -0.341   0.000  0.00  0.00    +0.029 A 
ATOM     20  C   UNL     1       2.581   0.456   0.000  0.00  0.00    +0.000 A 
ATOM     21  C   UNL     1       3.164   1.040   0.000  0.00  0.00    -0.000 A 
ATOM     22  C   UNL     1       3.961   0.826   0.000  0.00  0.00    +0.003 A 
ATOM     23  C   UNL     1       4.175   0.029   0.000  0.00  0.00    +0.037 A 
ATOM     24  C   UNL     1       3.591  -0.554   0.000  0.00  0.00    +0.136 A 
BRANCH  24  25
ATOM     25  O   UNL     1       3.805  -1.351   0.000  0.00  0.00    -0.472 OA
ATOM     26  C   UNL     1       3.222  -1.934   0.000  0.00  0.00    +0.252 C 
ENDBRANCH  24  25
ENDBRANCH  18  19
ENDBRANCH  17  18
ENDBRANCH  13  17
ENDBRANCH  12  13
TORSDOF 8
