MODEL 1
REMARK VINA RESULT:     -10.5      0.000      0.000
REMARK  Name = 
REMARK  6 active torsions:
REMARK  status: ('A' for Active; 'I' for Inactive)
REMARK    1  A    between atoms: O_2  and  C_3
REMARK    2  A    between atoms: C_8  and  C_9
REMARK    3  A    between atoms: C_9  and  C_10
REMARK    4  A    between atoms: C_21  and  N_27
REMARK    5  A    between atoms: C_28  and  C_30
REMARK    6  A    between atoms: C_30  and  S_31
REMARK                            x       y       z     vdW  Elec       q    Type
REMARK                         _______ _______ _______ _____ _____    ______ ____
ROOT
ATOM     10  C   UNL     1      -3.842   0.892  24.610  0.00  0.00    +0.231 C 
ATOM     11  O   UNL     1      -3.175   1.368  24.515  0.00  0.00    -0.274 OA
ATOM     12  N   UNL     1      -3.764   0.070  24.624  0.00  0.00    -0.271 N 
ATOM     13  C   UNL     1      -4.379  -0.473  24.714  0.00  0.00    +0.096 C 
ATOM     14  C   UNL     1      -4.053  -1.231  24.696  0.00  0.00    +0.045 C 
ATOM     15  C   UNL     1      -3.238  -1.155  24.595  0.00  0.00    +0.124 C 
ATOM     16  N   UNL     1      -2.724  -1.799  24.551  0.00  0.00    -0.204 NA
ATOM     17  C   UNL     1      -1.905  -1.798  24.451  0.00  0.00    +0.260 C 
ATOM     18  O   UNL     1      -1.546  -2.541  24.429  0.00  0.00    -0.272 OA
ATOM     19  C   UNL     1      -1.398  -1.152  24.371  0.00  0.00    +0.155 C 
ATOM     20  C   UNL     1      -0.581  -1.225  24.274  0.00  0.00    +0.053 C 
ATOM     21  C   UNL     1      -0.264  -0.467  24.214  0.00  0.00    +0.117 C 
ATOM     22  C   UNL     1      -0.883   0.075  24.273  0.00  0.00    +0.115 C 
ATOM     23  N   UNL     1      -1.584  -0.349  24.371  0.00  0.00    -0.270 N 
ATOM     24  C   UNL     1      -2.324   0.008  24.450  0.00  0.00    +0.246 C 
ATOM     25  O   UNL     1      -2.328   0.832  24.427  0.00  0.00    -0.273 OA
ATOM     26  C   UNL     1      -3.060  -0.351  24.550  0.00  0.00    +0.172 C 
ENDROOT
BRANCH  21  27
ATOM     27  N   UNL     1       0.534  -0.282  24.111  0.00  0.00    -0.205 NA
ATOM     28  C   UNL     1       0.839  -0.178  23.353  0.00  0.00    +0.252 C 
ATOM     29  O   UNL     1       0.348  -0.259  22.695  0.00  0.00    -0.272 OA
BRANCH  28  30
ATOM     30  C   UNL     1       1.637   0.008  23.250  0.00  0.00    +0.144 C 
BRANCH  30  31
ATOM     31  S   UNL     1       1.963   0.025  22.493  0.00  0.00    -0.130 S 
ATOM     32  C   UNL     1       2.767   0.179  22.393  0.00  0.00    +0.070 C 
ENDBRANCH  30  31
ENDBRANCH  28  30
ENDBRANCH  21  27
BRANCH  10   9
ATOM      9  C   UNL     1      -4.587   1.238  24.690  0.00  0.00    +0.115 C 
BRANCH   9   8
ATOM      3  C   UNL     1      -5.162   2.359  25.364  0.00  0.00    +0.135 A 
ATOM      4  C   UNL     1      -5.230   3.176  25.462  0.00  0.00    +0.037 A 
ATOM      5  C   UNL     1      -4.791   3.687  24.985  0.00  0.00    +0.003 A 
ATOM      6  C   UNL     1      -4.285   3.381  24.410  0.00  0.00    -0.000 A 
ATOM      7  C   UNL     1      -4.217   2.564  24.312  0.00  0.00    -0.001 A 
ATOM      8  C   UNL     1      -4.655   2.053  24.788  0.00  0.00    +0.021 A 
BRANCH   3   2
ATOM      1  C   UNL     1      -6.210   2.145  26.311  0.00  0.00    +0.252 C 
ATOM      2  O   UNL     1      -5.600   1.848  25.840  0.00  0.00    -0.472 OA
ENDBRANCH   3   2
ENDBRANCH   9   8
ENDBRANCH  10   9
TORSDOF 6
ENDMDL
MODEL 2
REMARK VINA RESULT:     -10.2      2.780      4.776
REMARK  Name = 
REMARK  6 active torsions:
REMARK  status: ('A' for Active; 'I' for Inactive)
REMARK    1  A    between atoms: O_2  and  C_3
REMARK    2  A    between atoms: C_8  and  C_9
REMARK    3  A    between atoms: C_9  and  C_10
REMARK    4  A    between atoms: C_21  and  N_27
REMARK    5  A    between atoms: C_28  and  C_30
REMARK    6  A    between atoms: C_30  and  S_31
REMARK                            x       y       z     vdW  Elec       q    Type
REMARK                         _______ _______ _______ _____ _____    ______ ____
ROOT
ATOM     10  C   UNL     1      -4.290   0.216  24.751  0.00  0.00    +0.231 C 
ATOM     11  O   UNL     1      -3.547   0.496  24.527  0.00  0.00    -0.274 OA
ATOM     12  N   UNL     1      -4.865   0.743  25.021  0.00  0.00    -0.271 N 
ATOM     13  C   UNL     1      -5.629   0.544  25.263  0.00  0.00    +0.096 C 
ATOM     14  C   UNL     1      -6.013   1.238  25.487  0.00  0.00    +0.045 C 
ATOM     15  C   UNL     1      -5.488   1.865  25.384  0.00  0.00    +0.124 C 
ATOM     16  N   UNL     1      -5.679   2.651  25.552  0.00  0.00    -0.204 NA
ATOM     17  C   UNL     1      -5.207   3.323  25.474  0.00  0.00    +0.260 C 
ATOM     18  O   UNL     1      -5.562   4.036  25.690  0.00  0.00    -0.272 OA
ATOM     19  C   UNL     1      -4.428   3.376  25.208  0.00  0.00    +0.155 C 
ATOM     20  C   UNL     1      -4.014   4.088  25.154  0.00  0.00    +0.053 C 
ATOM     21  C   UNL     1      -3.259   3.922  24.868  0.00  0.00    +0.117 C 
ATOM     22  C   UNL     1      -3.206   3.108  24.744  0.00  0.00    +0.115 C 
ATOM     23  N   UNL     1      -3.929   2.770  24.954  0.00  0.00    -0.270 N 
ATOM     24  C   UNL     1      -4.085   1.962  24.905  0.00  0.00    +0.246 C 
ATOM     25  O   UNL     1      -3.464   1.494  24.627  0.00  0.00    -0.273 OA
ATOM     26  C   UNL     1      -4.779   1.559  25.096  0.00  0.00    +0.172 C 
ENDROOT
BRANCH  21  27
ATOM     27  N   UNL     1      -2.661   4.473  24.730  0.00  0.00    -0.205 NA
ATOM     28  C   UNL     1      -2.023   4.529  25.249  0.00  0.00    +0.252 C 
ATOM     29  O   UNL     1      -1.982   4.034  25.908  0.00  0.00    -0.272 OA
BRANCH  28  30
ATOM     30  C   UNL     1      -1.424   5.081  25.110  0.00  0.00    +0.144 C 
BRANCH  30  31
ATOM     31  S   UNL     1      -0.657   4.825  24.951  0.00  0.00    -0.130 S 
ATOM     32  C   UNL     1      -0.156   5.286  24.485  0.00  0.00    +0.070 C 
ENDBRANCH  30  31
ENDBRANCH  28  30
ENDBRANCH  21  27
BRANCH  10   9
ATOM      9  C   UNL     1      -4.457  -0.591  24.706  0.00  0.00    +0.115 C 
BRANCH   9   8
ATOM      3  C   UNL     1      -3.818  -1.820  24.358  0.00  0.00    +0.135 A 
ATOM      4  C   UNL     1      -3.219  -2.374  24.481  0.00  0.00    +0.037 A 
ATOM      5  C   UNL     1      -2.659  -2.250  25.075  0.00  0.00    +0.003 A 
ATOM      6  C   UNL     1      -2.699  -1.574  25.545  0.00  0.00    -0.000 A 
ATOM      7  C   UNL     1      -3.299  -1.021  25.422  0.00  0.00    -0.001 A 
ATOM      8  C   UNL     1      -3.858  -1.143  24.829  0.00  0.00    +0.021 A 
BRANCH   3   2
ATOM      1  C   UNL     1      -4.417  -2.672  23.380  0.00  0.00    +0.252 C 
ATOM      2  O   UNL     1      -4.378  -1.943  23.765  0.00  0.00    -0.472 OA
ENDBRANCH   3   2
ENDBRANCH   9   8
ENDBRANCH  10   9
TORSDOF 6
ENDMDL
MODEL 3
REMARK VINA RESULT:      -9.7      2.736      4.614
REMARK  Name = 
REMARK  6 active torsions:
REMARK  status: ('A' for Active; 'I' for Inactive)
REMARK    1  A    between atoms: O_2  and  C_3
REMARK    2  A    between atoms: C_8  and  C_9
REMARK    3  A    between atoms: C_9  and  C_10
REMARK    4  A    between atoms: C_21  and  N_27
REMARK    5  A    between atoms: C_28  and  C_30
REMARK    6  A    between atoms: C_30  and  S_31
REMARK                            x       y       z     vdW  Elec       q    Type
REMARK                         _______ _______ _______ _____ _____    ______ ____
ROOT
ATOM     10  C   UNL     1      -2.810   3.344  25.386  0.00  0.00    +0.231 C 
ATOM     11  O   UNL     1      -2.398   2.685  25.109  0.00  0.00    -0.274 OA
ATOM     12  N   UNL     1      -3.632   3.315  25.459  0.00  0.00    -0.271 N 
ATOM     13  C   UNL     1      -4.116   3.928  25.727  0.00  0.00    +0.096 C 
ATOM     14  C   UNL     1      -4.896   3.660  25.711  0.00  0.00    +0.045 C 
ATOM     15  C   UNL     1      -4.894   2.884  25.434  0.00  0.00    +0.124 C 
ATOM     16  N   UNL     1      -5.578   2.432  25.342  0.00  0.00    -0.204 NA
ATOM     17  C   UNL     1      -5.650   1.655  25.072  0.00  0.00    +0.260 C 
ATOM     18  O   UNL     1      -6.419   1.356  25.043  0.00  0.00    -0.272 OA
ATOM     19  C   UNL     1      -5.055   1.139  24.827  0.00  0.00    +0.155 C 
ATOM     20  C   UNL     1      -5.200   0.369  24.567  0.00  0.00    +0.053 C 
ATOM     21  C   UNL     1      -4.476   0.026  24.372  0.00  0.00    +0.117 C 
ATOM     22  C   UNL     1      -3.884   0.583  24.510  0.00  0.00    +0.115 C 
ATOM     23  N   UNL     1      -4.242   1.272  24.792  0.00  0.00    -0.270 N 
ATOM     24  C   UNL     1      -3.822   1.953  24.993  0.00  0.00    +0.246 C 
ATOM     25  O   UNL     1      -3.004   1.912  24.895  0.00  0.00    -0.273 OA
ATOM     26  C   UNL     1      -4.113   2.670  25.278  0.00  0.00    +0.172 C 
ENDROOT
BRANCH  21  27
ATOM     27  N   UNL     1      -4.364  -0.739  24.087  0.00  0.00    -0.205 NA
ATOM     28  C   UNL     1      -4.066  -1.325  24.585  0.00  0.00    +0.252 C 
ATOM     29  O   UNL     1      -3.881  -1.146  25.369  0.00  0.00    -0.272 OA
BRANCH  28  30
ATOM     30  C   UNL     1      -3.954  -2.092  24.300  0.00  0.00    +0.144 C 
BRANCH  30  31
ATOM     31  S   UNL     1      -3.448  -2.609  24.696  0.00  0.00    -0.130 S 
ATOM     32  C   UNL     1      -3.279  -3.349  24.373  0.00  0.00    +0.070 C 
ENDBRANCH  30  31
ENDBRANCH  28  30
ENDBRANCH  21  27
BRANCH  10   9
ATOM      9  C   UNL     1      -2.401   4.031  25.590  0.00  0.00    +0.115 C 
BRANCH   9   8
ATOM      3  C   UNL     1      -1.312   4.810  25.092  0.00  0.00    +0.135 A 
ATOM      4  C   UNL     1      -0.510   4.883  24.909  0.00  0.00    +0.037 A 
ATOM      5  C   UNL     1       0.002   4.250  25.041  0.00  0.00    +0.003 A 
ATOM      6  C   UNL     1      -0.286   3.544  25.356  0.00  0.00    -0.000 A 
ATOM      7  C   UNL     1      -1.088   3.472  25.539  0.00  0.00    -0.001 A 
ATOM      8  C   UNL     1      -1.601   4.104  25.407  0.00  0.00    +0.021 A 
BRANCH   3   2
ATOM      1  C   UNL     1      -1.523   6.177  24.737  0.00  0.00    +0.252 C 
ATOM      2  O   UNL     1      -1.825   5.442  24.960  0.00  0.00    -0.472 OA
ENDBRANCH   3   2
ENDBRANCH   9   8
ENDBRANCH  10   9
TORSDOF 6
ENDMDL
MODEL 4
REMARK VINA RESULT:      -8.8      2.453      3.974
REMARK  Name = 
REMARK  6 active torsions:
REMARK  status: ('A' for Active; 'I' for Inactive)
REMARK    1  A    between atoms: O_2  and  C_3
REMARK    2  A    between atoms: C_8  and  C_9
REMARK    3  A    between atoms: C_9  and  C_10
REMARK    4  A    between atoms: C_21  and  N_27
REMARK    5  A    between atoms: C_28  and  C_30
REMARK    6  A    between atoms: C_30  and  S_31
REMARK                            x       y       z     vdW  Elec       q    Type
REMARK                         _______ _______ _______ _____ _____    ______ ____
ROOT
ATOM     10  C   UNL     1      -0.935   2.616  25.298  0.00  0.00    +0.231 C 
ATOM     11  O   UNL     1      -1.560   2.182  25.617  0.00  0.00    -0.274 OA
ATOM     12  N   UNL     1      -0.373   2.242  24.823  0.00  0.00    -0.271 N 
ATOM     13  C   UNL     1       0.278   2.603  24.467  0.00  0.00    +0.096 C 
ATOM     14  C   UNL     1       0.690   2.026  24.045  0.00  0.00    +0.045 C 
ATOM     15  C   UNL     1       0.293   1.310  24.140  0.00  0.00    +0.124 C 
ATOM     16  N   UNL     1       0.543   0.602  23.796  0.00  0.00    -0.204 NA
ATOM     17  C   UNL     1       0.198  -0.145  23.847  0.00  0.00    +0.260 C 
ATOM     18  O   UNL     1       0.586  -0.747  23.436  0.00  0.00    -0.272 OA
ATOM     19  C   UNL     1      -0.482  -0.371  24.256  0.00  0.00    +0.155 C 
ATOM     20  C   UNL     1      -0.772  -1.143  24.264  0.00  0.00    +0.053 C 
ATOM     21  C   UNL     1      -1.454  -1.154  24.727  0.00  0.00    +0.117 C 
ATOM     22  C   UNL     1      -1.586  -0.389  25.005  0.00  0.00    +0.115 C 
ATOM     23  N   UNL     1      -0.985   0.096  24.714  0.00  0.00    -0.270 N 
ATOM     24  C   UNL     1      -0.933   0.903  24.876  0.00  0.00    +0.246 C 
ATOM     25  O   UNL     1      -1.528   1.210  25.357  0.00  0.00    -0.273 OA
ATOM     26  C   UNL     1      -0.364   1.443  24.620  0.00  0.00    +0.172 C 
ENDROOT
BRANCH  21  27
ATOM     27  N   UNL     1      -1.923  -1.815  24.885  0.00  0.00    -0.205 NA
ATOM     28  C   UNL     1      -2.657  -1.896  24.518  0.00  0.00    +0.252 C 
ATOM     29  O   UNL     1      -2.923  -1.318  23.994  0.00  0.00    -0.272 OA
BRANCH  28  30
ATOM     30  C   UNL     1      -3.126  -2.557  24.676  0.00  0.00    +0.144 C 
BRANCH  30  31
ATOM     31  S   UNL     1      -3.850  -2.650  24.293  0.00  0.00    -0.130 S 
ATOM     32  C   UNL     1      -4.132  -3.406  24.120  0.00  0.00    +0.070 C 
ENDBRANCH  30  31
ENDBRANCH  28  30
ENDBRANCH  21  27
BRANCH  10   9
ATOM      9  C   UNL     1      -0.873   3.424  25.454  0.00  0.00    +0.115 C 
BRANCH   9   8
ATOM      3  C   UNL     1      -1.594   4.652  25.341  0.00  0.00    +0.135 A 
ATOM      4  C   UNL     1      -2.273   5.098  25.488  0.00  0.00    +0.037 A 
ATOM      5  C   UNL     1      -2.908   4.761  25.894  0.00  0.00    +0.003 A 
ATOM      6  C   UNL     1      -2.864   3.979  26.153  0.00  0.00    -0.000 A 
ATOM      7  C   UNL     1      -2.185   3.533  26.006  0.00  0.00    -0.001 A 
ATOM      8  C   UNL     1      -1.551   3.869  25.600  0.00  0.00    +0.021 A 
BRANCH   3   2
ATOM      1  C   UNL     1      -0.985   5.783  24.716  0.00  0.00    +0.252 C 
ATOM      2  O   UNL     1      -0.960   4.988  24.936  0.00  0.00    -0.472 OA
ENDBRANCH   3   2
ENDBRANCH   9   8
ENDBRANCH  10   9
TORSDOF 6
ENDMDL
MODEL 5
REMARK VINA RESULT:      -8.5      1.772      3.502
REMARK  Name = 
REMARK  6 active torsions:
REMARK  status: ('A' for Active; 'I' for Inactive)
REMARK    1  A    between atoms: O_2  and  C_3
REMARK    2  A    between atoms: C_8  and  C_9
REMARK    3  A    between atoms: C_9  and  C_10
REMARK    4  A    between atoms: C_21  and  N_27
REMARK    5  A    between atoms: C_28  and  C_30
REMARK    6  A    between atoms: C_30  and  S_31
REMARK                            x       y       z     vdW  Elec       q    Type
REMARK                         _______ _______ _______ _____ _____    ______ ____
ROOT
ATOM     10  C   UNL     1      -2.833  -0.172  24.573  0.00  0.00    +0.231 C 
ATOM     11  O   UNL     1      -2.118  -0.575  24.496  0.00  0.00    -0.274 OA
ATOM     12  N   UNL     1      -2.847   0.653  24.551  0.00  0.00    -0.271 N 
ATOM     13  C   UNL     1      -3.518   1.129  24.621  0.00  0.00    +0.096 C 
ATOM     14  C   UNL     1      -3.278   1.916  24.569  0.00  0.00    +0.045 C 
ATOM     15  C   UNL     1      -2.460   1.927  24.467  0.00  0.00    +0.124 C 
ATOM     16  N   UNL     1      -2.020   2.622  24.393  0.00  0.00    -0.204 NA
ATOM     17  C   UNL     1      -1.206   2.707  24.289  0.00  0.00    +0.260 C 
ATOM     18  O   UNL     1      -0.931   3.483  24.233  0.00  0.00    -0.272 OA
ATOM     19  C   UNL     1      -0.630   2.118  24.235  0.00  0.00    +0.155 C 
ATOM     20  C   UNL     1       0.173   2.277  24.131  0.00  0.00    +0.053 C 
ATOM     21  C   UNL     1       0.573   1.556  24.102  0.00  0.00    +0.117 C 
ATOM     22  C   UNL     1       0.018   0.952  24.188  0.00  0.00    +0.115 C 
ATOM     23  N   UNL     1      -0.727   1.300  24.270  0.00  0.00    -0.270 N 
ATOM     24  C   UNL     1      -1.422   0.867  24.369  0.00  0.00    +0.246 C 
ATOM     25  O   UNL     1      -1.335   0.047  24.381  0.00  0.00    -0.273 OA
ATOM     26  C   UNL     1      -2.193   1.147  24.456  0.00  0.00    +0.172 C 
ENDROOT
BRANCH  21  27
ATOM     27  N   UNL     1       1.386   1.456  24.004  0.00  0.00    -0.205 NA
ATOM     28  C   UNL     1       1.672   0.977  23.397  0.00  0.00    +0.252 C 
ATOM     29  O   UNL     1       1.146   0.597  22.888  0.00  0.00    -0.272 OA
BRANCH  28  30
ATOM     30  C   UNL     1       2.486   0.877  23.300  0.00  0.00    +0.144 C 
BRANCH  30  31
ATOM     31  S   UNL     1       2.775   0.450  22.656  0.00  0.00    -0.130 S 
ATOM     32  C   UNL     1       3.583   0.449  22.490  0.00  0.00    +0.070 C 
ENDBRANCH  30  31
ENDBRANCH  28  30
ENDBRANCH  21  27
BRANCH  10   9
ATOM      9  C   UNL     1      -3.535  -0.594  24.672  0.00  0.00    +0.115 C 
BRANCH   9   8
ATOM      3  C   UNL     1      -3.847  -1.952  24.357  0.00  0.00    +0.135 A 
ATOM      4  C   UNL     1      -3.823  -2.754  24.549  0.00  0.00    +0.037 A 
ATOM      5  C   UNL     1      -3.463  -2.999  25.251  0.00  0.00    +0.003 A 
ATOM      6  C   UNL     1      -3.127  -2.443  25.758  0.00  0.00    -0.000 A 
ATOM      7  C   UNL     1      -3.151  -1.640  25.565  0.00  0.00    -0.001 A 
ATOM      8  C   UNL     1      -3.511  -1.395  24.865  0.00  0.00    +0.021 A 
BRANCH   3   2
ATOM      1  C   UNL     1      -4.585  -2.258  23.172  0.00  0.00    +0.252 C 
ATOM      2  O   UNL     1      -4.207  -1.707  23.656  0.00  0.00    -0.472 OA
ENDBRANCH   3   2
ENDBRANCH   9   8
ENDBRANCH  10   9
TORSDOF 6
ENDMDL
MODEL 6
REMARK VINA RESULT:      -8.5     15.961     19.058
REMARK  Name = 
REMARK  6 active torsions:
REMARK  status: ('A' for Active; 'I' for Inactive)
REMARK    1  A    between atoms: O_2  and  C_3
REMARK    2  A    between atoms: C_8  and  C_9
REMARK    3  A    between atoms: C_9  and  C_10
REMARK    4  A    between atoms: C_21  and  N_27
REMARK    5  A    between atoms: C_28  and  C_30
REMARK    6  A    between atoms: C_30  and  S_31
REMARK                            x       y       z     vdW  Elec       q    Type
REMARK                         _______ _______ _______ _____ _____    ______ ____
ROOT
ATOM     10  C   UNL     1      14.781   7.072  18.889  0.00  0.00    +0.231 C 
ATOM     11  O   UNL     1      14.538   7.025  19.676  0.00  0.00    -0.274 OA
ATOM     12  N   UNL     1      14.264   7.359  18.314  0.00  0.00    -0.271 N 
ATOM     13  C   UNL     1      14.429   7.438  17.509  0.00  0.00    +0.096 C 
ATOM     14  C   UNL     1      13.758   7.746  17.141  0.00  0.00    +0.045 C 
ATOM     15  C   UNL     1      13.179   7.857  17.717  0.00  0.00    +0.124 C 
ATOM     16  N   UNL     1      12.428   8.158  17.555  0.00  0.00    -0.204 NA
ATOM     17  C   UNL     1      11.804   8.295  18.077  0.00  0.00    +0.260 C 
ATOM     18  O   UNL     1      11.116   8.603  17.741  0.00  0.00    -0.272 OA
ATOM     19  C   UNL     1      11.778   8.164  18.891  0.00  0.00    +0.155 C 
ATOM     20  C   UNL     1      11.115   8.325  19.356  0.00  0.00    +0.053 C 
ATOM     21  C   UNL     1      11.296   8.125  20.135  0.00  0.00    +0.117 C 
ATOM     22  C   UNL     1      12.070   7.841  20.153  0.00  0.00    +0.115 C 
ATOM     23  N   UNL     1      12.368   7.865  19.383  0.00  0.00    -0.270 N 
ATOM     24  C   UNL     1      13.131   7.622  19.184  0.00  0.00    +0.246 C 
ATOM     25  O   UNL     1      13.594   7.346  19.808  0.00  0.00    -0.273 OA
ATOM     26  C   UNL     1      13.491   7.618  18.442  0.00  0.00    +0.172 C 
ENDROOT
BRANCH  21  27
ATOM     27  N   UNL     1      10.791   8.197  20.784  0.00  0.00    -0.205 NA
ATOM     28  C   UNL     1      11.002   8.678  21.419  0.00  0.00    +0.252 C 
ATOM     29  O   UNL     1      11.718   9.088  21.407  0.00  0.00    -0.272 OA
BRANCH  28  30
ATOM     30  C   UNL     1      10.497   8.750  22.069  0.00  0.00    +0.144 C 
BRANCH  30  31
ATOM     31  S   UNL     1      10.790   9.018  22.791  0.00  0.00    -0.130 S 
ATOM     32  C   UNL     1      10.304   9.022  23.458  0.00  0.00    +0.070 C 
ENDBRANCH  30  31
ENDBRANCH  28  30
ENDBRANCH  21  27
BRANCH  10   9
ATOM      9  C   UNL     1      15.542   6.832  18.677  0.00  0.00    +0.115 C 
BRANCH   9   8
ATOM      3  C   UNL     1      16.766   6.311  19.198  0.00  0.00    +0.135 A 
ATOM      4  C   UNL     1      17.377   6.342  19.751  0.00  0.00    +0.037 A 
ATOM      5  C   UNL     1      17.376   6.924  20.337  0.00  0.00    +0.003 A 
ATOM      6  C   UNL     1      16.763   7.475  20.368  0.00  0.00    -0.000 A 
ATOM      7  C   UNL     1      16.151   7.444  19.815  0.00  0.00    -0.001 A 
ATOM      8  C   UNL     1      16.153   6.863  19.230  0.00  0.00    +0.021 A 
BRANCH   3   2
ATOM      1  C   UNL     1      17.401   5.205  18.555  0.00  0.00    +0.252 C 
ATOM      2  O   UNL     1      16.767   5.730  18.613  0.00  0.00    -0.472 OA
ENDBRANCH   3   2
ENDBRANCH   9   8
ENDBRANCH  10   9
TORSDOF 6
ENDMDL
MODEL 7
REMARK VINA RESULT:      -8.2      1.942      2.801
REMARK  Name = 
REMARK  6 active torsions:
REMARK  status: ('A' for Active; 'I' for Inactive)
REMARK    1  A    between atoms: O_2  and  C_3
REMARK    2  A    between atoms: C_8  and  C_9
REMARK    3  A    between atoms: C_9  and  C_10
REMARK    4  A    between atoms: C_21  and  N_27
REMARK    5  A    between atoms: C_28  and  C_30
REMARK    6  A    between atoms: C_30  and  S_31
REMARK                            x       y       z     vdW  Elec       q    Type
REMARK                         _______ _______ _______ _____ _____    ______ ____
ROOT
ATOM     10  C   UNL     1      -3.370   2.784  24.878  0.00  0.00    +0.231 C 
ATOM     11  O   UNL     1      -3.298   2.142  24.365  0.00  0.00    -0.274 OA
ATOM     12  N   UNL     1      -2.715   3.046  25.306  0.00  0.00    -0.271 N 
ATOM     13  C   UNL     1      -2.704   3.678  25.837  0.00  0.00    +0.096 C 
ATOM     14  C   UNL     1      -1.938   3.745  26.137  0.00  0.00    +0.045 C 
ATOM     15  C   UNL     1      -1.477   3.155  25.792  0.00  0.00    +0.124 C 
ATOM     16  N   UNL     1      -0.675   3.048  25.958  0.00  0.00    -0.204 NA
ATOM     17  C   UNL     1      -0.157   2.484  25.653  0.00  0.00    +0.260 C 
ATOM     18  O   UNL     1       0.619   2.523  25.932  0.00  0.00    -0.272 OA
ATOM     19  C   UNL     1      -0.311   1.887  25.105  0.00  0.00    +0.155 C 
ATOM     20  C   UNL     1       0.260   1.354  24.841  0.00  0.00    +0.053 C 
ATOM     21  C   UNL     1      -0.097   0.843  24.302  0.00  0.00    +0.117 C 
ATOM     22  C   UNL     1      -0.890   1.061  24.231  0.00  0.00    +0.115 C 
ATOM     23  N   UNL     1      -1.022   1.707  24.728  0.00  0.00    -0.270 N 
ATOM     24  C   UNL     1      -1.754   2.079  24.805  0.00  0.00    +0.246 C 
ATOM     25  O   UNL     1      -2.365   1.765  24.348  0.00  0.00    -0.273 OA
ATOM     26  C   UNL     1      -1.956   2.723  25.278  0.00  0.00    +0.172 C 
ENDROOT
BRANCH  21  27
ATOM     27  N   UNL     1       0.272   0.224  23.902  0.00  0.00    -0.205 NA
ATOM     28  C   UNL     1       0.814   0.385  23.301  0.00  0.00    +0.252 C 
ATOM     29  O   UNL     1       0.986   1.166  23.099  0.00  0.00    -0.272 OA
BRANCH  28  30
ATOM     30  C   UNL     1       1.183  -0.236  22.901  0.00  0.00    +0.144 C 
BRANCH  30  31
ATOM     31  S   UNL     1       1.835  -0.086  22.419  0.00  0.00    -0.130 S 
ATOM     32  C   UNL     1       1.937  -0.511  21.719  0.00  0.00    +0.070 C 
ENDBRANCH  30  31
ENDBRANCH  28  30
ENDBRANCH  21  27
BRANCH  10   9
ATOM      9  C   UNL     1      -4.098   3.164  24.963  0.00  0.00    +0.115 C 
BRANCH   9   8
ATOM      3  C   UNL     1      -5.473   3.073  25.339  0.00  0.00    +0.135 A 
ATOM      4  C   UNL     1      -6.164   2.629  25.421  0.00  0.00    +0.037 A 
ATOM      5  C   UNL     1      -6.169   1.831  25.210  0.00  0.00    +0.003 A 
ATOM      6  C   UNL     1      -5.484   1.479  24.916  0.00  0.00    -0.000 A 
ATOM      7  C   UNL     1      -4.793   1.923  24.834  0.00  0.00    -0.001 A 
ATOM      8  C   UNL     1      -4.787   2.720  25.045  0.00  0.00    +0.021 A 
BRANCH   3   2
ATOM      1  C   UNL     1      -6.179   4.266  25.686  0.00  0.00    +0.252 C 
ATOM      2  O   UNL     1      -5.468   3.870  25.551  0.00  0.00    -0.472 OA
ENDBRANCH   3   2
ENDBRANCH   9   8
ENDBRANCH  10   9
TORSDOF 6
ENDMDL
MODEL 8
REMARK VINA RESULT:      -8.2      2.564      4.369
REMARK  Name = 
REMARK  6 active torsions:
REMARK  status: ('A' for Active; 'I' for Inactive)
REMARK    1  A    between atoms: O_2  and  C_3
REMARK    2  A    between atoms: C_8  and  C_9
REMARK    3  A    between atoms: C_9  and  C_10
REMARK    4  A    between atoms: C_21  and  N_27
REMARK    5  A    between atoms: C_28  and  C_30
REMARK    6  A    between atoms: C_30  and  S_31
REMARK                            x       y       z     vdW  Elec       q    Type
REMARK                         _______ _______ _______ _____ _____    ______ ____
ROOT
ATOM     10  C   UNL     1      -1.938  -0.716  24.827  0.00  0.00    +0.231 C 
ATOM     11  O   UNL     1      -2.323  -0.088  25.198  0.00  0.00    -0.274 OA
ATOM     12  N   UNL     1      -1.190  -0.605  24.497  0.00  0.00    -0.271 N 
ATOM     13  C   UNL     1      -0.741  -1.179  24.110  0.00  0.00    +0.096 C 
ATOM     14  C   UNL     1      -0.034  -0.828  23.870  0.00  0.00    +0.045 C 
ATOM     15  C   UNL     1      -0.046  -0.039  24.108  0.00  0.00    +0.124 C 
ATOM     16  N   UNL     1       0.571   0.489  23.964  0.00  0.00    -0.204 NA
ATOM     17  C   UNL     1       0.626   1.286  24.171  0.00  0.00    +0.260 C 
ATOM     18  O   UNL     1       1.323   1.667  23.946  0.00  0.00    -0.272 OA
ATOM     19  C   UNL     1       0.077   1.751  24.575  0.00  0.00    +0.155 C 
ATOM     20  C   UNL     1       0.199   2.548  24.750  0.00  0.00    +0.053 C 
ATOM     21  C   UNL     1      -0.465   2.824  25.153  0.00  0.00    +0.117 C 
ATOM     22  C   UNL     1      -0.997   2.198  25.228  0.00  0.00    +0.115 C 
ATOM     23  N   UNL     1      -0.662   1.534  24.870  0.00  0.00    -0.270 N 
ATOM     24  C   UNL     1      -1.035   0.799  24.834  0.00  0.00    +0.246 C 
ATOM     25  O   UNL     1      -1.781   0.759  25.185  0.00  0.00    -0.273 OA
ATOM     26  C   UNL     1      -0.761   0.099  24.495  0.00  0.00    +0.172 C 
ENDROOT
BRANCH  21  27
ATOM     27  N   UNL     1      -0.578   3.591  25.434  0.00  0.00    -0.205 NA
ATOM     28  C   UNL     1      -1.033   4.126  25.001  0.00  0.00    +0.252 C 
ATOM     29  O   UNL     1      -1.376   3.894  24.288  0.00  0.00    -0.272 OA
BRANCH  28  30
ATOM     30  C   UNL     1      -1.146   4.894  25.282  0.00  0.00    +0.144 C 
BRANCH  30  31
ATOM     31  S   UNL     1      -1.814   5.322  25.057  0.00  0.00    -0.130 S 
ATOM     32  C   UNL     1      -1.800   6.146  25.069  0.00  0.00    +0.070 C 
ENDBRANCH  30  31
ENDBRANCH  28  30
ENDBRANCH  21  27
BRANCH  10   9
ATOM      9  C   UNL     1      -2.302  -1.456  24.786  0.00  0.00    +0.115 C 
BRANCH   9   8
ATOM      3  C   UNL     1      -3.423  -2.264  24.424  0.00  0.00    +0.135 A 
ATOM      4  C   UNL     1      -4.199  -2.328  24.149  0.00  0.00    +0.037 A 
ATOM      5  C   UNL     1      -4.628  -1.648  23.962  0.00  0.00    +0.003 A 
ATOM      6  C   UNL     1      -4.281  -0.905  24.050  0.00  0.00    -0.000 A 
ATOM      7  C   UNL     1      -3.506  -0.841  24.325  0.00  0.00    -0.001 A 
ATOM      8  C   UNL     1      -3.077  -1.520  24.512  0.00  0.00    +0.021 A 
BRANCH   3   2
ATOM      1  C   UNL     1      -3.354  -3.684  24.564  0.00  0.00    +0.252 C 
ATOM      2  O   UNL     1      -2.994  -2.943  24.610  0.00  0.00    -0.472 OA
ENDBRANCH   3   2
ENDBRANCH   9   8
ENDBRANCH  10   9
TORSDOF 6
ENDMDL
MODEL 9
REMARK VINA RESULT:      -8.1     16.435     18.777
REMARK  Name = 
REMARK  6 active torsions:
REMARK  status: ('A' for Active; 'I' for Inactive)
REMARK    1  A    between atoms: O_2  and  C_3
REMARK    2  A    between atoms: C_8  and  C_9
REMARK    3  A    between atoms: C_9  and  C_10
REMARK    4  A    between atoms: C_21  and  N_27
REMARK    5  A    between atoms: C_28  and  C_30
REMARK    6  A    between atoms: C_30  and  S_31
REMARK                            x       y       z     vdW  Elec       q    Type
REMARK                         _______ _______ _______ _____ _____    ______ ____
ROOT
ATOM     10  C   UNL     1      14.530   6.923  20.288  0.00  0.00    +0.231 C 
ATOM     11  O   UNL     1      14.604   7.242  19.531  0.00  0.00    -0.274 OA
ATOM     12  N   UNL     1      13.811   6.974  20.690  0.00  0.00    -0.271 N 
ATOM     13  C   UNL     1      13.656   6.681  21.446  0.00  0.00    +0.096 C 
ATOM     14  C   UNL     1      12.871   6.854  21.629  0.00  0.00    +0.045 C 
ATOM     15  C   UNL     1      12.541   7.253  20.988  0.00  0.00    +0.124 C 
ATOM     16  N   UNL     1      11.759   7.517  20.969  0.00  0.00    -0.204 NA
ATOM     17  C   UNL     1      11.366   7.919  20.366  0.00  0.00    +0.260 C 
ATOM     18  O   UNL     1      10.576   8.108  20.517  0.00  0.00    -0.272 OA
ATOM     19  C   UNL     1      11.657   8.158  19.632  0.00  0.00    +0.155 C 
ATOM     20  C   UNL     1      11.204   8.560  19.072  0.00  0.00    +0.053 C 
ATOM     21  C   UNL     1      11.680   8.704  18.414  0.00  0.00    +0.117 C 
ATOM     22  C   UNL     1      12.428   8.391  18.567  0.00  0.00    +0.115 C 
ATOM     23  N   UNL     1      12.414   8.053  19.320  0.00  0.00    -0.270 N 
ATOM     24  C   UNL     1      13.066   7.684  19.665  0.00  0.00    +0.246 C 
ATOM     25  O   UNL     1      13.752   7.668  19.207  0.00  0.00    -0.273 OA
ATOM     26  C   UNL     1      13.122   7.328  20.407  0.00  0.00    +0.172 C 
ENDROOT
BRANCH  21  27
ATOM     27  N   UNL     1      11.450   9.093  17.725  0.00  0.00    -0.205 NA
ATOM     28  C   UNL     1      11.082   8.673  17.118  0.00  0.00    +0.252 C 
ATOM     29  O   UNL     1      10.943   7.864  17.200  0.00  0.00    -0.272 OA
BRANCH  28  30
ATOM     30  C   UNL     1      10.851   9.063  16.427  0.00  0.00    +0.144 C 
BRANCH  30  31
ATOM     31  S   UNL     1      10.944   8.694  15.695  0.00  0.00    -0.130 S 
ATOM     32  C   UNL     1      11.315   9.094  15.076  0.00  0.00    +0.070 C 
ENDBRANCH  30  31
ENDBRANCH  28  30
ENDBRANCH  21  27
BRANCH  10   9
ATOM      9  C   UNL     1      15.176   6.550  20.643  0.00  0.00    +0.115 C 
BRANCH   9   8
ATOM      3  C   UNL     1      16.604   6.535  20.602  0.00  0.00    +0.135 A 
ATOM      4  C   UNL     1      17.306   6.434  20.180  0.00  0.00    +0.037 A 
ATOM      5  C   UNL     1      17.281   6.247  19.376  0.00  0.00    +0.003 A 
ATOM      6  C   UNL     1      16.554   6.162  18.996  0.00  0.00    -0.000 A 
ATOM      7  C   UNL     1      15.852   6.263  19.418  0.00  0.00    -0.001 A 
ATOM      8  C   UNL     1      15.877   6.449  20.221  0.00  0.00    +0.021 A 
BRANCH   3   2
ATOM      1  C   UNL     1      17.346   6.694  21.813  0.00  0.00    +0.252 C 
ATOM      2  O   UNL     1      16.629   6.721  21.405  0.00  0.00    -0.472 OA
ENDBRANCH   3   2
ENDBRANCH   9   8
ENDBRANCH  10   9
TORSDOF 6
ENDMDL
MODEL 10
REMARK VINA RESULT:      -7.9      2.543      5.642
REMARK  Name = 
REMARK  6 active torsions:
REMARK  status: ('A' for Active; 'I' for Inactive)
REMARK    1  A    between atoms: O_2  and  C_3
REMARK    2  A    between atoms: C_8  and  C_9
REMARK    3  A    between atoms: C_9  and  C_10
REMARK    4  A    between atoms: C_21  and  N_27
REMARK    5  A    between atoms: C_28  and  C_30
REMARK    6  A    between atoms: C_30  and  S_31
REMARK                            x       y       z     vdW  Elec       q    Type
REMARK                         _______ _______ _______ _____ _____    ______ ____
ROOT
ATOM     10  C   UNL     1      -0.937   0.192  24.700  0.00  0.00    +0.231 C 
ATOM     11  O   UNL     1      -1.699   0.242  25.010  0.00  0.00    -0.274 OA
ATOM     12  N   UNL     1      -0.511   0.880  24.537  0.00  0.00    -0.271 N 
ATOM     13  C   UNL     1       0.253   0.915  24.227  0.00  0.00    +0.096 C 
ATOM     14  C   UNL     1       0.461   1.710  24.154  0.00  0.00    +0.045 C 
ATOM     15  C   UNL     1      -0.174   2.165  24.418  0.00  0.00    +0.124 C 
ATOM     16  N   UNL     1      -0.169   2.990  24.428  0.00  0.00    -0.204 NA
ATOM     17  C   UNL     1      -0.764   3.506  24.677  0.00  0.00    +0.260 C 
ATOM     18  O   UNL     1      -0.588   4.310  24.617  0.00  0.00    -0.272 OA
ATOM     19  C   UNL     1      -1.510   3.323  24.977  0.00  0.00    +0.155 C 
ATOM     20  C   UNL     1      -2.059   3.894  25.208  0.00  0.00    +0.053 C 
ATOM     21  C   UNL     1      -2.734   3.505  25.477  0.00  0.00    +0.117 C 
ATOM     22  C   UNL     1      -2.603   2.693  25.412  0.00  0.00    +0.115 C 
ATOM     23  N   UNL     1      -1.846   2.580  25.103  0.00  0.00    -0.270 N 
ATOM     24  C   UNL     1      -1.519   1.837  24.960  0.00  0.00    +0.246 C 
ATOM     25  O   UNL     1      -2.000   1.193  25.146  0.00  0.00    -0.273 OA
ATOM     26  C   UNL     1      -0.775   1.652  24.655  0.00  0.00    +0.172 C 
ENDROOT
BRANCH  21  27
ATOM     27  N   UNL     1      -3.420   3.863  25.760  0.00  0.00    -0.205 NA
ATOM     28  C   UNL     1      -4.118   3.823  25.323  0.00  0.00    +0.252 C 
ATOM     29  O   UNL     1      -4.130   3.425  24.600  0.00  0.00    -0.272 OA
BRANCH  28  30
ATOM     30  C   UNL     1      -4.805   4.182  25.607  0.00  0.00    +0.144 C 
BRANCH  30  31
ATOM     31  S   UNL     1      -5.541   3.845  25.452  0.00  0.00    -0.130 S 
ATOM     32  C   UNL     1      -6.228   4.203  25.737  0.00  0.00    +0.070 C 
ENDBRANCH  30  31
ENDBRANCH  28  30
ENDBRANCH  21  27
BRANCH  10   9
ATOM      9  C   UNL     1      -0.599  -0.547  24.553  0.00  0.00    +0.115 C 
BRANCH   9   8
ATOM      3  C   UNL     1      -0.815  -1.889  24.992  0.00  0.00    +0.135 A 
ATOM      4  C   UNL     1      -1.283  -2.568  25.012  0.00  0.00    +0.037 A 
ATOM      5  C   UNL     1      -2.005  -2.584  24.611  0.00  0.00    +0.003 A 
ATOM      6  C   UNL     1      -2.257  -1.920  24.191  0.00  0.00    -0.000 A 
ATOM      7  C   UNL     1      -1.788  -1.241  24.171  0.00  0.00    -0.001 A 
ATOM      8  C   UNL     1      -1.068  -1.225  24.572  0.00  0.00    +0.021 A 
BRANCH   3   2
ATOM      1  C   UNL     1       0.248  -2.578  25.654  0.00  0.00    +0.252 C 
ATOM      2  O   UNL     1      -0.094  -1.873  25.393  0.00  0.00    -0.472 OA
ENDBRANCH   3   2
ENDBRANCH   9   8
ENDBRANCH  10   9
TORSDOF 6
ENDMDL
