MODEL 1
REMARK VINA RESULT:     -12.0      0.000      0.000
REMARK  Name = 
REMARK  6 active torsions:
REMARK  status: ('A' for Active; 'I' for Inactive)
REMARK    1  A    between atoms: N_2  and  C_3
REMARK    2  A    between atoms: C_6  and  C_9
REMARK    3  A    between atoms: C_12  and  C_14
REMARK    4  A    between atoms: N_18  and  C_19
REMARK    5  A    between atoms: C_19  and  C_20
REMARK    6  A    between atoms: C_23  and  C_26
REMARK                            x       y       z     vdW  Elec       q    Type
REMARK                         _______ _______ _______ _____ _____    ______ ____
ROOT
ATOM     14  C   UNL     1      -4.809   1.711  24.949  0.00  0.00    +0.138 C 
ATOM     15  C   UNL     1      -5.518   1.834  25.353  0.00  0.00    +0.027 C 
ATOM     16  C   UNL     1      -5.834   1.096  25.544  0.00  0.00    +0.019 C 
ATOM     17  C   UNL     1      -5.320   0.517  25.257  0.00  0.00    +0.073 C 
ATOM     18  N   UNL     1      -4.687   0.898  24.890  0.00  0.00    -0.263 NA
ENDROOT
BRANCH  14  12
ATOM      9  C   UNL     1      -3.312   3.179  24.547  0.00  0.00    +0.205 A 
ATOM     10  N   UNL     1      -3.773   3.230  23.864  0.00  0.00    -0.056 NA
ATOM     11  O   UNL     1      -4.390   2.687  23.932  0.00  0.00    -0.336 OA
ATOM     12  C   UNL     1      -4.311   2.299  24.656  0.00  0.00    +0.251 A 
ATOM     13  N   UNL     1      -3.644   2.604  25.036  0.00  0.00    -0.190 NA
BRANCH   9   6
ATOM      3  C   UNL     1      -1.288   4.516  25.039  0.00  0.00    +0.148 A 
ATOM      4  C   UNL     1      -2.025   4.767  25.311  0.00  0.00    +0.036 A 
ATOM      5  C   UNL     1      -2.700   4.321  25.147  0.00  0.00    +0.008 A 
ATOM      6  C   UNL     1      -2.637   3.625  24.711  0.00  0.00    +0.058 A 
ATOM      7  C   UNL     1      -1.901   3.372  24.438  0.00  0.00    +0.103 A 
ATOM      8  N   UNL     1      -1.226   3.818  24.602  0.00  0.00    -0.228 NA
BRANCH   3   2
ATOM      1  C   UNL     1      -0.304   5.467  24.629  0.00  0.00    +0.137 C 
ATOM      2  N   UNL     1      -0.614   4.962  25.203  0.00  0.00    -0.218 NA
ENDBRANCH   3   2
ENDBRANCH   9   6
ENDBRANCH  14  12
BRANCH  18  19
ATOM     19  C   UNL     1      -4.044   0.529  24.527  0.00  0.00    +0.099 C 
BRANCH  19  20
ATOM     20  C   UNL     1      -3.962  -0.291  24.568  0.00  0.00    -0.006 A 
ATOM     21  C   UNL     1      -4.264  -0.766  23.965  0.00  0.00    -0.003 A 
ATOM     22  C   UNL     1      -4.182  -1.586  24.005  0.00  0.00    +0.004 A 
ATOM     23  C   UNL     1      -3.797  -1.930  24.648  0.00  0.00    +0.071 A 
ATOM     24  C   UNL     1      -3.496  -1.455  25.251  0.00  0.00    +0.004 A 
ATOM     25  C   UNL     1      -3.578  -0.636  25.211  0.00  0.00    -0.003 A 
BRANCH  23  26
ATOM     26  C   UNL     1      -3.715  -2.751  24.689  0.00  0.00    +0.419 C 
ATOM     27  F   UNL     1      -3.633  -3.570  24.728  0.00  0.00    -0.166 F 
ATOM     28  F   UNL     1      -3.807  -2.800  23.871  0.00  0.00    -0.166 F 
ATOM     29  F   UNL     1      -3.623  -2.702  25.507  0.00  0.00    -0.166 F 
ENDBRANCH  23  26
ENDBRANCH  19  20
ENDBRANCH  18  19
TORSDOF 6
ENDMDL
MODEL 2
REMARK VINA RESULT:     -12.0      2.982      5.572
REMARK  Name = 
REMARK  6 active torsions:
REMARK  status: ('A' for Active; 'I' for Inactive)
REMARK    1  A    between atoms: N_2  and  C_3
REMARK    2  A    between atoms: C_6  and  C_9
REMARK    3  A    between atoms: C_12  and  C_14
REMARK    4  A    between atoms: N_18  and  C_19
REMARK    5  A    between atoms: C_19  and  C_20
REMARK    6  A    between atoms: C_23  and  C_26
REMARK                            x       y       z     vdW  Elec       q    Type
REMARK                         _______ _______ _______ _____ _____    ______ ____
ROOT
ATOM     14  C   UNL     1      -4.496   2.185  24.666  0.00  0.00    +0.138 C 
ATOM     15  C   UNL     1      -5.096   2.522  24.211  0.00  0.00    +0.027 C 
ATOM     16  C   UNL     1      -4.885   3.302  24.048  0.00  0.00    +0.019 C 
ATOM     17  C   UNL     1      -4.154   3.448  24.402  0.00  0.00    +0.073 C 
ATOM     18  N   UNL     1      -3.914   2.757  24.785  0.00  0.00    -0.263 NA
ENDROOT
BRANCH  14  12
ATOM      9  C   UNL     1      -4.236   0.104  25.065  0.00  0.00    +0.205 A 
ATOM     10  N   UNL     1      -4.679   0.338  25.721  0.00  0.00    -0.056 NA
ATOM     11  O   UNL     1      -4.831   1.146  25.651  0.00  0.00    -0.336 OA
ATOM     12  C   UNL     1      -4.481   1.412  24.953  0.00  0.00    +0.251 A 
ATOM     13  N   UNL     1      -4.113   0.768  24.591  0.00  0.00    -0.190 NA
BRANCH   9   6
ATOM      3  C   UNL     1      -3.417  -2.186  24.604  0.00  0.00    +0.148 A 
ATOM      4  C   UNL     1      -3.924  -1.813  24.071  0.00  0.00    +0.036 A 
ATOM      5  C   UNL     1      -4.197  -1.050  24.224  0.00  0.00    +0.008 A 
ATOM      6  C   UNL     1      -3.963  -0.659  24.911  0.00  0.00    +0.058 A 
ATOM      7  C   UNL     1      -3.455  -1.030  25.445  0.00  0.00    +0.103 A 
ATOM      8  N   UNL     1      -3.182  -1.794  25.292  0.00  0.00    -0.228 NA
BRANCH   3   2
ATOM      1  C   UNL     1      -2.350  -3.073  24.262  0.00  0.00    +0.137 C 
ATOM      2  N   UNL     1      -3.144  -2.949  24.450  0.00  0.00    -0.218 NA
ENDBRANCH   3   2
ENDBRANCH   9   6
ENDBRANCH  14  12
BRANCH  18  19
ATOM     19  C   UNL     1      -3.214   2.657  25.210  0.00  0.00    +0.099 C 
BRANCH  19  20
ATOM     20  C   UNL     1      -2.625   3.233  25.176  0.00  0.00    -0.006 A 
ATOM     21  C   UNL     1      -2.649   3.879  25.688  0.00  0.00    -0.003 A 
ATOM     22  C   UNL     1      -2.059   4.455  25.654  0.00  0.00    +0.004 A 
ATOM     23  C   UNL     1      -1.444   4.384  25.108  0.00  0.00    +0.071 A 
ATOM     24  C   UNL     1      -1.420   3.738  24.596  0.00  0.00    +0.004 A 
ATOM     25  C   UNL     1      -2.010   3.162  24.630  0.00  0.00    -0.003 A 
BRANCH  23  26
ATOM     26  C   UNL     1      -0.854   4.960  25.074  0.00  0.00    +0.419 C 
ATOM     27  F   UNL     1      -0.265   5.535  25.041  0.00  0.00    -0.166 F 
ATOM     28  F   UNL     1      -0.278   4.372  25.118  0.00  0.00    -0.166 F 
ATOM     29  F   UNL     1      -1.431   5.549  25.031  0.00  0.00    -0.166 F 
ENDBRANCH  23  26
ENDBRANCH  19  20
ENDBRANCH  18  19
TORSDOF 6
ENDMDL
MODEL 3
REMARK VINA RESULT:     -11.5      2.074      2.862
REMARK  Name = 
REMARK  6 active torsions:
REMARK  status: ('A' for Active; 'I' for Inactive)
REMARK    1  A    between atoms: N_2  and  C_3
REMARK    2  A    between atoms: C_6  and  C_9
REMARK    3  A    between atoms: C_12  and  C_14
REMARK    4  A    between atoms: N_18  and  C_19
REMARK    5  A    between atoms: C_19  and  C_20
REMARK    6  A    between atoms: C_23  and  C_26
REMARK                            x       y       z     vdW  Elec       q    Type
REMARK                         _______ _______ _______ _____ _____    ______ ____
ROOT
ATOM     14  C   UNL     1      -0.655   0.146  24.780  0.00  0.00    +0.138 C 
ATOM     15  C   UNL     1      -0.003  -0.083  24.327  0.00  0.00    +0.027 C 
ATOM     16  C   UNL     1      -0.162  -0.827  24.009  0.00  0.00    +0.019 C 
ATOM     17  C   UNL     1      -0.912  -1.059  24.265  0.00  0.00    +0.073 C 
ATOM     18  N   UNL     1      -1.216  -0.457  24.741  0.00  0.00    -0.263 NA
ENDROOT
BRANCH  14  12
ATOM      9  C   UNL     1      -0.965   2.134  25.492  0.00  0.00    +0.205 A 
ATOM     10  N   UNL     1      -0.730   1.752  26.184  0.00  0.00    -0.056 NA
ATOM     11  O   UNL     1      -0.586   0.960  26.002  0.00  0.00    -0.336 OA
ATOM     12  C   UNL     1      -0.731   0.853  25.197  0.00  0.00    +0.251 A 
ATOM     13  N   UNL     1      -0.965   1.579  24.882  0.00  0.00    -0.190 NA
BRANCH   9   6
ATOM      3  C   UNL     1      -1.563   4.527  25.283  0.00  0.00    +0.148 A 
ATOM      4  C   UNL     1      -0.856   4.249  24.963  0.00  0.00    +0.036 A 
ATOM      5  C   UNL     1      -0.656   3.451  25.033  0.00  0.00    +0.008 A 
ATOM      6  C   UNL     1      -1.164   2.932  25.422  0.00  0.00    +0.058 A 
ATOM      7  C   UNL     1      -1.873   3.209  25.742  0.00  0.00    +0.103 A 
ATOM      8  N   UNL     1      -2.072   4.006  25.673  0.00  0.00    -0.228 NA
BRANCH   3   2
ATOM      1  C   UNL     1      -1.233   5.853  24.865  0.00  0.00    +0.137 C 
ATOM      2  N   UNL     1      -1.763   5.324  25.213  0.00  0.00    -0.218 NA
ENDBRANCH   3   2
ENDBRANCH   9   6
ENDBRANCH  14  12
BRANCH  18  19
ATOM     19  C   UNL     1      -1.953  -0.459  25.113  0.00  0.00    +0.099 C 
BRANCH  19  20
ATOM     20  C   UNL     1      -2.557  -0.942  24.829  0.00  0.00    -0.006 A 
ATOM     21  C   UNL     1      -3.086  -0.655  24.265  0.00  0.00    -0.003 A 
ATOM     22  C   UNL     1      -3.691  -1.139  23.981  0.00  0.00    +0.004 A 
ATOM     23  C   UNL     1      -3.766  -1.911  24.261  0.00  0.00    +0.071 A 
ATOM     24  C   UNL     1      -3.238  -2.199  24.825  0.00  0.00    +0.004 A 
ATOM     25  C   UNL     1      -2.633  -1.715  25.109  0.00  0.00    -0.003 A 
BRANCH  23  26
ATOM     26  C   UNL     1      -4.372  -2.395  23.977  0.00  0.00    +0.419 C 
ATOM     27  F   UNL     1      -4.976  -2.879  23.693  0.00  0.00    -0.166 F 
ATOM     28  F   UNL     1      -4.854  -1.734  23.879  0.00  0.00    -0.166 F 
ATOM     29  F   UNL     1      -3.888  -3.057  24.075  0.00  0.00    -0.166 F 
ENDBRANCH  23  26
ENDBRANCH  19  20
ENDBRANCH  18  19
TORSDOF 6
ENDMDL
MODEL 4
REMARK VINA RESULT:     -11.4      3.600      6.282
REMARK  Name = 
REMARK  6 active torsions:
REMARK  status: ('A' for Active; 'I' for Inactive)
REMARK    1  A    between atoms: N_2  and  C_3
REMARK    2  A    between atoms: C_6  and  C_9
REMARK    3  A    between atoms: C_12  and  C_14
REMARK    4  A    between atoms: N_18  and  C_19
REMARK    5  A    between atoms: C_19  and  C_20
REMARK    6  A    between atoms: C_23  and  C_26
REMARK                            x       y       z     vdW  Elec       q    Type
REMARK                         _______ _______ _______ _____ _____    ______ ____
ROOT
ATOM     14  C   UNL     1      -0.255   0.772  24.535  0.00  0.00    +0.138 C 
ATOM     15  C   UNL     1       0.387   0.696  24.021  0.00  0.00    +0.027 C 
ATOM     16  C   UNL     1       0.666   1.453  23.849  0.00  0.00    +0.019 C 
ATOM     17  C   UNL     1       0.198   1.996  24.256  0.00  0.00    +0.073 C 
ATOM     18  N   UNL     1      -0.372   1.575  24.681  0.00  0.00    -0.263 NA
ENDROOT
BRANCH  14  12
ATOM      9  C   UNL     1      -1.602  -0.824  24.977  0.00  0.00    +0.205 A 
ATOM     10  N   UNL     1      -1.172  -0.779  25.681  0.00  0.00    -0.056 NA
ATOM     11  O   UNL     1      -0.615  -0.175  25.600  0.00  0.00    -0.336 OA
ATOM     12  C   UNL     1      -0.700   0.152  24.848  0.00  0.00    +0.251 A 
ATOM     13  N   UNL     1      -1.310  -0.249  24.463  0.00  0.00    -0.190 NA
BRANCH   9   6
ATOM      3  C   UNL     1      -3.442  -2.408  24.497  0.00  0.00    +0.148 A 
ATOM      4  C   UNL     1      -3.610  -1.659  24.798  0.00  0.00    +0.036 A 
ATOM      5  C   UNL     1      -2.997  -1.131  24.958  0.00  0.00    +0.008 A 
ATOM      6  C   UNL     1      -2.215  -1.352  24.817  0.00  0.00    +0.058 A 
ATOM      7  C   UNL     1      -2.045  -2.102  24.516  0.00  0.00    +0.103 A 
ATOM      8  N   UNL     1      -2.659  -2.630  24.356  0.00  0.00    -0.228 NA
BRANCH   3   2
ATOM      1  C   UNL     1      -4.487  -2.867  23.638  0.00  0.00    +0.137 C 
ATOM      2  N   UNL     1      -4.055  -2.937  24.337  0.00  0.00    -0.218 NA
ENDBRANCH   3   2
ENDBRANCH   9   6
ENDBRANCH  14  12
BRANCH  18  19
ATOM     19  C   UNL     1      -0.955   1.901  25.165  0.00  0.00    +0.099 C 
BRANCH  19  20
ATOM     20  C   UNL     1      -1.076   2.716  25.173  0.00  0.00    -0.006 A 
ATOM     21  C   UNL     1      -1.675   3.049  24.714  0.00  0.00    -0.003 A 
ATOM     22  C   UNL     1      -1.796   3.866  24.722  0.00  0.00    +0.004 A 
ATOM     23  C   UNL     1      -1.318   4.348  25.191  0.00  0.00    +0.071 A 
ATOM     24  C   UNL     1      -0.720   4.015  25.650  0.00  0.00    +0.004 A 
ATOM     25  C   UNL     1      -0.598   3.200  25.642  0.00  0.00    -0.003 A 
BRANCH  23  26
ATOM     26  C   UNL     1      -1.440   5.165  25.199  0.00  0.00    +0.419 C 
ATOM     27  F   UNL     1      -1.561   5.980  25.208  0.00  0.00    -0.166 F 
ATOM     28  F   UNL     1      -0.753   5.271  24.756  0.00  0.00    -0.166 F 
ATOM     29  F   UNL     1      -2.128   5.058  25.643  0.00  0.00    -0.166 F 
ENDBRANCH  23  26
ENDBRANCH  19  20
ENDBRANCH  18  19
TORSDOF 6
ENDMDL
MODEL 5
REMARK VINA RESULT:     -10.3      3.582      4.638
REMARK  Name = 
REMARK  6 active torsions:
REMARK  status: ('A' for Active; 'I' for Inactive)
REMARK    1  A    between atoms: N_2  and  C_3
REMARK    2  A    between atoms: C_6  and  C_9
REMARK    3  A    between atoms: C_12  and  C_14
REMARK    4  A    between atoms: N_18  and  C_19
REMARK    5  A    between atoms: C_19  and  C_20
REMARK    6  A    between atoms: C_23  and  C_26
REMARK                            x       y       z     vdW  Elec       q    Type
REMARK                         _______ _______ _______ _____ _____    ______ ____
ROOT
ATOM     14  C   UNL     1      -2.883  -0.094  25.108  0.00  0.00    +0.138 C 
ATOM     15  C   UNL     1      -3.271  -0.783  25.344  0.00  0.00    +0.027 C 
ATOM     16  C   UNL     1      -4.082  -0.639  25.324  0.00  0.00    +0.019 C 
ATOM     17  C   UNL     1      -4.197   0.140  25.076  0.00  0.00    +0.073 C 
ATOM     18  N   UNL     1      -3.455   0.476  24.942  0.00  0.00    -0.263 NA
ENDROOT
BRANCH  14  12
ATOM      9  C   UNL     1      -0.830   0.086  24.550  0.00  0.00    +0.205 A 
ATOM     10  N   UNL     1      -0.788   0.234  25.361  0.00  0.00    -0.056 NA
ATOM     11  O   UNL     1      -1.552   0.184  25.669  0.00  0.00    -0.336 OA
ATOM     12  C   UNL     1      -2.066   0.006  25.048  0.00  0.00    +0.251 A 
ATOM     13  N   UNL     1      -1.619  -0.055  24.357  0.00  0.00    -0.190 NA
BRANCH   9   6
ATOM      3  C   UNL     1       1.079   0.068  22.975  0.00  0.00    +0.148 A 
ATOM      4  C   UNL     1       0.783   0.784  23.257  0.00  0.00    +0.036 A 
ATOM      5  C   UNL     1       0.147   0.790  23.782  0.00  0.00    +0.008 A 
ATOM      6  C   UNL     1      -0.194   0.080  24.025  0.00  0.00    +0.058 A 
ATOM      7  C   UNL     1       0.101  -0.638  23.743  0.00  0.00    +0.103 A 
ATOM      8  N   UNL     1       0.738  -0.644  23.218  0.00  0.00    -0.228 NA
BRANCH   3   2
ATOM      1  C   UNL     1       2.487   0.103  22.737  0.00  0.00    +0.137 C 
ATOM      2  N   UNL     1       1.715   0.062  22.449  0.00  0.00    -0.218 NA
ENDBRANCH   3   2
ENDBRANCH   9   6
ENDBRANCH  14  12
BRANCH  18  19
ATOM     19  C   UNL     1      -3.311   1.248  24.688  0.00  0.00    +0.099 C 
BRANCH  19  20
ATOM     20  C   UNL     1      -3.845   1.849  24.871  0.00  0.00    -0.006 A 
ATOM     21  C   UNL     1      -3.682   2.373  25.486  0.00  0.00    -0.003 A 
ATOM     22  C   UNL     1      -4.216   2.975  25.669  0.00  0.00    +0.004 A 
ATOM     23  C   UNL     1      -4.914   3.051  25.235  0.00  0.00    +0.071 A 
ATOM     24  C   UNL     1      -5.077   2.527  24.620  0.00  0.00    +0.004 A 
ATOM     25  C   UNL     1      -4.543   1.926  24.437  0.00  0.00    -0.003 A 
BRANCH  23  26
ATOM     26  C   UNL     1      -5.449   3.653  25.418  0.00  0.00    +0.419 C 
ATOM     27  F   UNL     1      -5.983   4.254  25.601  0.00  0.00    -0.166 F 
ATOM     28  F   UNL     1      -4.967   4.199  25.032  0.00  0.00    -0.166 F 
ATOM     29  F   UNL     1      -5.931   3.107  25.806  0.00  0.00    -0.166 F 
ENDBRANCH  23  26
ENDBRANCH  19  20
ENDBRANCH  18  19
TORSDOF 6
ENDMDL
MODEL 6
REMARK VINA RESULT:     -10.2      3.127      4.380
REMARK  Name = 
REMARK  6 active torsions:
REMARK  status: ('A' for Active; 'I' for Inactive)
REMARK    1  A    between atoms: N_2  and  C_3
REMARK    2  A    between atoms: C_6  and  C_9
REMARK    3  A    between atoms: C_12  and  C_14
REMARK    4  A    between atoms: N_18  and  C_19
REMARK    5  A    between atoms: C_19  and  C_20
REMARK    6  A    between atoms: C_23  and  C_26
REMARK                            x       y       z     vdW  Elec       q    Type
REMARK                         _______ _______ _______ _____ _____    ______ ____
ROOT
ATOM     14  C   UNL     1      -1.681   3.054  25.211  0.00  0.00    +0.138 C 
ATOM     15  C   UNL     1      -1.546   3.807  25.521  0.00  0.00    +0.027 C 
ATOM     16  C   UNL     1      -2.249   4.235  25.465  0.00  0.00    +0.019 C 
ATOM     17  C   UNL     1      -2.818   3.747  25.120  0.00  0.00    +0.073 C 
ATOM     18  N   UNL     1      -2.467   3.017  24.963  0.00  0.00    -0.263 NA
ENDROOT
BRANCH  14  12
ATOM      9  C   UNL     1      -0.256   1.560  24.668  0.00  0.00    +0.205 A 
ATOM     10  N   UNL     1      -0.288   1.459  25.486  0.00  0.00    -0.056 NA
ATOM     11  O   UNL     1      -0.826   2.007  25.790  0.00  0.00    -0.336 OA
ATOM     12  C   UNL     1      -1.126   2.446  25.159  0.00  0.00    +0.251 A 
ATOM     13  N   UNL     1      -0.773   2.170  24.466  0.00  0.00    -0.190 NA
BRANCH   9   6
ATOM      3  C   UNL     1       1.148   0.262  23.097  0.00  0.00    +0.148 A 
ATOM      4  C   UNL     1       0.394  -0.008  23.296  0.00  0.00    +0.036 A 
ATOM      5  C   UNL     1      -0.074   0.425  23.820  0.00  0.00    +0.008 A 
ATOM      6  C   UNL     1       0.212   1.127  24.144  0.00  0.00    +0.058 A 
ATOM      7  C   UNL     1       0.966   1.398  23.945  0.00  0.00    +0.103 A 
ATOM      8  N   UNL     1       1.434   0.965  23.421  0.00  0.00    -0.228 NA
BRANCH   3   2
ATOM      1  C   UNL     1       2.390   0.068  22.417  0.00  0.00    +0.137 C 
ATOM      2  N   UNL     1       1.616  -0.171  22.573  0.00  0.00    -0.218 NA
ENDBRANCH   3   2
ENDBRANCH   9   6
ENDBRANCH  14  12
BRANCH  18  19
ATOM     19  C   UNL     1      -2.836   2.365  24.619  0.00  0.00    +0.099 C 
BRANCH  19  20
ATOM     20  C   UNL     1      -3.652   2.267  24.691  0.00  0.00    -0.006 A 
ATOM     21  C   UNL     1      -4.161   2.663  24.177  0.00  0.00    -0.003 A 
ATOM     22  C   UNL     1      -4.978   2.566  24.248  0.00  0.00    +0.004 A 
ATOM     23  C   UNL     1      -5.284   2.072  24.834  0.00  0.00    +0.071 A 
ATOM     24  C   UNL     1      -4.775   1.676  25.348  0.00  0.00    +0.004 A 
ATOM     25  C   UNL     1      -3.959   1.773  25.276  0.00  0.00    -0.003 A 
BRANCH  23  26
ATOM     26  C   UNL     1      -6.101   1.975  24.905  0.00  0.00    +0.419 C 
ATOM     27  F   UNL     1      -6.916   1.877  24.976  0.00  0.00    -0.166 F 
ATOM     28  F   UNL     1      -6.049   1.252  24.512  0.00  0.00    -0.166 F 
ATOM     29  F   UNL     1      -6.153   2.699  25.298  0.00  0.00    -0.166 F 
ENDBRANCH  23  26
ENDBRANCH  19  20
ENDBRANCH  18  19
TORSDOF 6
ENDMDL
