MODEL 1
REMARK VINA RESULT:      -9.5      0.000      0.000
REMARK  Name = 
REMARK  7 active torsions:
REMARK  status: ('A' for Active; 'I' for Inactive)
REMARK    1  A    between atoms: O_2  and  C_3
REMARK    2  A    between atoms: C_3  and  C_4
REMARK    3  A    between atoms: C_6  and  C_7
REMARK    4  A    between atoms: C_7  and  C_8
REMARK    5  A    between atoms: C_8  and  N_12
REMARK    6  A    between atoms: N_12  and  C_13
REMARK    7  A    between atoms: C_13  and  C_14
REMARK                            x       y       z     vdW  Elec       q    Type
REMARK                         _______ _______ _______ _____ _____    ______ ____
ROOT
ATOM      8  C   UNL     1      -4.547   1.537  24.703  0.00  0.00    +0.120 C 
ATOM      9  C   UNL     1      -5.253   1.264  25.032  0.00  0.00    +0.161 C 
ATOM     10  O   UNL     1      -5.634   1.954  24.785  0.00  0.00    -0.351 OA
ATOM     11  C   UNL     1      -4.928   2.226  24.456  0.00  0.00    +0.161 C 
ENDROOT
BRANCH   8   7
ATOM      7  C   UNL     1      -3.841   1.809  24.374  0.00  0.00    +0.070 C 
BRANCH   7   6
ATOM      4  C   UNL     1      -2.477   3.316  25.026  0.00  0.00    +0.184 A 
ATOM      5  C   UNL     1      -2.697   2.725  24.495  0.00  0.00    +0.056 A 
ATOM      6  C   UNL     1      -3.419   2.413  24.745  0.00  0.00    +0.102 A 
ATOM     21  N   UNL     1      -3.645   2.812  25.430  0.00  0.00    -0.082 NA
ATOM     22  O   UNL     1      -3.063   3.370  25.604  0.00  0.00    -0.356 OA
BRANCH   4   3
ATOM      3  C   UNL     1      -1.792   3.774  24.987  0.00  0.00    +0.209 C 
BRANCH   3   2
ATOM      1  C   UNL     1      -1.153   5.050  25.050  0.00  0.00    +0.175 C 
ATOM      2  O   UNL     1      -1.825   4.582  25.147  0.00  0.00    -0.343 OA
ENDBRANCH   3   2
ENDBRANCH   4   3
ENDBRANCH   7   6
ENDBRANCH   8   7
BRANCH   8  12
ATOM     12  N   UNL     1      -4.166   0.848  24.950  0.00  0.00    -0.211 NA
BRANCH  12  13
ATOM     13  C   UNL     1      -4.383   0.120  24.627  0.00  0.00    +0.116 C 
BRANCH  13  14
ATOM     14  C   UNL     1      -4.016  -0.572  24.889  0.00  0.00    +0.006 A 
ATOM     15  C   UNL     1      -3.694  -0.606  25.648  0.00  0.00    -0.002 A 
ATOM     16  C   UNL     1      -3.327  -1.297  25.910  0.00  0.00    -0.000 A 
ATOM     17  C   UNL     1      -3.282  -1.953  25.413  0.00  0.00    +0.001 A 
ATOM     18  C   UNL     1      -3.604  -1.920  24.654  0.00  0.00    +0.011 A 
ATOM     19  C   UNL     1      -3.971  -1.228  24.392  0.00  0.00    +0.055 A 
ATOM     20 CL   UNL     1      -4.293  -1.194  23.633  0.00  0.00    -0.083 Cl
ENDBRANCH  13  14
ENDBRANCH  12  13
ENDBRANCH   8  12
TORSDOF 7
ENDMDL
MODEL 2
REMARK VINA RESULT:      -8.8      1.868      4.451
REMARK  Name = 
REMARK  7 active torsions:
REMARK  status: ('A' for Active; 'I' for Inactive)
REMARK    1  A    between atoms: O_2  and  C_3
REMARK    2  A    between atoms: C_3  and  C_4
REMARK    3  A    between atoms: C_6  and  C_7
REMARK    4  A    between atoms: C_7  and  C_8
REMARK    5  A    between atoms: C_8  and  N_12
REMARK    6  A    between atoms: N_12  and  C_13
REMARK    7  A    between atoms: C_13  and  C_14
REMARK                            x       y       z     vdW  Elec       q    Type
REMARK                         _______ _______ _______ _____ _____    ______ ____
ROOT
ATOM      8  C   UNL     1      -4.322   1.986  24.798  0.00  0.00    +0.120 C 
ATOM      9  C   UNL     1      -4.647   2.661  24.451  0.00  0.00    +0.161 C 
ATOM     10  O   UNL     1      -5.396   2.316  24.484  0.00  0.00    -0.351 OA
ATOM     11  C   UNL     1      -5.071   1.643  24.831  0.00  0.00    +0.161 C 
ENDROOT
BRANCH   8   7
ATOM      7  C   UNL     1      -3.997   1.312  25.145  0.00  0.00    +0.070 C 
BRANCH   7   6
ATOM      4  C   UNL     1      -3.977  -0.687  24.398  0.00  0.00    +0.184 A 
ATOM      5  C   UNL     1      -4.079  -0.150  25.015  0.00  0.00    +0.056 A 
ATOM      6  C   UNL     1      -3.952   0.608  24.717  0.00  0.00    +0.102 A 
ATOM     21  N   UNL     1      -3.771   0.541  23.915  0.00  0.00    -0.082 NA
ATOM     22  O   UNL     1      -3.786  -0.260  23.718  0.00  0.00    -0.356 OA
BRANCH   4   3
ATOM      3  C   UNL     1      -4.052  -1.507  24.450  0.00  0.00    +0.209 C 
BRANCH   3   2
ATOM      1  C   UNL     1      -3.455  -2.805  24.470  0.00  0.00    +0.175 C 
ATOM      2  O   UNL     1      -3.386  -1.988  24.378  0.00  0.00    -0.343 OA
ENDBRANCH   3   2
ENDBRANCH   4   3
ENDBRANCH   7   6
ENDBRANCH   8   7
BRANCH   8  12
ATOM     12  N   UNL     1      -3.573   2.331  24.764  0.00  0.00    -0.211 NA
BRANCH  12  13
ATOM     13  C   UNL     1      -3.420   3.025  25.183  0.00  0.00    +0.116 C 
BRANCH  13  14
ATOM     14  C   UNL     1      -2.666   3.361  25.162  0.00  0.00    +0.006 A 
ATOM     15  C   UNL     1      -2.120   3.110  24.597  0.00  0.00    -0.002 A 
ATOM     16  C   UNL     1      -1.366   3.446  24.575  0.00  0.00    -0.000 A 
ATOM     17  C   UNL     1      -1.160   4.032  25.118  0.00  0.00    +0.001 A 
ATOM     18  C   UNL     1      -1.707   4.283  25.682  0.00  0.00    +0.011 A 
ATOM     19  C   UNL     1      -2.460   3.947  25.704  0.00  0.00    +0.055 A 
ATOM     20 CL   UNL     1      -3.007   4.198  26.268  0.00  0.00    -0.083 Cl
ENDBRANCH  13  14
ENDBRANCH  12  13
ENDBRANCH   8  12
TORSDOF 7
ENDMDL
MODEL 3
REMARK VINA RESULT:      -8.4      2.589      3.924
REMARK  Name = 
REMARK  7 active torsions:
REMARK  status: ('A' for Active; 'I' for Inactive)
REMARK    1  A    between atoms: O_2  and  C_3
REMARK    2  A    between atoms: C_3  and  C_4
REMARK    3  A    between atoms: C_6  and  C_7
REMARK    4  A    between atoms: C_7  and  C_8
REMARK    5  A    between atoms: C_8  and  N_12
REMARK    6  A    between atoms: N_12  and  C_13
REMARK    7  A    between atoms: C_13  and  C_14
REMARK                            x       y       z     vdW  Elec       q    Type
REMARK                         _______ _______ _______ _____ _____    ______ ____
ROOT
ATOM      8  C   UNL     1      -3.717  -0.826  24.647  0.00  0.00    +0.120 C 
ATOM      9  C   UNL     1      -4.331  -0.888  24.097  0.00  0.00    +0.161 C 
ATOM     10  O   UNL     1      -4.330  -1.708  24.190  0.00  0.00    -0.351 OA
ATOM     11  C   UNL     1      -3.718  -1.646  24.739  0.00  0.00    +0.161 C 
ENDROOT
BRANCH   8   7
ATOM      7  C   UNL     1      -3.105  -0.764  25.196  0.00  0.00    +0.070 C 
BRANCH   7   6
ATOM      4  C   UNL     1      -1.049  -0.957  24.655  0.00  0.00    +0.184 A 
ATOM      5  C   UNL     1      -1.705  -0.492  24.840  0.00  0.00    +0.056 A 
ATOM      6  C   UNL     1      -2.341  -0.996  24.990  0.00  0.00    +0.102 A 
ATOM     21  N   UNL     1      -2.079  -1.772  24.897  0.00  0.00    -0.082 NA
ATOM     22  O   UNL     1      -1.281  -1.749  24.690  0.00  0.00    -0.356 OA
BRANCH   4   3
ATOM      3  C   UNL     1      -0.295  -0.681  24.467  0.00  0.00    +0.209 C 
BRANCH   3   2
ATOM      1  C   UNL     1       0.649  -0.258  23.483  0.00  0.00    +0.175 C 
ATOM      2  O   UNL     1      -0.054  -0.642  23.680  0.00  0.00    -0.343 OA
ENDBRANCH   3   2
ENDBRANCH   4   3
ENDBRANCH   7   6
ENDBRANCH   8   7
BRANCH   8  12
ATOM     12  N   UNL     1      -3.718  -0.006  24.554  0.00  0.00    -0.211 NA
BRANCH  12  13
ATOM     13  C   UNL     1      -4.398   0.428  24.729  0.00  0.00    +0.116 C 
BRANCH  13  14
ATOM     14  C   UNL     1      -4.401   1.247  24.628  0.00  0.00    +0.006 A 
ATOM     15  C   UNL     1      -3.877   1.598  24.096  0.00  0.00    -0.002 A 
ATOM     16  C   UNL     1      -3.879   2.417  23.994  0.00  0.00    -0.000 A 
ATOM     17  C   UNL     1      -4.406   2.884  24.425  0.00  0.00    +0.001 A 
ATOM     18  C   UNL     1      -4.931   2.533  24.956  0.00  0.00    +0.011 A 
ATOM     19  C   UNL     1      -4.928   1.714  25.057  0.00  0.00    +0.055 A 
ATOM     20 CL   UNL     1      -5.452   1.362  25.589  0.00  0.00    -0.083 Cl
ENDBRANCH  13  14
ENDBRANCH  12  13
ENDBRANCH   8  12
TORSDOF 7
ENDMDL
MODEL 4
REMARK VINA RESULT:      -8.3      1.727      2.614
REMARK  Name = 
REMARK  7 active torsions:
REMARK  status: ('A' for Active; 'I' for Inactive)
REMARK    1  A    between atoms: O_2  and  C_3
REMARK    2  A    between atoms: C_3  and  C_4
REMARK    3  A    between atoms: C_6  and  C_7
REMARK    4  A    between atoms: C_7  and  C_8
REMARK    5  A    between atoms: C_8  and  N_12
REMARK    6  A    between atoms: N_12  and  C_13
REMARK    7  A    between atoms: C_13  and  C_14
REMARK                            x       y       z     vdW  Elec       q    Type
REMARK                         _______ _______ _______ _____ _____    ______ ____
ROOT
ATOM      8  C   UNL     1      -1.546   0.800  25.023  0.00  0.00    +0.120 C 
ATOM      9  C   UNL     1      -1.038   0.428  25.557  0.00  0.00    +0.161 C 
ATOM     10  O   UNL     1      -0.502   1.052  25.480  0.00  0.00    -0.351 OA
ATOM     11  C   UNL     1      -1.010   1.423  24.947  0.00  0.00    +0.161 C 
ENDROOT
BRANCH   8   7
ATOM      7  C   UNL     1      -2.053   1.172  24.489  0.00  0.00    +0.070 C 
BRANCH   7   6
ATOM      4  C   UNL     1      -3.538   2.647  24.910  0.00  0.00    +0.184 A 
ATOM      5  C   UNL     1      -3.306   1.939  24.556  0.00  0.00    +0.056 A 
ATOM      6  C   UNL     1      -2.510   1.814  24.733  0.00  0.00    +0.102 A 
ATOM     21  N   UNL     1      -2.249   2.445  25.196  0.00  0.00    -0.082 NA
ATOM     22  O   UNL     1      -2.885   2.960  25.305  0.00  0.00    -0.356 OA
BRANCH   4   3
ATOM      3  C   UNL     1      -4.290   2.984  24.874  0.00  0.00    +0.209 C 
BRANCH   3   2
ATOM      1  C   UNL     1      -5.457   3.474  25.536  0.00  0.00    +0.175 C 
ATOM      2  O   UNL     1      -4.686   3.182  25.570  0.00  0.00    -0.343 OA
ENDBRANCH   3   2
ENDBRANCH   4   3
ENDBRANCH   7   6
ENDBRANCH   8   7
BRANCH   8  12
ATOM     12  N   UNL     1      -2.081   0.177  25.100  0.00  0.00    -0.211 NA
BRANCH  12  13
ATOM     13  C   UNL     1      -1.831  -0.599  24.971  0.00  0.00    +0.116 C 
BRANCH  13  14
ATOM     14  C   UNL     1      -2.375  -1.218  25.011  0.00  0.00    +0.006 A 
ATOM     15  C   UNL     1      -3.063  -1.134  25.459  0.00  0.00    -0.002 A 
ATOM     16  C   UNL     1      -3.607  -1.753  25.500  0.00  0.00    -0.000 A 
ATOM     17  C   UNL     1      -3.463  -2.456  25.093  0.00  0.00    +0.001 A 
ATOM     18  C   UNL     1      -2.774  -2.540  24.645  0.00  0.00    +0.011 A 
ATOM     19  C   UNL     1      -2.231  -1.921  24.605  0.00  0.00    +0.055 A 
ATOM     20 CL   UNL     1      -1.543  -2.005  24.157  0.00  0.00    -0.083 Cl
ENDBRANCH  13  14
ENDBRANCH  12  13
ENDBRANCH   8  12
TORSDOF 7
ENDMDL
MODEL 5
REMARK VINA RESULT:      -8.2      2.460      4.047
REMARK  Name = 
REMARK  7 active torsions:
REMARK  status: ('A' for Active; 'I' for Inactive)
REMARK    1  A    between atoms: O_2  and  C_3
REMARK    2  A    between atoms: C_3  and  C_4
REMARK    3  A    between atoms: C_6  and  C_7
REMARK    4  A    between atoms: C_7  and  C_8
REMARK    5  A    between atoms: C_8  and  N_12
REMARK    6  A    between atoms: N_12  and  C_13
REMARK    7  A    between atoms: C_13  and  C_14
REMARK                            x       y       z     vdW  Elec       q    Type
REMARK                         _______ _______ _______ _____ _____    ______ ____
ROOT
ATOM      8  C   UNL     1      -2.524   1.843  23.845  0.00  0.00    +0.120 C 
ATOM      9  C   UNL     1      -2.932   2.023  23.151  0.00  0.00    +0.161 C 
ATOM     10  O   UNL     1      -2.216   2.075  22.744  0.00  0.00    -0.351 OA
ATOM     11  C   UNL     1      -1.808   1.895  23.437  0.00  0.00    +0.161 C 
ENDROOT
BRANCH   8   7
ATOM      7  C   UNL     1      -2.116   1.664  24.539  0.00  0.00    +0.070 C 
BRANCH   7   6
ATOM      4  C   UNL     1      -1.372  -0.319  24.813  0.00  0.00    +0.184 A 
ATOM      5  C   UNL     1      -1.988   0.230  24.836  0.00  0.00    +0.056 A 
ATOM      6  C   UNL     1      -1.689   0.960  24.597  0.00  0.00    +0.102 A 
ATOM     21  N   UNL     1      -0.888   0.864  24.426  0.00  0.00    -0.082 NA
ATOM     22  O   UNL     1      -0.692   0.074  24.559  0.00  0.00    -0.356 OA
BRANCH   4   3
ATOM      3  C   UNL     1      -1.426  -1.118  25.009  0.00  0.00    +0.209 C 
BRANCH   3   2
ATOM      1  C   UNL     1      -1.741  -2.458  24.628  0.00  0.00    +0.175 C 
ATOM      2  O   UNL     1      -1.572  -1.678  24.421  0.00  0.00    -0.343 OA
ENDBRANCH   3   2
ENDBRANCH   4   3
ENDBRANCH   7   6
ENDBRANCH   8   7
BRANCH   8  12
ATOM     12  N   UNL     1      -3.240   1.791  24.252  0.00  0.00    -0.211 NA
BRANCH  12  13
ATOM     13  C   UNL     1      -3.707   2.464  24.351  0.00  0.00    +0.116 C 
BRANCH  13  14
ATOM     14  C   UNL     1      -4.428   2.410  24.749  0.00  0.00    +0.006 A 
ATOM     15  C   UNL     1      -4.864   1.710  24.717  0.00  0.00    -0.002 A 
ATOM     16  C   UNL     1      -5.586   1.655  25.114  0.00  0.00    -0.000 A 
ATOM     17  C   UNL     1      -5.869   2.300  25.544  0.00  0.00    +0.001 A 
ATOM     18  C   UNL     1      -5.433   2.999  25.576  0.00  0.00    +0.011 A 
ATOM     19  C   UNL     1      -4.712   3.053  25.178  0.00  0.00    +0.055 A 
ATOM     20 CL   UNL     1      -4.275   3.753  25.211  0.00  0.00    -0.083 Cl
ENDBRANCH  13  14
ENDBRANCH  12  13
ENDBRANCH   8  12
TORSDOF 7
ENDMDL
