REMARK  Name = 
REMARK  6 active torsions:
REMARK  status: ('A' for Active; 'I' for Inactive)
REMARK    1  A    between atoms: C_9  and  C_10
REMARK    2  A    between atoms: N_12  and  C_13
REMARK    3  A    between atoms: C_20  and  C_22
REMARK    4  A    between atoms: C_22  and  S_23
REMARK    5  A    between atoms: S_23  and  C_24
REMARK    6  A    between atoms: C_24  and  C_25
REMARK                            x       y       z     vdW  Elec       q    Type
REMARK                         _______ _______ _______ _____ _____    ______ ____
ROOT
ATOM      1  C   UNL     1      -5.001  -2.888   0.000  0.00  0.00    +0.095 C 
ATOM      2  C   UNL     1      -4.287  -2.475   0.000  0.00  0.00    +0.227 C 
ATOM      3  O   UNL     1      -4.287  -1.650   0.000  0.00  0.00    -0.275 OA
ATOM      4  N   UNL     1      -3.572  -2.888   0.000  0.00  0.00    -0.270 N 
ATOM      5  C   UNL     1      -2.858  -2.475   0.000  0.00  0.00    +0.115 C 
ATOM      6  C   UNL     1      -2.143  -2.888   0.000  0.00  0.00    +0.115 C 
ATOM      7  N   UNL     1      -2.143  -3.712   0.000  0.00  0.00    -0.275 N 
ATOM      8  C   UNL     1      -2.858  -4.125   0.000  0.00  0.00    +0.123 C 
ATOM      9  C   UNL     1      -3.572  -3.712   0.000  0.00  0.00    +0.174 C 
ATOM     20  C   UNL     1      -1.429  -4.125   0.000  0.00  0.00    +0.237 C 
ATOM     21  O   UNL     1      -1.429  -4.950   0.000  0.00  0.00    -0.274 OA
ENDROOT
BRANCH   9  10
ATOM     10  C   UNL     1      -4.287  -4.125   0.000  0.00  0.00    +0.262 C 
ATOM     11  O   UNL     1      -4.287  -4.950   0.000  0.00  0.00    -0.271 OA
ATOM     12  N   UNL     1      -5.001  -3.712   0.000  0.00  0.00    -0.196 NA
BRANCH  12  13
ATOM     13  C   UNL     1      -5.716  -4.125   0.000  0.00  0.00    +0.173 C 
ATOM     14  C   UNL     1      -5.716  -4.950   0.000  0.00  0.00    +0.033 C 
ATOM     15  C   UNL     1      -6.430  -5.362   0.000  0.00  0.00    +0.026 C 
ATOM     16  C   UNL     1      -7.145  -4.950   0.000  0.00  0.00    +0.115 C 
ATOM     17  N   UNL     1      -7.145  -4.125   0.000  0.00  0.00    -0.204 NA
ATOM     18  C   UNL     1      -6.430  -3.712   0.000  0.00  0.00    +0.261 C 
ATOM     19  O   UNL     1      -6.430  -2.888   0.000  0.00  0.00    -0.271 OA
ENDBRANCH  12  13
ENDBRANCH   9  10
BRANCH  20  22
ATOM     22  C   UNL     1      -0.715  -3.712   0.000  0.00  0.00    +0.143 C 
BRANCH  22  23
ATOM     23  S   UNL     1       0.000  -4.125   0.000  0.00  0.00    -0.119 S 
BRANCH  23  24
ATOM     24  C   UNL     1       0.715  -3.712   0.000  0.00  0.00    +0.172 C 
BRANCH  24  25
ATOM     25  C   UNL     1       1.429  -4.125   0.000  0.00  0.00    +0.376 C 
ATOM     26  O   UNL     1       2.143  -3.712   0.000  0.00  0.00    -0.245 OA
ATOM     27  O   UNL     1       1.429  -4.950   0.000  0.00  0.00    -0.245 OA
ENDBRANCH  24  25
ENDBRANCH  23  24
ENDBRANCH  22  23
ENDBRANCH  20  22
TORSDOF 6
