REMARK  Name = 
REMARK  3 active torsions:
REMARK  status: ('A' for Active; 'I' for Inactive)
REMARK    1  A    between atoms: C_2  and  N_4
REMARK    2  A    between atoms: C_9  and  C_10
REMARK    3  A    between atoms: C_12  and  C_15
REMARK                            x       y       z     vdW  Elec       q    Type
REMARK                         _______ _______ _______ _____ _____    ______ ____
ROOT
ATOM     10  C   UNL     1       0.715  -1.238   0.000  0.00  0.00    +0.156 A 
ATOM     11  N   UNL     1       1.382  -1.722   0.000  0.00  0.00    -0.228 NA
ATOM     12  C   UNL     1       1.127  -2.507   0.000  0.00  0.00    +0.102 A 
ATOM     13  C   UNL     1       0.302  -2.507   0.000  0.00  0.00    +0.119 A 
ATOM     14  N   UNL     1       0.047  -1.722   0.000  0.00  0.00    -0.226 NA
ENDROOT
BRANCH  10   9
ATOM      4  N   UNL     1       0.000   0.000   0.000  0.00  0.00    -0.265 NA
ATOM      5  C   UNL     1       0.000   0.825   0.000  0.00  0.00    +0.105 C 
ATOM      6  C   UNL     1       0.715   1.238   0.000  0.00  0.00    +0.160 C 
ATOM      7  O   UNL     1       1.429   0.825   0.000  0.00  0.00    -0.350 OA
ATOM      8  C   UNL     1       1.429   0.000   0.000  0.00  0.00    +0.166 C 
ATOM      9  C   UNL     1       0.715  -0.412   0.000  0.00  0.00    +0.147 C 
BRANCH   4   2
ATOM      1  C   UNL     1      -1.429   0.000   0.000  0.00  0.00    +0.017 C 
ATOM      2  C   UNL     1      -0.715  -0.412   0.000  0.00  0.00    +0.058 C 
ATOM      3  C   UNL     1      -0.715  -1.238   0.000  0.00  0.00    +0.017 C 
ENDBRANCH   4   2
ENDBRANCH  10   9
BRANCH  12  15
ATOM     15  C   UNL     1       1.612  -3.175   0.000  0.00  0.00    +0.019 A 
ATOM     16  C   UNL     1       2.432  -3.088   0.000  0.00  0.00    +0.002 A 
ATOM     17  C   UNL     1       2.917  -3.756   0.000  0.00  0.00    +0.000 A 
ATOM     18  C   UNL     1       2.582  -4.509   0.000  0.00  0.00    +0.000 A 
ATOM     19  C   UNL     1       1.761  -4.596   0.000  0.00  0.00    +0.000 A 
ATOM     20  C   UNL     1       1.276  -3.928   0.000  0.00  0.00    +0.002 A 
ENDBRANCH  12  15
TORSDOF 3
