REMARK  Name = 
REMARK  7 active torsions:
REMARK  status: ('A' for Active; 'I' for Inactive)
REMARK    1  A    between atoms: C_3  and  N_18
REMARK    2  A    between atoms: C_6  and  C_7
REMARK    3  A    between atoms: C_7  and  N_8
REMARK    4  A    between atoms: N_8  and  S_9
REMARK    5  A    between atoms: S_9  and  C_12
REMARK    6  A    between atoms: N_18  and  C_19
REMARK    7  A    between atoms: C_19  and  C_20
REMARK                            x       y       z     vdW  Elec       q    Type
REMARK                         _______ _______ _______ _____ _____    ______ ____
ROOT
ATOM      1  O   UNL     1       1.429  -2.475   0.000  0.00  0.00    -0.219 OA
ATOM      2  C   UNL     1       1.429  -3.300   0.000  0.00  0.00    +0.199 C 
ATOM      3  C   UNL     1       2.096  -3.785   0.000  0.00  0.00    +0.136 C 
ATOM      4  C   UNL     1       1.841  -4.569   0.000  0.00  0.00    +0.162 C 
ATOM      5  O   UNL     1       1.016  -4.569   0.000  0.00  0.00    -0.350 OA
ATOM      6  C   UNL     1       0.761  -3.785   0.000  0.00  0.00    +0.166 C 
ENDROOT
BRANCH   6   7
ATOM      7  C   UNL     1      -0.023  -3.530   0.000  0.00  0.00    +0.148 C 
BRANCH   7   8
ATOM      8  N   UNL     1      -0.636  -4.082   0.000  0.00  0.00    -0.075 NA
BRANCH   8   9
ATOM      9  S   UNL     1      -1.421  -3.827   0.000  0.00  0.00    +0.077 S 
ATOM     10  O   UNL     1      -1.676  -4.612   0.000  0.00  0.00    -0.152 OA
ATOM     11  O   UNL     1      -1.166  -3.042   0.000  0.00  0.00    -0.152 OA
BRANCH   9  12
ATOM     12  C   UNL     1      -2.205  -3.572   0.000  0.00  0.00    +0.124 A 
ATOM     13  C   UNL     1      -2.819  -4.124   0.000  0.00  0.00    +0.020 A 
ATOM     14  C   UNL     1      -3.603  -3.869   0.000  0.00  0.00    +0.001 A 
ATOM     15  C   UNL     1      -3.775  -3.062   0.000  0.00  0.00    +0.000 A 
ATOM     16  C   UNL     1      -3.162  -2.510   0.000  0.00  0.00    +0.001 A 
ATOM     17  C   UNL     1      -2.377  -2.765   0.000  0.00  0.00    +0.020 A 
ENDBRANCH   9  12
ENDBRANCH   8   9
ENDBRANCH   7   8
ENDBRANCH   6   7
BRANCH   3  18
ATOM     18  N   UNL     1       2.881  -3.530   0.000  0.00  0.00    -0.206 NA
BRANCH  18  19
ATOM     19  C   UNL     1       3.053  -2.723   0.000  0.00  0.00    +0.154 C 
BRANCH  19  20
ATOM     20  C   UNL     1       3.837  -2.468   0.000  0.00  0.00    +0.157 A 
ATOM     21  N   UNL     1       4.092  -1.683   0.000  0.00  0.00    -0.226 NA
ATOM     22  C   UNL     1       4.917  -1.683   0.000  0.00  0.00    +0.121 A 
ATOM     23  C   UNL     1       5.172  -2.468   0.000  0.00  0.00    +0.121 A 
ATOM     24  N   UNL     1       4.505  -2.953   0.000  0.00  0.00    -0.226 NA
ENDBRANCH  19  20
ENDBRANCH  18  19
ENDBRANCH   3  18
TORSDOF 7
