MODEL 1
REMARK VINA RESULT:     -12.9      0.000      0.000
REMARK  Name = 
REMARK  6 active torsions:
REMARK  status: ('A' for Active; 'I' for Inactive)
REMARK    1  A    between atoms: C_2  and  C_4
REMARK    2  A    between atoms: C_4  and  C_5
REMARK    3  A    between atoms: C_5  and  C_6
REMARK    4  A    between atoms: C_17  and  N_18
REMARK    5  A    between atoms: N_18  and  S_19
REMARK    6  A    between atoms: S_19  and  C_22
REMARK                            x       y       z     vdW  Elec       q    Type
REMARK                         _______ _______ _______ _____ _____    ______ ____
ROOT
ATOM      6  C   UNL     1      -3.194   2.860  24.929  0.00  0.00    +0.226 C 
ATOM      7  O   UNL     1      -3.201   2.045  24.795  0.00  0.00    -0.275 OA
ATOM      8  N   UNL     1      -3.884   3.244  25.167  0.00  0.00    -0.279 N 
ATOM      9  C   UNL     1      -4.387   3.870  25.399  0.00  0.00    +0.095 C 
ATOM     10  C   UNL     1      -5.228   3.367  25.527  0.00  0.00    +0.043 C 
ATOM     11  C   UNL     1      -5.985   3.105  25.674  0.00  0.00    +0.011 C 
ATOM     12  C   UNL     1      -5.371   2.831  25.474  0.00  0.00    +0.058 C 
ATOM     13  C   UNL     1      -4.566   3.331  25.354  0.00  0.00    +0.099 C 
ATOM     14  C   UNL     1      -4.980   2.033  25.242  0.00  0.00    +0.041 A 
ATOM     15  C   UNL     1      -5.160   1.233  25.154  0.00  0.00    +0.014 A 
ATOM     16  C   UNL     1      -4.574   0.702  24.917  0.00  0.00    +0.024 A 
ATOM     17  C   UNL     1      -3.809   0.971  24.769  0.00  0.00    +0.147 A 
ATOM     27  C   UNL     1      -3.628   1.771  24.857  0.00  0.00    +0.277 A 
ATOM     28  O   UNL     1      -2.828   1.790  24.658  0.00  0.00    -0.266 OA
ATOM     29  N   UNL     1      -4.214   2.302  25.093  0.00  0.00    -0.298 N 
ATOM     30  C   UNL     1      -4.811   2.538  25.283  0.00  0.00    +0.110 C 
ENDROOT
BRANCH   6   5
ATOM      5  C   UNL     1      -2.498   3.289  24.825  0.00  0.00    +0.097 C 
BRANCH   5   4
ATOM      4  C   UNL     1      -2.015   3.456  25.472  0.00  0.00    +0.124 C 
BRANCH   4   2
ATOM      1  O   UNL     1      -1.302   4.641  25.114  0.00  0.00    -0.246 OA
ATOM      2  C   UNL     1      -1.302   3.856  25.363  0.00  0.00    +0.365 C 
ATOM      3  O   UNL     1      -0.587   3.468  25.503  0.00  0.00    -0.246 OA
ENDBRANCH   4   2
ENDBRANCH   5   4
ENDBRANCH   6   5
BRANCH  17  18
ATOM     18  N   UNL     1      -3.224   0.439  24.533  0.00  0.00    -0.091 NA
BRANCH  18  19
ATOM     19  S   UNL     1      -3.391  -0.367  24.493  0.00  0.00    +0.099 S 
ATOM     20  O   UNL     1      -3.639  -0.277  23.711  0.00  0.00    -0.148 OA
ATOM     21  O   UNL     1      -3.143  -0.457  25.275  0.00  0.00    -0.148 OA
BRANCH  19  22
ATOM     22  C   UNL     1      -3.558  -1.175  24.454  0.00  0.00    +0.156 A 
ATOM     23  C   UNL     1      -4.028  -1.545  23.887  0.00  0.00    +0.027 A 
ATOM     24  C   UNL     1      -4.044  -2.353  24.058  0.00  0.00    +0.009 A 
ATOM     25  C   UNL     1      -3.584  -2.480  24.730  0.00  0.00    +0.037 A 
ATOM     26  S   UNL     1      -3.282  -1.752  24.975  0.00  0.00    -0.066 S 
ENDBRANCH  19  22
ENDBRANCH  18  19
ENDBRANCH  17  18
TORSDOF 6
ENDMDL
MODEL 2
REMARK VINA RESULT:     -11.6      1.959      4.112
REMARK  Name = 
REMARK  6 active torsions:
REMARK  status: ('A' for Active; 'I' for Inactive)
REMARK    1  A    between atoms: C_2  and  C_4
REMARK    2  A    between atoms: C_4  and  C_5
REMARK    3  A    between atoms: C_5  and  C_6
REMARK    4  A    between atoms: C_17  and  N_18
REMARK    5  A    between atoms: N_18  and  S_19
REMARK    6  A    between atoms: S_19  and  C_22
REMARK                            x       y       z     vdW  Elec       q    Type
REMARK                         _______ _______ _______ _____ _____    ______ ____
ROOT
ATOM      6  C   UNL     1      -1.638  -0.400  24.513  0.00  0.00    +0.226 C 
ATOM      7  O   UNL     1      -2.228   0.178  24.530  0.00  0.00    -0.275 OA
ATOM      8  N   UNL     1      -1.840  -1.198  24.581  0.00  0.00    -0.279 N 
ATOM      9  C   UNL     1      -1.740  -2.026  24.624  0.00  0.00    +0.095 C 
ATOM     10  C   UNL     1      -2.683  -2.302  24.728  0.00  0.00    +0.043 C 
ATOM     11  C   UNL     1      -3.395  -2.687  24.816  0.00  0.00    +0.011 C 
ATOM     12  C   UNL     1      -3.167  -2.026  24.754  0.00  0.00    +0.058 C 
ATOM     13  C   UNL     1      -2.251  -1.775  24.655  0.00  0.00    +0.099 C 
ATOM     14  C   UNL     1      -3.468  -1.158  24.727  0.00  0.00    +0.041 A 
ATOM     15  C   UNL     1      -4.167  -0.722  24.763  0.00  0.00    +0.014 A 
ATOM     16  C   UNL     1      -4.143   0.101  24.709  0.00  0.00    +0.024 A 
ATOM     17  C   UNL     1      -3.419   0.487  24.619  0.00  0.00    +0.147 A 
ATOM     27  C   UNL     1      -2.720   0.051  24.583  0.00  0.00    +0.277 A 
ATOM     28  O   UNL     1      -2.153   0.642  24.494  0.00  0.00    -0.266 OA
ATOM     29  N   UNL     1      -2.745  -0.772  24.637  0.00  0.00    -0.298 N 
ATOM     30  C   UNL     1      -2.989  -1.392  24.698  0.00  0.00    +0.110 C 
ENDROOT
BRANCH   6   5
ATOM      5  C   UNL     1      -0.848  -0.181  24.427  0.00  0.00    +0.097 C 
BRANCH   5   4
ATOM      4  C   UNL     1      -0.555   0.026  23.685  0.00  0.00    +0.124 C 
BRANCH   4   2
ATOM      1  O   UNL     1       0.566   0.883  23.910  0.00  0.00    -0.246 OA
ATOM      2  C   UNL     1       0.247   0.194  23.590  0.00  0.00    +0.365 C 
ATOM      3  O   UNL     1       0.731  -0.329  23.173  0.00  0.00    -0.246 OA
ENDBRANCH   4   2
ENDBRANCH   5   4
ENDBRANCH   6   5
BRANCH  17  18
ATOM     18  N   UNL     1      -3.396   1.310  24.565  0.00  0.00    -0.091 NA
BRANCH  18  19
ATOM     19  S   UNL     1      -4.048   1.758  24.798  0.00  0.00    +0.099 S 
ATOM     20  O   UNL     1      -4.335   1.742  24.025  0.00  0.00    -0.148 OA
ATOM     21  O   UNL     1      -3.761   1.773  25.571  0.00  0.00    -0.148 OA
BRANCH  19  22
ATOM     22  C   UNL     1      -4.700   2.206  25.032  0.00  0.00    +0.156 A 
ATOM     23  C   UNL     1      -5.492   2.002  24.926  0.00  0.00    +0.027 A 
ATOM     24  C   UNL     1      -5.956   2.607  25.242  0.00  0.00    +0.009 A 
ATOM     25  C   UNL     1      -5.450   3.185  25.543  0.00  0.00    +0.037 A 
ATOM     26  S   UNL     1      -4.673   2.937  25.414  0.00  0.00    -0.066 S 
ENDBRANCH  19  22
ENDBRANCH  18  19
ENDBRANCH  17  18
TORSDOF 6
ENDMDL
MODEL 3
REMARK VINA RESULT:     -11.6      1.827      3.134
REMARK  Name = 
REMARK  6 active torsions:
REMARK  status: ('A' for Active; 'I' for Inactive)
REMARK    1  A    between atoms: C_2  and  C_4
REMARK    2  A    between atoms: C_4  and  C_5
REMARK    3  A    between atoms: C_5  and  C_6
REMARK    4  A    between atoms: C_17  and  N_18
REMARK    5  A    between atoms: N_18  and  S_19
REMARK    6  A    between atoms: S_19  and  C_22
REMARK                            x       y       z     vdW  Elec       q    Type
REMARK                         _______ _______ _______ _____ _____    ______ ____
ROOT
ATOM      6  C   UNL     1      -3.303   3.208  24.981  0.00  0.00    +0.226 C 
ATOM      7  O   UNL     1      -2.948   2.463  24.952  0.00  0.00    -0.275 OA
ATOM      8  N   UNL     1      -2.835   3.884  25.055  0.00  0.00    -0.279 N 
ATOM      9  C   UNL     1      -2.643   4.694  25.122  0.00  0.00    +0.095 C 
ATOM     10  C   UNL     1      -1.658   4.626  25.177  0.00  0.00    +0.043 C 
ATOM     11  C   UNL     1      -0.854   4.740  25.233  0.00  0.00    +0.011 C 
ATOM     12  C   UNL     1      -1.298   4.200  25.170  0.00  0.00    +0.058 C 
ATOM     13  C   UNL     1      -2.248   4.283  25.118  0.00  0.00    +0.099 C 
ATOM     14  C   UNL     1      -1.315   3.284  25.107  0.00  0.00    +0.041 A 
ATOM     15  C   UNL     1      -0.809   2.633  25.093  0.00  0.00    +0.014 A 
ATOM     16  C   UNL     1      -1.118   1.871  25.023  0.00  0.00    +0.024 A 
ATOM     17  C   UNL     1      -1.933   1.760  24.966  0.00  0.00    +0.147 A 
ATOM     27  C   UNL     1      -2.440   2.411  24.979  0.00  0.00    +0.277 A 
ATOM     28  O   UNL     1      -3.180   2.054  24.910  0.00  0.00    -0.266 OA
ATOM     29  N   UNL     1      -2.131   3.173  25.050  0.00  0.00    -0.298 N 
ATOM     30  C   UNL     1      -1.686   3.669  25.110  0.00  0.00    +0.110 C 
ENDROOT
BRANCH   6   5
ATOM      5  C   UNL     1      -4.123   3.276  24.936  0.00  0.00    +0.097 C 
BRANCH   5   4
ATOM      4  C   UNL     1      -4.583   3.179  25.613  0.00  0.00    +0.124 C 
BRANCH   4   2
ATOM      1  O   UNL     1      -5.872   2.620  25.353  0.00  0.00    -0.246 OA
ATOM      2  C   UNL     1      -5.403   3.262  25.570  0.00  0.00    +0.365 C 
ATOM      3  O   UNL     1      -5.753   3.988  25.746  0.00  0.00    -0.246 OA
ENDBRANCH   4   2
ENDBRANCH   5   4
ENDBRANCH   6   5
BRANCH  17  18
ATOM     18  N   UNL     1      -2.241   0.999  24.896  0.00  0.00    -0.091 NA
BRANCH  18  19
ATOM     19  S   UNL     1      -1.737   0.346  24.919  0.00  0.00    +0.099 S 
ATOM     20  O   UNL     1      -1.828   0.305  25.738  0.00  0.00    -0.148 OA
ATOM     21  O   UNL     1      -1.646   0.387  24.100  0.00  0.00    -0.148 OA
BRANCH  19  22
ATOM     22  C   UNL     1      -1.233  -0.307  24.942  0.00  0.00    +0.156 A 
ATOM     23  C   UNL     1      -1.118  -0.808  25.586  0.00  0.00    +0.027 A 
ATOM     24  C   UNL     1      -0.569  -1.384  25.366  0.00  0.00    +0.009 A 
ATOM     25  C   UNL     1      -0.346  -1.239  24.585  0.00  0.00    +0.037 A 
ATOM     26  S   UNL     1      -0.757  -0.573  24.322  0.00  0.00    -0.066 S 
ENDBRANCH  19  22
ENDBRANCH  18  19
ENDBRANCH  17  18
TORSDOF 6
ENDMDL
MODEL 4
REMARK VINA RESULT:     -11.5      1.271      2.541
REMARK  Name = 
REMARK  6 active torsions:
REMARK  status: ('A' for Active; 'I' for Inactive)
REMARK    1  A    between atoms: C_2  and  C_4
REMARK    2  A    between atoms: C_4  and  C_5
REMARK    3  A    between atoms: C_5  and  C_6
REMARK    4  A    between atoms: C_17  and  N_18
REMARK    5  A    between atoms: N_18  and  S_19
REMARK    6  A    between atoms: S_19  and  C_22
REMARK                            x       y       z     vdW  Elec       q    Type
REMARK                         _______ _______ _______ _____ _____    ______ ____
ROOT
ATOM      6  C   UNL     1      -3.666   2.591  24.961  0.00  0.00    +0.226 C 
ATOM      7  O   UNL     1      -3.752   1.776  24.866  0.00  0.00    -0.275 OA
ATOM      8  N   UNL     1      -2.913   2.919  25.049  0.00  0.00    -0.279 N 
ATOM      9  C   UNL     1      -2.326   3.504  25.153  0.00  0.00    +0.095 C 
ATOM     10  C   UNL     1      -1.520   2.931  25.145  0.00  0.00    +0.043 C 
ATOM     11  C   UNL     1      -0.773   2.607  25.160  0.00  0.00    +0.011 C 
ATOM     12  C   UNL     1      -1.435   2.383  25.090  0.00  0.00    +0.058 C 
ATOM     13  C   UNL     1      -2.204   2.949  25.101  0.00  0.00    +0.099 C 
ATOM     14  C   UNL     1      -1.928   1.617  24.972  0.00  0.00    +0.041 A 
ATOM     15  C   UNL     1      -1.834   0.801  24.889  0.00  0.00    +0.014 A 
ATOM     16  C   UNL     1      -2.496   0.319  24.790  0.00  0.00    +0.024 A 
ATOM     17  C   UNL     1      -3.251   0.651  24.776  0.00  0.00    +0.147 A 
ATOM     27  C   UNL     1      -3.344   1.466  24.859  0.00  0.00    +0.277 A 
ATOM     28  O   UNL     1      -4.163   1.551  24.813  0.00  0.00    -0.266 OA
ATOM     29  N   UNL     1      -2.683   1.949  24.958  0.00  0.00    -0.298 N 
ATOM     30  C   UNL     1      -2.043   2.136  25.022  0.00  0.00    +0.110 C 
ENDROOT
BRANCH   6   5
ATOM      5  C   UNL     1      -4.331   3.078  24.970  0.00  0.00    +0.097 C 
BRANCH   5   4
ATOM      4  C   UNL     1      -4.720   3.234  25.680  0.00  0.00    +0.124 C 
BRANCH   4   2
ATOM      1  O   UNL     1      -6.104   3.302  26.029  0.00  0.00    -0.246 OA
ATOM      2  C   UNL     1      -5.438   3.639  25.677  0.00  0.00    +0.365 C 
ATOM      3  O   UNL     1      -5.491   4.382  25.322  0.00  0.00    -0.246 OA
ENDBRANCH   4   2
ENDBRANCH   5   4
ENDBRANCH   6   5
BRANCH  17  18
ATOM     18  N   UNL     1      -3.911   0.167  24.677  0.00  0.00    -0.091 NA
BRANCH  18  19
ATOM     19  S   UNL     1      -3.823  -0.652  24.651  0.00  0.00    +0.099 S 
ATOM     20  O   UNL     1      -3.746  -0.617  23.830  0.00  0.00    -0.148 OA
ATOM     21  O   UNL     1      -3.900  -0.687  25.471  0.00  0.00    -0.148 OA
BRANCH  19  22
ATOM     22  C   UNL     1      -3.735  -1.473  24.625  0.00  0.00    +0.156 A 
ATOM     23  C   UNL     1      -3.437  -1.947  25.229  0.00  0.00    +0.027 A 
ATOM     24  C   UNL     1      -3.447  -2.730  24.967  0.00  0.00    +0.009 A 
ATOM     25  C   UNL     1      -3.752  -2.738  24.201  0.00  0.00    +0.037 A 
ATOM     26  S   UNL     1      -3.930  -1.960  23.989  0.00  0.00    -0.066 S 
ENDBRANCH  19  22
ENDBRANCH  18  19
ENDBRANCH  17  18
TORSDOF 6
ENDMDL
MODEL 5
REMARK VINA RESULT:     -11.4      1.478      4.061
REMARK  Name = 
REMARK  6 active torsions:
REMARK  status: ('A' for Active; 'I' for Inactive)
REMARK    1  A    between atoms: C_2  and  C_4
REMARK    2  A    between atoms: C_4  and  C_5
REMARK    3  A    between atoms: C_5  and  C_6
REMARK    4  A    between atoms: C_17  and  N_18
REMARK    5  A    between atoms: N_18  and  S_19
REMARK    6  A    between atoms: S_19  and  C_22
REMARK                            x       y       z     vdW  Elec       q    Type
REMARK                         _______ _______ _______ _____ _____    ______ ____
ROOT
ATOM      6  C   UNL     1      -4.067   0.664  24.959  0.00  0.00    +0.226 C 
ATOM      7  O   UNL     1      -3.472   1.236  24.938  0.00  0.00    -0.275 OA
ATOM      8  N   UNL     1      -4.857   0.894  25.024  0.00  0.00    -0.279 N 
ATOM      9  C   UNL     1      -5.688   0.821  25.080  0.00  0.00    +0.095 C 
ATOM     10  C   UNL     1      -5.934   1.776  25.134  0.00  0.00    +0.043 C 
ATOM     11  C   UNL     1      -6.297   2.504  25.187  0.00  0.00    +0.011 C 
ATOM     12  C   UNL     1      -5.644   2.252  25.131  0.00  0.00    +0.058 C 
ATOM     13  C   UNL     1      -5.421   1.325  25.080  0.00  0.00    +0.099 C 
ATOM     14  C   UNL     1      -4.768   2.526  25.080  0.00  0.00    +0.041 A 
ATOM     15  C   UNL     1      -4.310   3.212  25.073  0.00  0.00    +0.014 A 
ATOM     16  C   UNL     1      -3.489   3.159  25.013  0.00  0.00    +0.024 A 
ATOM     17  C   UNL     1      -3.126   2.421  24.959  0.00  0.00    +0.147 A 
ATOM     27  C   UNL     1      -3.583   1.734  24.965  0.00  0.00    +0.277 A 
ATOM     28  O   UNL     1      -3.010   1.145  24.902  0.00  0.00    -0.266 OA
ATOM     29  N   UNL     1      -4.404   1.787  25.026  0.00  0.00    -0.298 N 
ATOM     30  C   UNL     1      -5.016   2.052  25.079  0.00  0.00    +0.110 C 
ENDROOT
BRANCH   6   5
ATOM      5  C   UNL     1      -3.873  -0.136  24.915  0.00  0.00    +0.097 C 
BRANCH   5   4
ATOM      4  C   UNL     1      -3.824  -0.509  24.181  0.00  0.00    +0.124 C 
BRANCH   4   2
ATOM      1  O   UNL     1      -3.099  -1.695  24.509  0.00  0.00    -0.246 OA
ATOM      2  C   UNL     1      -3.738  -1.328  24.139  0.00  0.00    +0.365 C 
ATOM      3  O   UNL     1      -4.291  -1.781  23.727  0.00  0.00    -0.246 OA
ENDBRANCH   4   2
ENDBRANCH   5   4
ENDBRANCH   6   5
BRANCH  17  18
ATOM     18  N   UNL     1      -2.305   2.369  24.899  0.00  0.00    -0.091 NA
BRANCH  18  19
ATOM     19  S   UNL     1      -1.848   3.056  24.889  0.00  0.00    +0.099 S 
ATOM     20  O   UNL     1      -1.795   3.032  25.712  0.00  0.00    -0.148 OA
ATOM     21  O   UNL     1      -1.901   3.079  24.066  0.00  0.00    -0.148 OA
BRANCH  19  22
ATOM     22  C   UNL     1      -1.390   3.743  24.879  0.00  0.00    +0.156 A 
ATOM     23  C   UNL     1      -1.584   4.459  25.236  0.00  0.00    +0.027 A 
ATOM     24  C   UNL     1      -0.972   4.993  25.087  0.00  0.00    +0.009 A 
ATOM     25  C   UNL     1      -0.400   4.604  24.637  0.00  0.00    +0.037 A 
ATOM     26  S   UNL     1      -0.658   3.831  24.508  0.00  0.00    -0.066 S 
ENDBRANCH  19  22
ENDBRANCH  18  19
ENDBRANCH  17  18
TORSDOF 6
ENDMDL
