MODEL 1
REMARK VINA RESULT:     -11.0      0.000      0.000
REMARK  Name = 
REMARK  5 active torsions:
REMARK  status: ('A' for Active; 'I' for Inactive)
REMARK    1  A    between atoms: C_5  and  S_8
REMARK    2  A    between atoms: S_8  and  N_11
REMARK    3  A    between atoms: C_16  and  C_17
REMARK    4  A    between atoms: N_19  and  C_20
REMARK    5  A    between atoms: N_29  and  C_30
REMARK                            x       y       z     vdW  Elec       q    Type
REMARK                         _______ _______ _______ _____ _____    ______ ____
ROOT
ATOM     11  N   UNL     1      -2.270   1.795  24.748  0.00  0.00    -0.145 NA
ATOM     12  C   UNL     1      -1.797   1.118  24.747  0.00  0.00    +0.118 C 
ATOM     13  C   UNL     1      -2.144   0.373  24.687  0.00  0.00    +0.114 C 
ATOM     14  N   UNL     1      -2.964   0.303  24.626  0.00  0.00    -0.259 N 
ATOM     15  C   UNL     1      -3.436   0.979  24.626  0.00  0.00    +0.122 C 
ATOM     16  C   UNL     1      -3.089   1.724  24.687  0.00  0.00    +0.177 C 
ATOM     27  C   UNL     1      -3.311  -0.443  24.565  0.00  0.00    +0.328 C 
ATOM     28  O   UNL     1      -4.130  -0.514  24.504  0.00  0.00    -0.250 OA
ATOM     29  N   UNL     1      -2.839  -1.120  24.564  0.00  0.00    -0.162 NA
ENDROOT
BRANCH  29  30
ATOM     30  C   UNL     1      -3.185  -1.865  24.504  0.00  0.00    +0.075 A 
ATOM     31  C   UNL     1      -3.624  -2.062  23.833  0.00  0.00    +0.017 A 
ATOM     32  C   UNL     1      -3.971  -2.808  23.772  0.00  0.00    +0.001 A 
ATOM     33  C   UNL     1      -3.880  -3.357  24.382  0.00  0.00    +0.000 A 
ATOM     34  C   UNL     1      -3.441  -3.160  25.051  0.00  0.00    +0.001 A 
ATOM     35  C   UNL     1      -3.094  -2.414  25.112  0.00  0.00    +0.017 A 
ENDBRANCH  29  30
BRANCH  11   8
ATOM      8  S   UNL     1      -1.922   2.541  24.809  0.00  0.00    +0.064 S 
ATOM      9  O   UNL     1      -1.911   2.603  23.986  0.00  0.00    -0.153 OA
ATOM     10  O   UNL     1      -1.934   2.479  25.631  0.00  0.00    -0.153 OA
BRANCH   8   5
ATOM      1  F   UNL     1      -0.534   5.525  25.053  0.00  0.00    -0.204 F 
ATOM      2  C   UNL     1      -0.881   4.779  24.992  0.00  0.00    +0.140 A 
ATOM      3  C   UNL     1      -0.888   4.384  24.267  0.00  0.00    +0.031 A 
ATOM      4  C   UNL     1      -1.236   3.638  24.206  0.00  0.00    +0.022 A 
ATOM      5  C   UNL     1      -1.575   3.287  24.870  0.00  0.00    +0.122 A 
ATOM      6  C   UNL     1      -1.569   3.680  25.594  0.00  0.00    +0.022 A 
ATOM      7  C   UNL     1      -1.222   4.426  25.655  0.00  0.00    +0.031 A 
ENDBRANCH   8   5
ENDBRANCH  11   8
BRANCH  16  17
ATOM     17  C   UNL     1      -3.562   2.401  24.688  0.00  0.00    +0.260 C 
ATOM     18  O   UNL     1      -3.435   2.994  24.128  0.00  0.00    -0.272 OA
ATOM     19  N   UNL     1      -4.163   2.484  25.248  0.00  0.00    -0.197 NA
BRANCH  19  20
ATOM     20  C   UNL     1      -4.635   3.161  25.248  0.00  0.00    +0.173 C 
ATOM     21  C   UNL     1      -4.636   3.661  24.593  0.00  0.00    +0.033 C 
ATOM     22  C   UNL     1      -5.109   4.339  24.592  0.00  0.00    +0.026 C 
ATOM     23  C   UNL     1      -5.579   4.514  25.247  0.00  0.00    +0.115 C 
ATOM     24  N   UNL     1      -5.577   4.012  25.902  0.00  0.00    -0.204 NA
ATOM     25  C   UNL     1      -5.106   3.336  25.903  0.00  0.00    +0.261 C 
ATOM     26  O   UNL     1      -5.104   2.835  26.557  0.00  0.00    -0.271 OA
ENDBRANCH  19  20
ENDBRANCH  16  17
TORSDOF 5
ENDMDL
MODEL 2
REMARK VINA RESULT:     -10.4      3.351      5.032
REMARK  Name = 
REMARK  5 active torsions:
REMARK  status: ('A' for Active; 'I' for Inactive)
REMARK    1  A    between atoms: C_5  and  S_8
REMARK    2  A    between atoms: S_8  and  N_11
REMARK    3  A    between atoms: C_16  and  C_17
REMARK    4  A    between atoms: N_19  and  C_20
REMARK    5  A    between atoms: N_29  and  C_30
REMARK                            x       y       z     vdW  Elec       q    Type
REMARK                         _______ _______ _______ _____ _____    ______ ____
ROOT
ATOM     11  N   UNL     1      -0.806  -0.198  24.338  0.00  0.00    -0.145 NA
ATOM     12  C   UNL     1      -0.266  -0.761  24.070  0.00  0.00    +0.118 C 
ATOM     13  C   UNL     1       0.452  -0.522  23.743  0.00  0.00    +0.114 C 
ATOM     14  N   UNL     1       0.631   0.281  23.684  0.00  0.00    -0.259 N 
ATOM     15  C   UNL     1       0.091   0.844  23.952  0.00  0.00    +0.122 C 
ATOM     16  C   UNL     1      -0.627   0.605  24.278  0.00  0.00    +0.177 C 
ATOM     27  C   UNL     1       1.349   0.521  23.357  0.00  0.00    +0.328 C 
ATOM     28  O   UNL     1       1.528   1.324  23.297  0.00  0.00    -0.250 OA
ATOM     29  N   UNL     1       1.890  -0.042  23.089  0.00  0.00    -0.162 NA
ENDROOT
BRANCH  29  30
ATOM     30  C   UNL     1       2.607   0.198  22.762  0.00  0.00    +0.075 A 
ATOM     31  C   UNL     1       3.203   0.497  23.249  0.00  0.00    +0.017 A 
ATOM     32  C   UNL     1       3.922   0.737  22.922  0.00  0.00    +0.001 A 
ATOM     33  C   UNL     1       4.045   0.678  22.108  0.00  0.00    +0.000 A 
ATOM     34  C   UNL     1       3.449   0.379  21.622  0.00  0.00    +0.001 A 
ATOM     35  C   UNL     1       2.731   0.139  21.949  0.00  0.00    +0.017 A 
ENDBRANCH  29  30
BRANCH  11   8
ATOM      8  S   UNL     1      -1.524  -0.438  24.665  0.00  0.00    +0.064 S 
ATOM      9  O   UNL     1      -1.194  -0.398  25.420  0.00  0.00    -0.153 OA
ATOM     10  O   UNL     1      -1.855  -0.479  23.910  0.00  0.00    -0.153 OA
BRANCH   8   5
ATOM      1  F   UNL     1      -4.398  -1.397  25.973  0.00  0.00    -0.204 F 
ATOM      2  C   UNL     1      -3.680  -1.158  25.646  0.00  0.00    +0.140 A 
ATOM      3  C   UNL     1      -3.612  -1.050  24.831  0.00  0.00    +0.031 A 
ATOM      4  C   UNL     1      -2.894  -0.810  24.504  0.00  0.00    +0.022 A 
ATOM      5  C   UNL     1      -2.243  -0.678  24.992  0.00  0.00    +0.122 A 
ATOM      6  C   UNL     1      -2.309  -0.785  25.807  0.00  0.00    +0.022 A 
ATOM      7  C   UNL     1      -3.027  -1.025  26.134  0.00  0.00    +0.031 A 
ENDBRANCH   8   5
ENDBRANCH  11   8
BRANCH  16  17
ATOM     17  C   UNL     1      -1.167   1.168  24.546  0.00  0.00    +0.260 C 
ATOM     18  O   UNL     1      -1.387   1.184  25.341  0.00  0.00    -0.272 OA
ATOM     19  N   UNL     1      -1.488   1.716  24.018  0.00  0.00    -0.197 NA
BRANCH  19  20
ATOM     20  C   UNL     1      -2.028   2.279  24.286  0.00  0.00    +0.173 C 
ATOM     21  C   UNL     1      -1.957   2.586  25.049  0.00  0.00    +0.033 C 
ATOM     22  C   UNL     1      -2.497   3.150  25.317  0.00  0.00    +0.026 C 
ATOM     23  C   UNL     1      -3.107   3.406  24.824  0.00  0.00    +0.115 C 
ATOM     24  N   UNL     1      -3.177   3.098  24.061  0.00  0.00    -0.204 NA
ATOM     25  C   UNL     1      -2.637   2.535  23.793  0.00  0.00    +0.261 C 
ATOM     26  O   UNL     1      -2.707   2.228  23.031  0.00  0.00    -0.271 OA
ENDBRANCH  19  20
ENDBRANCH  16  17
TORSDOF 5
ENDMDL
MODEL 3
REMARK VINA RESULT:      -9.9      2.351      5.977
REMARK  Name = 
REMARK  5 active torsions:
REMARK  status: ('A' for Active; 'I' for Inactive)
REMARK    1  A    between atoms: C_5  and  S_8
REMARK    2  A    between atoms: S_8  and  N_11
REMARK    3  A    between atoms: C_16  and  C_17
REMARK    4  A    between atoms: N_19  and  C_20
REMARK    5  A    between atoms: N_29  and  C_30
REMARK                            x       y       z     vdW  Elec       q    Type
REMARK                         _______ _______ _______ _____ _____    ______ ____
ROOT
ATOM     11  N   UNL     1      -2.952   0.764  24.525  0.00  0.00    -0.145 NA
ATOM     12  C   UNL     1      -3.347   1.459  24.320  0.00  0.00    +0.118 C 
ATOM     13  C   UNL     1      -2.990   2.190  24.452  0.00  0.00    +0.114 C 
ATOM     14  N   UNL     1      -2.238   2.228  24.788  0.00  0.00    -0.259 N 
ATOM     15  C   UNL     1      -1.843   1.533  24.993  0.00  0.00    +0.122 C 
ATOM     16  C   UNL     1      -2.200   0.802  24.861  0.00  0.00    +0.177 C 
ATOM     27  C   UNL     1      -1.881   2.960  24.920  0.00  0.00    +0.328 C 
ATOM     28  O   UNL     1      -1.129   2.998  25.256  0.00  0.00    -0.250 OA
ATOM     29  N   UNL     1      -2.276   3.655  24.716  0.00  0.00    -0.162 NA
ENDROOT
BRANCH  29  30
ATOM     30  C   UNL     1      -1.920   4.386  24.848  0.00  0.00    +0.075 A 
ATOM     31  C   UNL     1      -2.308   4.960  25.297  0.00  0.00    +0.017 A 
ATOM     32  C   UNL     1      -1.951   5.692  25.428  0.00  0.00    +0.001 A 
ATOM     33  C   UNL     1      -1.205   5.851  25.112  0.00  0.00    +0.000 A 
ATOM     34  C   UNL     1      -0.818   5.277  24.663  0.00  0.00    +0.001 A 
ATOM     35  C   UNL     1      -1.175   4.545  24.532  0.00  0.00    +0.017 A 
ENDBRANCH  29  30
BRANCH  11   8
ATOM      8  S   UNL     1      -3.309   0.032  24.393  0.00  0.00    +0.064 S 
ATOM      9  O   UNL     1      -3.569   0.018  25.175  0.00  0.00    -0.153 OA
ATOM     10  O   UNL     1      -3.048   0.046  23.610  0.00  0.00    -0.153 OA
BRANCH   8   5
ATOM      1  F   UNL     1      -4.736  -2.896  23.865  0.00  0.00    -0.204 F 
ATOM      2  C   UNL     1      -4.379  -2.164  23.997  0.00  0.00    +0.140 A 
ATOM      3  C   UNL     1      -4.357  -1.847  24.758  0.00  0.00    +0.031 A 
ATOM      4  C   UNL     1      -4.000  -1.115  24.890  0.00  0.00    +0.022 A 
ATOM      5  C   UNL     1      -3.666  -0.700  24.261  0.00  0.00    +0.122 A 
ATOM      6  C   UNL     1      -3.688  -1.017  23.500  0.00  0.00    +0.022 A 
ATOM      7  C   UNL     1      -4.044  -1.749  23.368  0.00  0.00    +0.031 A 
ENDBRANCH   8   5
ENDBRANCH  11   8
BRANCH  16  17
ATOM     17  C   UNL     1      -1.804   0.107  25.065  0.00  0.00    +0.260 C 
ATOM     18  O   UNL     1      -2.118  -0.392  25.643  0.00  0.00    -0.272 OA
ATOM     19  N   UNL     1      -1.094  -0.089  24.692  0.00  0.00    -0.197 NA
BRANCH  19  20
ATOM     20  C   UNL     1      -0.699  -0.784  24.897  0.00  0.00    +0.173 C 
ATOM     21  C   UNL     1      -0.825  -1.126  25.637  0.00  0.00    +0.033 C 
ATOM     22  C   UNL     1      -0.430  -1.821  25.842  0.00  0.00    +0.026 C 
ATOM     23  C   UNL     1       0.091  -2.173  25.307  0.00  0.00    +0.115 C 
ATOM     24  N   UNL     1       0.216  -1.830  24.568  0.00  0.00    -0.204 NA
ATOM     25  C   UNL     1      -0.179  -1.136  24.362  0.00  0.00    +0.261 C 
ATOM     26  O   UNL     1      -0.053  -0.793  23.623  0.00  0.00    -0.271 OA
ENDBRANCH  19  20
ENDBRANCH  16  17
TORSDOF 5
ENDMDL
MODEL 4
REMARK VINA RESULT:      -9.8      2.693      4.402
REMARK  Name = 
REMARK  5 active torsions:
REMARK  status: ('A' for Active; 'I' for Inactive)
REMARK    1  A    between atoms: C_5  and  S_8
REMARK    2  A    between atoms: S_8  and  N_11
REMARK    3  A    between atoms: C_16  and  C_17
REMARK    4  A    between atoms: N_19  and  C_20
REMARK    5  A    between atoms: N_29  and  C_30
REMARK                            x       y       z     vdW  Elec       q    Type
REMARK                         _______ _______ _______ _____ _____    ______ ____
ROOT
ATOM     11  N   UNL     1      -1.320   1.960  24.203  0.00  0.00    -0.145 NA
ATOM     12  C   UNL     1      -0.616   2.378  24.108  0.00  0.00    +0.118 C 
ATOM     13  C   UNL     1       0.062   1.991  23.843  0.00  0.00    +0.114 C 
ATOM     14  N   UNL     1       0.036   1.185  23.672  0.00  0.00    -0.259 N 
ATOM     15  C   UNL     1      -0.668   0.766  23.767  0.00  0.00    +0.122 C 
ATOM     16  C   UNL     1      -1.346   1.153  24.032  0.00  0.00    +0.177 C 
ATOM     27  C   UNL     1       0.715   0.797  23.407  0.00  0.00    +0.328 C 
ATOM     28  O   UNL     1       0.689  -0.009  23.236  0.00  0.00    -0.250 OA
ATOM     29  N   UNL     1       1.419   1.216  23.313  0.00  0.00    -0.162 NA
ENDROOT
BRANCH  29  30
ATOM     30  C   UNL     1       2.097   0.829  23.048  0.00  0.00    +0.075 A 
ATOM     31  C   UNL     1       2.842   1.090  23.288  0.00  0.00    +0.017 A 
ATOM     32  C   UNL     1       3.521   0.703  23.023  0.00  0.00    +0.001 A 
ATOM     33  C   UNL     1       3.454   0.054  22.517  0.00  0.00    +0.000 A 
ATOM     34  C   UNL     1       2.709  -0.207  22.277  0.00  0.00    +0.001 A 
ATOM     35  C   UNL     1       2.031   0.181  22.542  0.00  0.00    +0.017 A 
ENDBRANCH  29  30
BRANCH  11   8
ATOM      8  S   UNL     1      -1.999   2.347  24.468  0.00  0.00    +0.064 S 
ATOM      9  O   UNL     1      -2.237   2.465  23.687  0.00  0.00    -0.153 OA
ATOM     10  O   UNL     1      -1.761   2.229  25.249  0.00  0.00    -0.153 OA
BRANCH   8   5
ATOM      1  F   UNL     1      -4.712   3.897  25.529  0.00  0.00    -0.204 F 
ATOM      2  C   UNL     1      -4.034   3.510  25.264  0.00  0.00    +0.140 A 
ATOM      3  C   UNL     1      -3.464   3.257  25.805  0.00  0.00    +0.031 A 
ATOM      4  C   UNL     1      -2.786   2.869  25.539  0.00  0.00    +0.022 A 
ATOM      5  C   UNL     1      -2.677   2.735  24.733  0.00  0.00    +0.122 A 
ATOM      6  C   UNL     1      -3.245   2.987  24.192  0.00  0.00    +0.022 A 
ATOM      7  C   UNL     1      -3.924   3.375  24.458  0.00  0.00    +0.031 A 
ENDBRANCH   8   5
ENDBRANCH  11   8
BRANCH  16  17
ATOM     17  C   UNL     1      -2.050   0.734  24.126  0.00  0.00    +0.260 C 
ATOM     18  O   UNL     1      -2.723   0.958  23.705  0.00  0.00    -0.272 OA
ATOM     19  N   UNL     1      -2.082   0.090  24.643  0.00  0.00    -0.197 NA
BRANCH  19  20
ATOM     20  C   UNL     1      -2.786  -0.328  24.737  0.00  0.00    +0.173 C 
ATOM     21  C   UNL     1      -3.327  -0.368  24.115  0.00  0.00    +0.033 C 
ATOM     22  C   UNL     1      -4.032  -0.787  24.209  0.00  0.00    +0.026 C 
ATOM     23  C   UNL     1      -4.196  -1.166  24.924  0.00  0.00    +0.115 C 
ATOM     24  N   UNL     1      -3.654  -1.125  25.545  0.00  0.00    -0.204 NA
ATOM     25  C   UNL     1      -2.949  -0.707  25.452  0.00  0.00    +0.261 C 
ATOM     26  O   UNL     1      -2.408  -0.667  26.072  0.00  0.00    -0.271 OA
ENDBRANCH  19  20
ENDBRANCH  16  17
TORSDOF 5
ENDMDL
MODEL 5
REMARK VINA RESULT:      -8.9      1.295      2.789
REMARK  Name = 
REMARK  5 active torsions:
REMARK  status: ('A' for Active; 'I' for Inactive)
REMARK    1  A    between atoms: C_5  and  S_8
REMARK    2  A    between atoms: S_8  and  N_11
REMARK    3  A    between atoms: C_16  and  C_17
REMARK    4  A    between atoms: N_19  and  C_20
REMARK    5  A    between atoms: N_29  and  C_30
REMARK                            x       y       z     vdW  Elec       q    Type
REMARK                         _______ _______ _______ _____ _____    ______ ____
ROOT
ATOM     11  N   UNL     1      -4.281   1.648  24.897  0.00  0.00    -0.145 NA
ATOM     12  C   UNL     1      -4.809   1.019  24.981  0.00  0.00    +0.118 C 
ATOM     13  C   UNL     1      -4.549   0.245  24.871  0.00  0.00    +0.114 C 
ATOM     14  N   UNL     1      -3.761   0.098  24.676  0.00  0.00    -0.259 N 
ATOM     15  C   UNL     1      -3.234   0.726  24.592  0.00  0.00    +0.122 C 
ATOM     16  C   UNL     1      -3.494   1.500  24.702  0.00  0.00    +0.177 C 
ATOM     27  C   UNL     1      -3.501  -0.678  24.565  0.00  0.00    +0.328 C 
ATOM     28  O   UNL     1      -2.713  -0.825  24.370  0.00  0.00    -0.250 OA
ATOM     29  N   UNL     1      -4.029  -1.306  24.649  0.00  0.00    -0.162 NA
ENDROOT
BRANCH  29  30
ATOM     30  C   UNL     1      -3.769  -2.080  24.539  0.00  0.00    +0.075 A 
ATOM     31  C   UNL     1      -3.951  -2.481  23.840  0.00  0.00    +0.017 A 
ATOM     32  C   UNL     1      -3.691  -3.256  23.730  0.00  0.00    +0.001 A 
ATOM     33  C   UNL     1      -3.248  -3.631  24.317  0.00  0.00    +0.000 A 
ATOM     34  C   UNL     1      -3.067  -3.230  25.015  0.00  0.00    +0.001 A 
ATOM     35  C   UNL     1      -3.327  -2.455  25.126  0.00  0.00    +0.017 A 
ENDBRANCH  29  30
BRANCH  11   8
ATOM      8  S   UNL     1      -4.541   2.423  25.008  0.00  0.00    +0.064 S 
ATOM      9  O   UNL     1      -4.633   2.508  24.193  0.00  0.00    -0.153 OA
ATOM     10  O   UNL     1      -4.450   2.337  25.823  0.00  0.00    -0.153 OA
BRANCH   8   5
ATOM      1  F   UNL     1      -5.582   5.523  25.451  0.00  0.00    -0.204 F 
ATOM      2  C   UNL     1      -5.322   4.748  25.340  0.00  0.00    +0.140 A 
ATOM      3  C   UNL     1      -5.099   4.490  24.589  0.00  0.00    +0.031 A 
ATOM      4  C   UNL     1      -4.839   3.715  24.478  0.00  0.00    +0.022 A 
ATOM      5  C   UNL     1      -4.802   3.198  25.119  0.00  0.00    +0.122 A 
ATOM      6  C   UNL     1      -5.024   3.454  25.870  0.00  0.00    +0.022 A 
ATOM      7  C   UNL     1      -5.284   4.229  25.980  0.00  0.00    +0.031 A 
ENDBRANCH   8   5
ENDBRANCH  11   8
BRANCH  16  17
ATOM     17  C   UNL     1      -2.965   2.129  24.618  0.00  0.00    +0.260 C 
ATOM     18  O   UNL     1      -3.094   2.701  24.037  0.00  0.00    -0.272 OA
ATOM     19  N   UNL     1      -2.308   2.186  25.115  0.00  0.00    -0.197 NA
BRANCH  19  20
ATOM     20  C   UNL     1      -1.781   2.814  25.030  0.00  0.00    +0.173 C 
ATOM     21  C   UNL     1      -1.606   3.106  24.279  0.00  0.00    +0.033 C 
ATOM     22  C   UNL     1      -1.078   3.735  24.194  0.00  0.00    +0.026 C 
ATOM     23  C   UNL     1      -0.726   4.071  24.859  0.00  0.00    +0.115 C 
ATOM     24  N   UNL     1      -0.902   3.778  25.611  0.00  0.00    -0.204 NA
ATOM     25  C   UNL     1      -1.429   3.150  25.696  0.00  0.00    +0.261 C 
ATOM     26  O   UNL     1      -1.604   2.858  26.447  0.00  0.00    -0.271 OA
ENDBRANCH  19  20
ENDBRANCH  16  17
TORSDOF 5
ENDMDL
