MODEL 1
REMARK VINA RESULT:      -8.5      0.000      0.000
REMARK  Name = 
REMARK  3 active torsions:
REMARK  status: ('A' for Active; 'I' for Inactive)
REMARK    1  A    between atoms: O_2  and  C_3
REMARK    2  A    between atoms: C_3  and  C_5
REMARK    3  A    between atoms: N_10  and  C_11
REMARK                            x       y       z     vdW  Elec       q    Type
REMARK                         _______ _______ _______ _____ _____    ______ ____
ROOT
ATOM      5  C   UNL     1      -3.605   1.062  24.744  0.00  0.00    +0.164 C 
ATOM      6  C   UNL     1      -3.767   1.869  24.790  0.00  0.00    +0.074 C 
ATOM      7  C   UNL     1      -4.508   2.129  25.044  0.00  0.00    +0.078 A 
ATOM      8  C   UNL     1      -5.088   1.580  25.252  0.00  0.00    +0.090 A 
ATOM      9  C   UNL     1      -4.926   0.771  25.207  0.00  0.00    +0.120 C 
ATOM     10  N   UNL     1      -4.185   0.513  24.953  0.00  0.00    -0.261 NA
ATOM     17  N   UNL     1      -5.762   1.995  25.481  0.00  0.00    -0.226 NA
ATOM     18  C   UNL     1      -5.600   2.801  25.414  0.00  0.00    +0.198 A 
ATOM     19  N   UNL     1      -4.825   2.883  25.144  0.00  0.00    -0.227 NA
ENDROOT
BRANCH  10  11
ATOM     11  C   UNL     1      -4.024  -0.295  24.908  0.00  0.00    +0.063 C 
ATOM     12  C   UNL     1      -4.175  -0.708  24.210  0.00  0.00    +0.048 C 
ATOM     13  C   UNL     1      -4.013  -1.516  24.166  0.00  0.00    +0.144 C 
ATOM     14  O   UNL     1      -3.701  -1.910  24.819  0.00  0.00    -0.354 OA
ATOM     15  C   UNL     1      -3.551  -1.498  25.517  0.00  0.00    +0.144 C 
ATOM     16  C   UNL     1      -3.712  -0.690  25.562  0.00  0.00    +0.048 C 
ENDBRANCH  10  11
BRANCH   5   3
ATOM      3  C   UNL     1      -2.865   0.803  24.491  0.00  0.00    +0.332 C 
ATOM      4  O   UNL     1      -2.763   0.539  23.716  0.00  0.00    -0.249 OA
BRANCH   3   2
ATOM      1  C   UNL     1      -1.476   1.026  24.743  0.00  0.00    +0.256 C 
ATOM      2  O   UNL     1      -2.225   0.809  25.012  0.00  0.00    -0.443 OA
ENDBRANCH   3   2
ENDBRANCH   5   3
TORSDOF 3
ENDMDL
MODEL 2
REMARK VINA RESULT:      -8.0      1.031      2.471
REMARK  Name = 
REMARK  3 active torsions:
REMARK  status: ('A' for Active; 'I' for Inactive)
REMARK    1  A    between atoms: O_2  and  C_3
REMARK    2  A    between atoms: C_3  and  C_5
REMARK    3  A    between atoms: N_10  and  C_11
REMARK                            x       y       z     vdW  Elec       q    Type
REMARK                         _______ _______ _______ _____ _____    ______ ____
ROOT
ATOM      5  C   UNL     1      -4.052   1.081  24.742  0.00  0.00    +0.164 C 
ATOM      6  C   UNL     1      -4.766   1.100  25.152  0.00  0.00    +0.074 C 
ATOM      7  C   UNL     1      -5.125   1.822  25.325  0.00  0.00    +0.078 A 
ATOM      8  C   UNL     1      -4.768   2.527  25.087  0.00  0.00    +0.090 A 
ATOM      9  C   UNL     1      -4.052   2.509  24.676  0.00  0.00    +0.120 C 
ATOM     10  N   UNL     1      -3.694   1.786  24.504  0.00  0.00    -0.261 NA
ATOM     17  N   UNL     1      -5.247   3.151  25.333  0.00  0.00    -0.226 NA
ATOM     18  C   UNL     1      -5.900   2.833  25.723  0.00  0.00    +0.198 A 
ATOM     19  N   UNL     1      -5.824   2.012  25.718  0.00  0.00    -0.227 NA
ENDROOT
BRANCH  10  11
ATOM     11  C   UNL     1      -2.979   1.768  24.094  0.00  0.00    +0.063 C 
ATOM     12  C   UNL     1      -2.266   1.736  24.508  0.00  0.00    +0.048 C 
ATOM     13  C   UNL     1      -1.551   1.719  24.096  0.00  0.00    +0.144 C 
ATOM     14  O   UNL     1      -1.549   1.733  23.272  0.00  0.00    -0.354 OA
ATOM     15  C   UNL     1      -2.261   1.765  22.858  0.00  0.00    +0.144 C 
ATOM     16  C   UNL     1      -2.977   1.783  23.268  0.00  0.00    +0.048 C 
ENDBRANCH  10  11
BRANCH   5   3
ATOM      3  C   UNL     1      -3.693   0.359  24.570  0.00  0.00    +0.332 C 
ATOM      4  O   UNL     1      -3.056   0.095  25.023  0.00  0.00    -0.249 OA
BRANCH   3   2
ATOM      1  C   UNL     1      -4.021  -0.921  24.023  0.00  0.00    +0.256 C 
ATOM      2  O   UNL     1      -3.972  -0.101  23.944  0.00  0.00    -0.443 OA
ENDBRANCH   3   2
ENDBRANCH   5   3
TORSDOF 3
ENDMDL
MODEL 3
REMARK VINA RESULT:      -7.9      2.194      3.413
REMARK  Name = 
REMARK  3 active torsions:
REMARK  status: ('A' for Active; 'I' for Inactive)
REMARK    1  A    between atoms: O_2  and  C_3
REMARK    2  A    between atoms: C_3  and  C_5
REMARK    3  A    between atoms: N_10  and  C_11
REMARK                            x       y       z     vdW  Elec       q    Type
REMARK                         _______ _______ _______ _____ _____    ______ ____
ROOT
ATOM      5  C   UNL     1      -3.428   2.532  24.625  0.00  0.00    +0.164 C 
ATOM      6  C   UNL     1      -4.182   2.212  24.539  0.00  0.00    +0.074 C 
ATOM      7  C   UNL     1      -4.801   2.475  25.017  0.00  0.00    +0.078 A 
ATOM      8  C   UNL     1      -4.664   3.061  25.582  0.00  0.00    +0.090 A 
ATOM      9  C   UNL     1      -3.908   3.382  25.669  0.00  0.00    +0.120 C 
ATOM     10  N   UNL     1      -3.291   3.118  25.190  0.00  0.00    -0.261 NA
ATOM     17  N   UNL     1      -5.375   3.211  25.972  0.00  0.00    -0.226 NA
ATOM     18  C   UNL     1      -5.951   2.718  25.648  0.00  0.00    +0.198 A 
ATOM     19  N   UNL     1      -5.596   2.264  25.059  0.00  0.00    -0.227 NA
ENDROOT
BRANCH  10  11
ATOM     11  C   UNL     1      -2.536   3.439  25.277  0.00  0.00    +0.063 C 
ATOM     12  C   UNL     1      -1.966   3.041  25.721  0.00  0.00    +0.048 C 
ATOM     13  C   UNL     1      -1.212   3.363  25.807  0.00  0.00    +0.144 C 
ATOM     14  O   UNL     1      -1.027   4.083  25.450  0.00  0.00    -0.354 OA
ATOM     15  C   UNL     1      -1.597   4.481  25.005  0.00  0.00    +0.144 C 
ATOM     16  C   UNL     1      -2.351   4.160  24.918  0.00  0.00    +0.048 C 
ENDBRANCH  10  11
BRANCH   5   3
ATOM      3  C   UNL     1      -2.811   2.268  24.147  0.00  0.00    +0.332 C 
ATOM      4  O   UNL     1      -2.255   1.736  24.445  0.00  0.00    -0.249 OA
BRANCH   3   2
ATOM      1  C   UNL     1      -2.528   2.014  22.769  0.00  0.00    +0.256 C 
ATOM      2  O   UNL     1      -2.747   2.536  23.369  0.00  0.00    -0.443 OA
ENDBRANCH   3   2
ENDBRANCH   5   3
TORSDOF 3
ENDMDL
MODEL 4
REMARK VINA RESULT:      -7.9      2.037      2.611
REMARK  Name = 
REMARK  3 active torsions:
REMARK  status: ('A' for Active; 'I' for Inactive)
REMARK    1  A    between atoms: O_2  and  C_3
REMARK    2  A    between atoms: C_3  and  C_5
REMARK    3  A    between atoms: N_10  and  C_11
REMARK                            x       y       z     vdW  Elec       q    Type
REMARK                         _______ _______ _______ _____ _____    ______ ____
ROOT
ATOM      5  C   UNL     1      -3.738   3.059  24.989  0.00  0.00    +0.164 C 
ATOM      6  C   UNL     1      -4.349   3.305  25.485  0.00  0.00    +0.074 C 
ATOM      7  C   UNL     1      -5.007   2.821  25.601  0.00  0.00    +0.078 A 
ATOM      8  C   UNL     1      -5.054   2.091  25.220  0.00  0.00    +0.090 A 
ATOM      9  C   UNL     1      -4.443   1.844  24.723  0.00  0.00    +0.120 C 
ATOM     10  N   UNL     1      -3.785   2.328  24.608  0.00  0.00    -0.261 NA
ATOM     17  N   UNL     1      -5.765   1.735  25.438  0.00  0.00    -0.226 NA
ATOM     18  C   UNL     1      -6.158   2.245  25.954  0.00  0.00    +0.198 A 
ATOM     19  N   UNL     1      -5.689   2.916  26.054  0.00  0.00    -0.227 NA
ENDROOT
BRANCH  10  11
ATOM     11  C   UNL     1      -3.174   2.082  24.112  0.00  0.00    +0.063 C 
ATOM     12  C   UNL     1      -3.182   2.289  23.313  0.00  0.00    +0.048 C 
ATOM     13  C   UNL     1      -2.570   2.041  22.818  0.00  0.00    +0.144 C 
ATOM     14  O   UNL     1      -1.952   1.587  23.120  0.00  0.00    -0.354 OA
ATOM     15  C   UNL     1      -1.944   1.380  23.919  0.00  0.00    +0.144 C 
ATOM     16  C   UNL     1      -2.555   1.627  24.415  0.00  0.00    +0.048 C 
ENDBRANCH  10  11
BRANCH   5   3
ATOM      3  C   UNL     1      -3.080   3.542  24.874  0.00  0.00    +0.332 C 
ATOM      4  O   UNL     1      -3.018   3.999  24.189  0.00  0.00    -0.249 OA
BRANCH   3   2
ATOM      1  C   UNL     1      -2.109   4.285  25.614  0.00  0.00    +0.256 C 
ATOM      2  O   UNL     1      -2.484   3.570  25.443  0.00  0.00    -0.443 OA
ENDBRANCH   3   2
ENDBRANCH   5   3
TORSDOF 3
ENDMDL
MODEL 5
REMARK VINA RESULT:      -7.9      1.658      3.218
REMARK  Name = 
REMARK  3 active torsions:
REMARK  status: ('A' for Active; 'I' for Inactive)
REMARK    1  A    between atoms: O_2  and  C_3
REMARK    2  A    between atoms: C_3  and  C_5
REMARK    3  A    between atoms: N_10  and  C_11
REMARK                            x       y       z     vdW  Elec       q    Type
REMARK                         _______ _______ _______ _____ _____    ______ ____
ROOT
ATOM      5  C   UNL     1      -2.597  -0.221  24.562  0.00  0.00    +0.164 C 
ATOM      6  C   UNL     1      -2.523  -1.036  24.667  0.00  0.00    +0.074 C 
ATOM      7  C   UNL     1      -3.140  -1.538  24.447  0.00  0.00    +0.078 A 
ATOM      8  C   UNL     1      -3.831  -1.226  24.122  0.00  0.00    +0.090 A 
ATOM      9  C   UNL     1      -3.905  -0.410  24.017  0.00  0.00    +0.120 C 
ATOM     10  N   UNL     1      -3.288   0.091  24.237  0.00  0.00    -0.261 NA
ATOM     17  N   UNL     1      -4.342  -1.852  23.959  0.00  0.00    -0.226 NA
ATOM     18  C   UNL     1      -3.967  -2.551  24.182  0.00  0.00    +0.198 A 
ATOM     19  N   UNL     1      -3.225  -2.357  24.484  0.00  0.00    -0.227 NA
ENDROOT
BRANCH  10  11
ATOM     11  C   UNL     1      -3.363   0.906  24.132  0.00  0.00    +0.063 C 
ATOM     12  C   UNL     1      -3.116   1.256  23.427  0.00  0.00    +0.048 C 
ATOM     13  C   UNL     1      -3.192   2.071  23.323  0.00  0.00    +0.144 C 
ATOM     14  O   UNL     1      -3.514   2.536  23.923  0.00  0.00    -0.354 OA
ATOM     15  C   UNL     1      -3.761   2.186  24.628  0.00  0.00    +0.144 C 
ATOM     16  C   UNL     1      -3.686   1.371  24.733  0.00  0.00    +0.048 C 
ENDBRANCH  10  11
BRANCH   5   3
ATOM      3  C   UNL     1      -1.982   0.281  24.781  0.00  0.00    +0.332 C 
ATOM      4  O   UNL     1      -2.023   0.700  25.491  0.00  0.00    -0.249 OA
BRANCH   3   2
ATOM      1  C   UNL     1      -0.568   0.426  24.621  0.00  0.00    +0.256 C 
ATOM      2  O   UNL     1      -1.323   0.364  24.292  0.00  0.00    -0.443 OA
ENDBRANCH   3   2
ENDBRANCH   5   3
TORSDOF 3
ENDMDL
MODEL 6
REMARK VINA RESULT:      -7.8      1.775      3.584
REMARK  Name = 
REMARK  3 active torsions:
REMARK  status: ('A' for Active; 'I' for Inactive)
REMARK    1  A    between atoms: O_2  and  C_3
REMARK    2  A    between atoms: C_3  and  C_5
REMARK    3  A    between atoms: N_10  and  C_11
REMARK                            x       y       z     vdW  Elec       q    Type
REMARK                         _______ _______ _______ _____ _____    ______ ____
ROOT
ATOM      5  C   UNL     1      -4.488   1.264  24.935  0.00  0.00    +0.164 C 
ATOM      6  C   UNL     1      -4.601   0.454  25.037  0.00  0.00    +0.074 C 
ATOM      7  C   UNL     1      -3.975  -0.070  24.913  0.00  0.00    +0.078 A 
ATOM      8  C   UNL     1      -3.236   0.218  24.687  0.00  0.00    +0.090 A 
ATOM      9  C   UNL     1      -3.122   1.029  24.584  0.00  0.00    +0.120 C 
ATOM     10  N   UNL     1      -3.748   1.552  24.708  0.00  0.00    -0.261 NA
ATOM     17  N   UNL     1      -2.727  -0.425  24.605  0.00  0.00    -0.226 NA
ATOM     18  C   UNL     1      -3.150  -1.110  24.781  0.00  0.00    +0.198 A 
ATOM     19  N   UNL     1      -3.922  -0.890  24.971  0.00  0.00    -0.227 NA
ENDROOT
BRANCH  10  11
ATOM     11  C   UNL     1      -3.634   2.362  24.606  0.00  0.00    +0.063 C 
ATOM     12  C   UNL     1      -3.810   2.716  23.881  0.00  0.00    +0.048 C 
ATOM     13  C   UNL     1      -3.695   3.526  23.780  0.00  0.00    +0.144 C 
ATOM     14  O   UNL     1      -3.405   3.983  24.402  0.00  0.00    -0.354 OA
ATOM     15  C   UNL     1      -3.229   3.630  25.126  0.00  0.00    +0.144 C 
ATOM     16  C   UNL     1      -3.343   2.819  25.228  0.00  0.00    +0.048 C 
ENDBRANCH  10  11
BRANCH   5   3
ATOM      3  C   UNL     1      -5.113   1.787  25.058  0.00  0.00    +0.332 C 
ATOM      4  O   UNL     1      -5.529   2.093  24.415  0.00  0.00    -0.249 OA
BRANCH   3   2
ATOM      1  C   UNL     1      -6.118   2.108  26.023  0.00  0.00    +0.256 C 
ATOM      2  O   UNL     1      -5.323   2.004  25.826  0.00  0.00    -0.443 OA
ENDBRANCH   3   2
ENDBRANCH   5   3
TORSDOF 3
ENDMDL
MODEL 7
REMARK VINA RESULT:      -7.8      1.240      2.350
REMARK  Name = 
REMARK  3 active torsions:
REMARK  status: ('A' for Active; 'I' for Inactive)
REMARK    1  A    between atoms: O_2  and  C_3
REMARK    2  A    between atoms: C_3  and  C_5
REMARK    3  A    between atoms: N_10  and  C_11
REMARK                            x       y       z     vdW  Elec       q    Type
REMARK                         _______ _______ _______ _____ _____    ______ ____
ROOT
ATOM      5  C   UNL     1      -3.598  -0.210  24.850  0.00  0.00    +0.164 C 
ATOM      6  C   UNL     1      -4.317   0.182  24.758  0.00  0.00    +0.074 C 
ATOM      7  C   UNL     1      -4.341   1.007  24.752  0.00  0.00    +0.078 A 
ATOM      8  C   UNL     1      -3.644   1.440  24.837  0.00  0.00    +0.090 A 
ATOM      9  C   UNL     1      -2.923   1.047  24.929  0.00  0.00    +0.120 C 
ATOM     10  N   UNL     1      -2.901   0.223  24.935  0.00  0.00    -0.261 NA
ATOM     17  N   UNL     1      -3.836   2.241  24.810  0.00  0.00    -0.226 NA
ATOM     18  C   UNL     1      -4.652   2.304  24.708  0.00  0.00    +0.198 A 
ATOM     19  N   UNL     1      -4.963   1.541  24.672  0.00  0.00    -0.227 NA
ENDROOT
BRANCH  10  11
ATOM     11  C   UNL     1      -2.180  -0.169  25.026  0.00  0.00    +0.063 C 
ATOM     12  C   UNL     1      -1.938  -0.418  25.774  0.00  0.00    +0.048 C 
ATOM     13  C   UNL     1      -1.217  -0.810  25.864  0.00  0.00    +0.144 C 
ATOM     14  O   UNL     1      -0.739  -0.951  25.208  0.00  0.00    -0.354 OA
ATOM     15  C   UNL     1      -0.982  -0.702  24.460  0.00  0.00    +0.144 C 
ATOM     16  C   UNL     1      -1.702  -0.310  24.368  0.00  0.00    +0.048 C 
ENDBRANCH  10  11
BRANCH   5   3
ATOM      3  C   UNL     1      -3.575  -1.034  24.856  0.00  0.00    +0.332 C 
ATOM      4  O   UNL     1      -3.531  -1.441  25.572  0.00  0.00    -0.249 OA
BRANCH   3   2
ATOM      1  C   UNL     1      -4.029  -2.153  24.091  0.00  0.00    +0.256 C 
ATOM      2  O   UNL     1      -3.596  -1.452  24.145  0.00  0.00    -0.443 OA
ENDBRANCH   3   2
ENDBRANCH   5   3
TORSDOF 3
ENDMDL
