MODEL 1
REMARK VINA RESULT:     -10.5      0.000      0.000
REMARK  Name = 
REMARK  5 active torsions:
REMARK  status: ('A' for Active; 'I' for Inactive)
REMARK    1  A    between atoms: C_2  and  C_5
REMARK    2  A    between atoms: C_5  and  N_6
REMARK    3  A    between atoms: C_10  and  C_11
REMARK    4  A    between atoms: C_13  and  C_16
REMARK    5  A    between atoms: C_19  and  N_22
REMARK                            x       y       z     vdW  Elec       q    Type
REMARK                         _______ _______ _______ _____ _____    ______ ____
ROOT
ATOM     11  C   UNL     1      -3.445   2.836  24.946  0.00  0.00    +0.251 A 
ATOM     12  N   UNL     1      -3.373   2.039  25.150  0.00  0.00    -0.190 NA
ATOM     13  C   UNL     1      -3.624   1.588  24.507  0.00  0.00    +0.205 A 
ATOM     14  N   UNL     1      -3.850   2.105  23.906  0.00  0.00    -0.056 NA
ATOM     15  O   UNL     1      -3.739   2.875  24.177  0.00  0.00    -0.336 OA
ENDROOT
BRANCH  13  16
ATOM     16  C   UNL     1      -3.645   0.763  24.472  0.00  0.00    +0.058 A 
ATOM     17  C   UNL     1      -4.339   0.360  24.662  0.00  0.00    +0.008 A 
ATOM     18  C   UNL     1      -4.359  -0.464  24.626  0.00  0.00    +0.038 A 
ATOM     19  C   UNL     1      -3.686  -0.884  24.401  0.00  0.00    +0.149 A 
ATOM     20  N   UNL     1      -2.992  -0.481  24.211  0.00  0.00    -0.226 NA
ATOM     21  C   UNL     1      -2.972   0.343  24.246  0.00  0.00    +0.104 A 
BRANCH  19  22
ATOM     22  N   UNL     1      -3.707  -1.709  24.365  0.00  0.00    -0.271 N 
ATOM     23  C   UNL     1      -3.285  -2.226  24.851  0.00  0.00    +0.104 A 
ATOM     24  C   UNL     1      -3.470  -2.997  24.624  0.00  0.00    +0.120 A 
ATOM     25  N   UNL     1      -4.007  -2.957  23.998  0.00  0.00    -0.222 NA
ATOM     26  C   UNL     1      -4.153  -2.160  23.838  0.00  0.00    +0.184 A 
ENDBRANCH  19  22
ENDBRANCH  13  16
BRANCH  11  10
ATOM      6  N   UNL     1      -2.548   3.901  25.413  0.00  0.00    -0.266 NA
ATOM      7  C   UNL     1      -2.593   4.495  25.984  0.00  0.00    +0.073 C 
ATOM      8  C   UNL     1      -3.330   4.439  26.351  0.00  0.00    +0.019 C 
ATOM      9  C   UNL     1      -3.739   3.810  26.007  0.00  0.00    +0.027 C 
ATOM     10  C   UNL     1      -3.255   3.478  25.427  0.00  0.00    +0.138 C 
BRANCH   6   5
ATOM      5  C   UNL     1      -1.906   3.756  24.915  0.00  0.00    +0.072 C 
BRANCH   5   2
ATOM      1  C   UNL     1      -0.538   4.672  25.044  0.00  0.00    +0.001 C 
ATOM      2  C   UNL     1      -1.222   4.214  24.980  0.00  0.00    +0.015 C 
ATOM      3  C   UNL     1      -0.859   3.612  25.411  0.00  0.00    +0.001 C 
ATOM      4  C   UNL     1      -1.584   4.816  24.549  0.00  0.00    +0.001 C 
ENDBRANCH   5   2
ENDBRANCH   6   5
ENDBRANCH  11  10
TORSDOF 5
ENDMDL
MODEL 2
REMARK VINA RESULT:      -9.9      1.792      5.832
REMARK  Name = 
REMARK  5 active torsions:
REMARK  status: ('A' for Active; 'I' for Inactive)
REMARK    1  A    between atoms: C_2  and  C_5
REMARK    2  A    between atoms: C_5  and  N_6
REMARK    3  A    between atoms: C_10  and  C_11
REMARK    4  A    between atoms: C_13  and  C_16
REMARK    5  A    between atoms: C_19  and  N_22
REMARK                            x       y       z     vdW  Elec       q    Type
REMARK                         _______ _______ _______ _____ _____    ______ ____
ROOT
ATOM     11  C   UNL     1      -1.463  -0.680  25.210  0.00  0.00    +0.251 A 
ATOM     12  N   UNL     1      -1.430   0.073  24.873  0.00  0.00    -0.190 NA
ATOM     13  C   UNL     1      -1.387   0.624  25.485  0.00  0.00    +0.205 A 
ATOM     14  N   UNL     1      -1.394   0.212  26.199  0.00  0.00    -0.056 NA
ATOM     15  O   UNL     1      -1.441  -0.593  26.029  0.00  0.00    -0.336 OA
ENDROOT
BRANCH  13  16
ATOM     16  C   UNL     1      -1.345   1.443  25.397  0.00  0.00    +0.058 A 
ATOM     17  C   UNL     1      -0.688   1.855  25.682  0.00  0.00    +0.008 A 
ATOM     18  C   UNL     1      -0.646   2.674  25.594  0.00  0.00    +0.038 A 
ATOM     19  C   UNL     1      -1.260   3.082  25.223  0.00  0.00    +0.149 A 
ATOM     20  N   UNL     1      -1.916   2.670  24.938  0.00  0.00    -0.226 NA
ATOM     21  C   UNL     1      -1.958   1.851  25.026  0.00  0.00    +0.104 A 
BRANCH  19  22
ATOM     22  N   UNL     1      -1.217   3.901  25.135  0.00  0.00    -0.271 N 
ATOM     23  C   UNL     1      -1.797   4.444  25.359  0.00  0.00    +0.104 A 
ATOM     24  C   UNL     1      -1.526   5.200  25.171  0.00  0.00    +0.120 A 
ATOM     25  N   UNL     1      -0.778   5.125  24.830  0.00  0.00    -0.222 NA
ATOM     26  C   UNL     1      -0.588   4.322  24.808  0.00  0.00    +0.184 A 
ENDBRANCH  19  22
ENDBRANCH  13  16
BRANCH  11  10
ATOM      6  N   UNL     1      -2.204  -1.786  24.587  0.00  0.00    -0.266 NA
ATOM      7  C   UNL     1      -1.996  -2.475  24.184  0.00  0.00    +0.073 C 
ATOM      8  C   UNL     1      -1.172  -2.508  24.147  0.00  0.00    +0.019 C 
ATOM      9  C   UNL     1      -0.872  -1.840  24.526  0.00  0.00    +0.027 C 
ATOM     10  C   UNL     1      -1.511  -1.393  24.798  0.00  0.00    +0.138 C 
BRANCH   6   5
ATOM      5  C   UNL     1      -2.972  -1.533  24.749  0.00  0.00    +0.072 C 
BRANCH   5   2
ATOM      1  C   UNL     1      -4.261  -2.384  24.166  0.00  0.00    +0.001 C 
ATOM      2  C   UNL     1      -3.617  -1.958  24.457  0.00  0.00    +0.015 C 
ATOM      3  C   UNL     1      -3.705  -1.409  23.849  0.00  0.00    +0.001 C 
ATOM      4  C   UNL     1      -3.530  -2.508  25.065  0.00  0.00    +0.001 C 
ENDBRANCH   5   2
ENDBRANCH   6   5
ENDBRANCH  11  10
TORSDOF 5
ENDMDL
MODEL 3
REMARK VINA RESULT:      -9.2      1.429      2.095
REMARK  Name = 
REMARK  5 active torsions:
REMARK  status: ('A' for Active; 'I' for Inactive)
REMARK    1  A    between atoms: C_2  and  C_5
REMARK    2  A    between atoms: C_5  and  N_6
REMARK    3  A    between atoms: C_10  and  C_11
REMARK    4  A    between atoms: C_13  and  C_16
REMARK    5  A    between atoms: C_19  and  N_22
REMARK                            x       y       z     vdW  Elec       q    Type
REMARK                         _______ _______ _______ _____ _____    ______ ____
ROOT
ATOM     11  C   UNL     1      -0.772   1.736  25.028  0.00  0.00    +0.251 A 
ATOM     12  N   UNL     1      -1.311   1.137  25.211  0.00  0.00    -0.190 NA
ATOM     13  C   UNL     1      -1.442   0.694  24.528  0.00  0.00    +0.205 A 
ATOM     14  N   UNL     1      -0.984   1.018  23.923  0.00  0.00    -0.056 NA
ATOM     15  O   UNL     1      -0.571   1.661  24.232  0.00  0.00    -0.336 OA
ENDROOT
BRANCH  13  16
ATOM     16  C   UNL     1      -1.942   0.042  24.462  0.00  0.00    +0.058 A 
ATOM     17  C   UNL     1      -2.743   0.152  24.298  0.00  0.00    +0.008 A 
ATOM     18  C   UNL     1      -3.244  -0.501  24.232  0.00  0.00    +0.038 A 
ATOM     19  C   UNL     1      -2.944  -1.263  24.329  0.00  0.00    +0.149 A 
ATOM     20  N   UNL     1      -2.143  -1.373  24.493  0.00  0.00    -0.226 NA
ATOM     21  C   UNL     1      -1.642  -0.720  24.559  0.00  0.00    +0.104 A 
BRANCH  19  22
ATOM     22  N   UNL     1      -3.445  -1.915  24.263  0.00  0.00    -0.271 N 
ATOM     23  C   UNL     1      -4.144  -1.948  23.826  0.00  0.00    +0.104 A 
ATOM     24  C   UNL     1      -4.465  -2.702  23.915  0.00  0.00    +0.120 A 
ATOM     25  N   UNL     1      -3.965  -3.136  24.407  0.00  0.00    -0.222 NA
ATOM     26  C   UNL     1      -3.334  -2.650  24.622  0.00  0.00    +0.184 A 
ENDBRANCH  19  22
ENDBRANCH  13  16
BRANCH  11  10
ATOM      6  N   UNL     1      -0.709   3.100  25.570  0.00  0.00    -0.266 NA
ATOM      7  C   UNL     1      -0.288   3.469  26.176  0.00  0.00    +0.073 C 
ATOM      8  C   UNL     1       0.196   2.902  26.531  0.00  0.00    +0.019 C 
ATOM      9  C   UNL     1       0.073   2.184  26.144  0.00  0.00    +0.027 C 
ATOM     10  C   UNL     1      -0.486   2.306  25.550  0.00  0.00    +0.138 C 
BRANCH   6   5
ATOM      5  C   UNL     1      -1.257   3.462  25.071  0.00  0.00    +0.072 C 
BRANCH   5   2
ATOM      1  C   UNL     1      -1.618   5.061  25.263  0.00  0.00    +0.001 C 
ATOM      2  C   UNL     1      -1.438   4.262  25.167  0.00  0.00    +0.015 C 
ATOM      3  C   UNL     1      -2.087   4.059  25.633  0.00  0.00    +0.001 C 
ATOM      4  C   UNL     1      -0.789   4.464  24.701  0.00  0.00    +0.001 C 
ENDBRANCH   5   2
ENDBRANCH   6   5
ENDBRANCH  11  10
TORSDOF 5
ENDMDL
MODEL 4
REMARK VINA RESULT:      -9.0      1.153      5.404
REMARK  Name = 
REMARK  5 active torsions:
REMARK  status: ('A' for Active; 'I' for Inactive)
REMARK    1  A    between atoms: C_2  and  C_5
REMARK    2  A    between atoms: C_5  and  N_6
REMARK    3  A    between atoms: C_10  and  C_11
REMARK    4  A    between atoms: C_13  and  C_16
REMARK    5  A    between atoms: C_19  and  N_22
REMARK                            x       y       z     vdW  Elec       q    Type
REMARK                         _______ _______ _______ _____ _____    ______ ____
ROOT
ATOM     11  C   UNL     1      -3.877  -0.070  24.659  0.00  0.00    +0.251 A 
ATOM     12  N   UNL     1      -3.323   0.512  24.469  0.00  0.00    -0.190 NA
ATOM     13  C   UNL     1      -3.453   1.158  24.963  0.00  0.00    +0.205 A 
ATOM     14  N   UNL     1      -4.087   0.977  25.459  0.00  0.00    -0.056 NA
ATOM     15  O   UNL     1      -4.348   0.219  25.271  0.00  0.00    -0.336 OA
ENDROOT
BRANCH  13  16
ATOM     16  C   UNL     1      -3.024   1.864  24.962  0.00  0.00    +0.058 A 
ATOM     17  C   UNL     1      -2.285   1.896  25.326  0.00  0.00    +0.008 A 
ATOM     18  C   UNL     1      -1.856   2.601  25.325  0.00  0.00    +0.038 A 
ATOM     19  C   UNL     1      -2.167   3.273  24.961  0.00  0.00    +0.149 A 
ATOM     20  N   UNL     1      -2.906   3.240  24.597  0.00  0.00    -0.226 NA
ATOM     21  C   UNL     1      -3.335   2.535  24.598  0.00  0.00    +0.104 A 
BRANCH  19  22
ATOM     22  N   UNL     1      -1.737   3.978  24.960  0.00  0.00    -0.271 N 
ATOM     23  C   UNL     1      -0.987   4.089  24.634  0.00  0.00    +0.104 A 
ATOM     24  C   UNL     1      -0.769   4.875  24.757  0.00  0.00    +0.120 A 
ATOM     25  N   UNL     1      -1.385   5.250  25.159  0.00  0.00    -0.222 NA
ATOM     26  C   UNL     1      -1.984   4.695  25.284  0.00  0.00    +0.184 A 
ENDBRANCH  19  22
ENDBRANCH  13  16
BRANCH  11  10
ATOM      6  N   UNL     1      -3.457  -1.459  24.430  0.00  0.00    -0.266 NA
ATOM      7  C   UNL     1      -3.725  -2.081  23.958  0.00  0.00    +0.073 C 
ATOM      8  C   UNL     1      -4.381  -1.814  23.535  0.00  0.00    +0.019 C 
ATOM      9  C   UNL     1      -4.518  -1.028  23.746  0.00  0.00    +0.027 C 
ATOM     10  C   UNL     1      -3.947  -0.809  24.300  0.00  0.00    +0.138 C 
BRANCH   6   5
ATOM      5  C   UNL     1      -2.812  -1.485  24.944  0.00  0.00    +0.072 C 
BRANCH   5   2
ATOM      1  C   UNL     1      -1.877  -2.843  25.029  0.00  0.00    +0.001 C 
ATOM      2  C   UNL     1      -2.345  -2.164  24.987  0.00  0.00    +0.015 C 
ATOM      3  C   UNL     1      -2.894  -2.510  25.494  0.00  0.00    +0.001 C 
ATOM      4  C   UNL     1      -1.795  -1.817  24.479  0.00  0.00    +0.001 C 
ENDBRANCH   5   2
ENDBRANCH   6   5
ENDBRANCH  11  10
TORSDOF 5
ENDMDL
MODEL 5
REMARK VINA RESULT:      -8.9      1.844      5.235
REMARK  Name = 
REMARK  5 active torsions:
REMARK  status: ('A' for Active; 'I' for Inactive)
REMARK    1  A    between atoms: C_2  and  C_5
REMARK    2  A    between atoms: C_5  and  N_6
REMARK    3  A    between atoms: C_10  and  C_11
REMARK    4  A    between atoms: C_13  and  C_16
REMARK    5  A    between atoms: C_19  and  N_22
REMARK                            x       y       z     vdW  Elec       q    Type
REMARK                         _______ _______ _______ _____ _____    ______ ____
ROOT
ATOM     11  C   UNL     1      -1.891  -0.109  24.577  0.00  0.00    +0.251 A 
ATOM     12  N   UNL     1      -2.484   0.306  24.973  0.00  0.00    -0.190 NA
ATOM     13  C   UNL     1      -2.649   0.989  24.540  0.00  0.00    +0.205 A 
ATOM     14  N   UNL     1      -2.160   0.995  23.877  0.00  0.00    -0.056 NA
ATOM     15  O   UNL     1      -1.691   0.317  23.900  0.00  0.00    -0.336 OA
ENDROOT
BRANCH  13  16
ATOM     16  C   UNL     1      -3.208   1.564  24.736  0.00  0.00    +0.058 A 
ATOM     17  C   UNL     1      -4.009   1.422  24.605  0.00  0.00    +0.008 A 
ATOM     18  C   UNL     1      -4.568   1.998  24.801  0.00  0.00    +0.038 A 
ATOM     19  C   UNL     1      -4.324   2.714  25.129  0.00  0.00    +0.149 A 
ATOM     20  N   UNL     1      -3.522   2.856  25.260  0.00  0.00    -0.226 NA
ATOM     21  C   UNL     1      -2.964   2.281  25.064  0.00  0.00    +0.104 A 
BRANCH  19  22
ATOM     22  N   UNL     1      -4.882   3.290  25.325  0.00  0.00    -0.271 N 
ATOM     23  C   UNL     1      -4.825   4.097  25.161  0.00  0.00    +0.104 A 
ATOM     24  C   UNL     1      -5.502   4.465  25.454  0.00  0.00    +0.120 A 
ATOM     25  N   UNL     1      -5.978   3.885  25.799  0.00  0.00    -0.222 NA
ATOM     26  C   UNL     1      -5.595   3.159  25.719  0.00  0.00    +0.184 A 
ENDBRANCH  19  22
ENDBRANCH  13  16
BRANCH  11  10
ATOM      6  N   UNL     1      -1.934  -1.558  24.818  0.00  0.00    -0.266 NA
ATOM      7  C   UNL     1      -1.399  -2.119  25.099  0.00  0.00    +0.073 C 
ATOM      8  C   UNL     1      -0.691  -1.732  25.272  0.00  0.00    +0.019 C 
ATOM      9  C   UNL     1      -0.789  -0.932  25.097  0.00  0.00    +0.027 C 
ATOM     10  C   UNL     1      -1.558  -0.824  24.817  0.00  0.00    +0.138 C 
BRANCH   6   5
ATOM      5  C   UNL     1      -2.710  -1.705  24.580  0.00  0.00    +0.072 C 
BRANCH   5   2
ATOM      1  C   UNL     1      -3.357  -3.213  24.761  0.00  0.00    +0.001 C 
ATOM      2  C   UNL     1      -3.033  -2.459  24.670  0.00  0.00    +0.015 C 
ATOM      3  C   UNL     1      -2.716  -2.683  23.943  0.00  0.00    +0.001 C 
ATOM      4  C   UNL     1      -3.351  -2.236  25.397  0.00  0.00    +0.001 C 
ENDBRANCH   5   2
ENDBRANCH   6   5
ENDBRANCH  11  10
TORSDOF 5
ENDMDL
MODEL 6
REMARK VINA RESULT:      -8.9      2.973      4.272
REMARK  Name = 
REMARK  5 active torsions:
REMARK  status: ('A' for Active; 'I' for Inactive)
REMARK    1  A    between atoms: C_2  and  C_5
REMARK    2  A    between atoms: C_5  and  N_6
REMARK    3  A    between atoms: C_10  and  C_11
REMARK    4  A    between atoms: C_13  and  C_16
REMARK    5  A    between atoms: C_19  and  N_22
REMARK                            x       y       z     vdW  Elec       q    Type
REMARK                         _______ _______ _______ _____ _____    ______ ____
ROOT
ATOM     11  C   UNL     1      -2.568   0.650  24.903  0.00  0.00    +0.251 A 
ATOM     12  N   UNL     1      -2.037   0.575  24.275  0.00  0.00    -0.190 NA
ATOM     13  C   UNL     1      -1.279   0.495  24.591  0.00  0.00    +0.205 A 
ATOM     14  N   UNL     1      -1.341   0.521  25.412  0.00  0.00    -0.056 NA
ATOM     15  O   UNL     1      -2.136   0.616  25.605  0.00  0.00    -0.336 OA
ENDROOT
BRANCH  13  16
ATOM     16  C   UNL     1      -0.581   0.405  24.159  0.00  0.00    +0.058 A 
ATOM     17  C   UNL     1      -0.152   1.070  23.927  0.00  0.00    +0.008 A 
ATOM     18  C   UNL     1       0.546   0.980  23.496  0.00  0.00    +0.038 A 
ATOM     19  C   UNL     1       0.814   0.225  23.297  0.00  0.00    +0.149 A 
ATOM     20  N   UNL     1       0.384  -0.440  23.529  0.00  0.00    -0.226 NA
ATOM     21  C   UNL     1      -0.314  -0.350  23.960  0.00  0.00    +0.104 A 
BRANCH  19  22
ATOM     22  N   UNL     1       1.511   0.135  22.865  0.00  0.00    -0.271 N 
ATOM     23  C   UNL     1       2.259   0.400  23.092  0.00  0.00    +0.104 A 
ATOM     24  C   UNL     1       2.794   0.194  22.498  0.00  0.00    +0.120 A 
ATOM     25  N   UNL     1       2.376  -0.199  21.905  0.00  0.00    -0.222 NA
ATOM     26  C   UNL     1       1.583  -0.235  22.132  0.00  0.00    +0.184 A 
ENDBRANCH  19  22
ENDBRANCH  13  16
BRANCH  11  10
ATOM      6  N   UNL     1      -3.787   1.458  24.769  0.00  0.00    -0.266 NA
ATOM      7  C   UNL     1      -4.594   1.294  24.720  0.00  0.00    +0.073 C 
ATOM      8  C   UNL     1      -4.690   0.475  24.759  0.00  0.00    +0.019 C 
ATOM      9  C   UNL     1      -3.943   0.134  24.833  0.00  0.00    +0.027 C 
ATOM     10  C   UNL     1      -3.385   0.742  24.839  0.00  0.00    +0.138 C 
BRANCH   6   5
ATOM      5  C   UNL     1      -3.444   2.207  24.751  0.00  0.00    +0.072 C 
BRANCH   5   2
ATOM      1  C   UNL     1      -4.391   3.545  24.554  0.00  0.00    +0.001 C 
ATOM      2  C   UNL     1      -3.917   2.876  24.652  0.00  0.00    +0.015 C 
ATOM      3  C   UNL     1      -3.845   2.807  23.834  0.00  0.00    +0.001 C 
ATOM      4  C   UNL     1      -3.990   2.946  25.470  0.00  0.00    +0.001 C 
ENDBRANCH   5   2
ENDBRANCH   6   5
ENDBRANCH  11  10
TORSDOF 5
ENDMDL
