MODEL 1
REMARK VINA RESULT:     -13.1      0.000      0.000
REMARK  Name = 
REMARK  6 active torsions:
REMARK  status: ('A' for Active; 'I' for Inactive)
REMARK    1  A    between atoms: C_5  and  C_8
REMARK    2  A    between atoms: C_10  and  C_11
REMARK    3  A    between atoms: C_11  and  C_12
REMARK    4  A    between atoms: C_17  and  C_18
REMARK    5  A    between atoms: C_18  and  C_19
REMARK    6  A    between atoms: N_21  and  C_22
REMARK                            x       y       z     vdW  Elec       q    Type
REMARK                         _______ _______ _______ _____ _____    ______ ____
ROOT
ATOM     12  C   UNL     1      -0.537   0.476  24.841  0.00  0.00    +0.024 C 
ATOM     13  C   UNL     1       0.001   0.882  24.364  0.00  0.00    +0.089 C 
ATOM     14  N   UNL     1       0.381   0.490  23.747  0.00  0.00    -0.218 NA
ATOM     15  C   UNL     1       0.224  -0.307  23.605  0.00  0.00    +0.089 C 
ATOM     16  C   UNL     1      -0.314  -0.713  24.082  0.00  0.00    +0.019 C 
ATOM     17  C   UNL     1      -0.694  -0.321  24.700  0.00  0.00    +0.012 C 
ENDROOT
BRANCH  12  11
ATOM     11  C   UNL     1      -0.918   0.869  25.460  0.00  0.00    +0.051 C 
BRANCH  11  10
ATOM      8  C   UNL     1      -0.843   2.999  25.586  0.00  0.00    +0.177 A 
ATOM      9  C   UNL     1      -1.194   2.305  25.309  0.00  0.00    +0.058 A 
ATOM     10  C   UNL     1      -0.761   1.667  25.600  0.00  0.00    +0.101 A 
ATOM     28  N   UNL     1      -0.142   1.965  26.056  0.00  0.00    -0.081 NA
ATOM     29  O   UNL     1      -0.192   2.788  26.047  0.00  0.00    -0.354 OA
BRANCH   8   5
ATOM      1  F   UNL     1      -1.861   6.074  24.956  0.00  0.00    -0.204 F 
ATOM      2  C   UNL     1      -1.606   5.305  25.113  0.00  0.00    +0.140 A 
ATOM      3  C   UNL     1      -2.095   4.786  25.530  0.00  0.00    +0.030 A 
ATOM      4  C   UNL     1      -1.840   4.018  25.687  0.00  0.00    +0.005 A 
ATOM      5  C   UNL     1      -1.097   3.767  25.428  0.00  0.00    +0.037 A 
ATOM      6  C   UNL     1      -0.610   4.287  25.012  0.00  0.00    +0.005 A 
ATOM      7  C   UNL     1      -0.864   5.055  24.854  0.00  0.00    +0.030 A 
ENDBRANCH   8   5
ENDBRANCH  11  10
ENDBRANCH  12  11
BRANCH  17  18
ATOM     18  C   UNL     1      -1.232  -0.726  25.177  0.00  0.00    +0.087 C 
BRANCH  18  19
ATOM     19  C   UNL     1      -1.792  -1.225  24.835  0.00  0.00    +0.246 C 
ATOM     20  O   UNL     1      -1.554  -1.810  24.304  0.00  0.00    -0.273 OA
ATOM     21  N   UNL     1      -2.591  -1.140  25.024  0.00  0.00    -0.179 NA
BRANCH  21  22
ATOM     22  C   UNL     1      -3.151  -1.639  24.681  0.00  0.00    +0.073 A 
ATOM     23  C   UNL     1      -3.177  -2.436  24.892  0.00  0.00    +0.017 A 
ATOM     24  C   UNL     1      -3.737  -2.936  24.550  0.00  0.00    +0.001 A 
ATOM     25  C   UNL     1      -4.272  -2.638  23.997  0.00  0.00    +0.000 A 
ATOM     26  C   UNL     1      -4.246  -1.842  23.786  0.00  0.00    +0.001 A 
ATOM     27  C   UNL     1      -3.686  -1.341  24.128  0.00  0.00    +0.017 A 
ENDBRANCH  21  22
ENDBRANCH  18  19
ENDBRANCH  17  18
TORSDOF 6
ENDMDL
MODEL 2
REMARK VINA RESULT:     -12.6      2.425      3.370
REMARK  Name = 
REMARK  6 active torsions:
REMARK  status: ('A' for Active; 'I' for Inactive)
REMARK    1  A    between atoms: C_5  and  C_8
REMARK    2  A    between atoms: C_10  and  C_11
REMARK    3  A    between atoms: C_11  and  C_12
REMARK    4  A    between atoms: C_17  and  C_18
REMARK    5  A    between atoms: C_18  and  C_19
REMARK    6  A    between atoms: N_21  and  C_22
REMARK                            x       y       z     vdW  Elec       q    Type
REMARK                         _______ _______ _______ _____ _____    ______ ____
ROOT
ATOM     12  C   UNL     1      -4.966   2.092  24.894  0.00  0.00    +0.024 C 
ATOM     13  C   UNL     1      -5.537   2.493  25.335  0.00  0.00    +0.089 C 
ATOM     14  N   UNL     1      -6.067   2.071  25.804  0.00  0.00    -0.218 NA
ATOM     15  C   UNL     1      -6.029   1.247  25.832  0.00  0.00    +0.089 C 
ATOM     16  C   UNL     1      -5.458   0.846  25.391  0.00  0.00    +0.019 C 
ATOM     17  C   UNL     1      -4.927   1.269  24.922  0.00  0.00    +0.012 C 
ENDROOT
BRANCH  12  11
ATOM     11  C   UNL     1      -4.434   2.515  24.425  0.00  0.00    +0.051 C 
BRANCH  11  10
ATOM      8  C   UNL     1      -2.942   3.914  25.036  0.00  0.00    +0.177 A 
ATOM      9  C   UNL     1      -3.189   3.283  24.564  0.00  0.00    +0.058 A 
ATOM     10  C   UNL     1      -3.970   3.108  24.761  0.00  0.00    +0.101 A 
ATOM     28  N   UNL     1      -4.206   3.630  25.355  0.00  0.00    -0.081 NA
ATOM     29  O   UNL     1      -3.571   4.127  25.524  0.00  0.00    -0.354 OA
BRANCH   8   5
ATOM      1  F   UNL     1       0.038   5.330  24.976  0.00  0.00    -0.204 F 
ATOM      2  C   UNL     1      -0.707   4.976  24.991  0.00  0.00    +0.140 A 
ATOM      3  C   UNL     1      -0.774   4.154  24.951  0.00  0.00    +0.030 A 
ATOM      4  C   UNL     1      -1.519   3.800  24.965  0.00  0.00    +0.005 A 
ATOM      5  C   UNL     1      -2.197   4.268  25.021  0.00  0.00    +0.037 A 
ATOM      6  C   UNL     1      -2.129   5.089  25.061  0.00  0.00    +0.005 A 
ATOM      7  C   UNL     1      -1.384   5.443  25.047  0.00  0.00    +0.030 A 
ENDBRANCH   8   5
ENDBRANCH  11  10
ENDBRANCH  12  11
BRANCH  17  18
ATOM     18  C   UNL     1      -4.356   0.868  24.481  0.00  0.00    +0.087 C 
BRANCH  18  19
ATOM     19  C   UNL     1      -4.194   0.075  24.640  0.00  0.00    +0.246 C 
ATOM     20  O   UNL     1      -4.293  -0.222  25.403  0.00  0.00    -0.273 OA
ATOM     21  N   UNL     1      -3.934  -0.422  24.034  0.00  0.00    -0.179 NA
BRANCH  21  22
ATOM     22  C   UNL     1      -3.772  -1.215  24.193  0.00  0.00    +0.073 A 
ATOM     23  C   UNL     1      -3.101  -1.421  24.625  0.00  0.00    +0.017 A 
ATOM     24  C   UNL     1      -2.938  -2.213  24.784  0.00  0.00    +0.001 A 
ATOM     25  C   UNL     1      -3.448  -2.802  24.510  0.00  0.00    +0.000 A 
ATOM     26  C   UNL     1      -4.119  -2.597  24.078  0.00  0.00    +0.001 A 
ATOM     27  C   UNL     1      -4.282  -1.803  23.919  0.00  0.00    +0.017 A 
ENDBRANCH  21  22
ENDBRANCH  18  19
ENDBRANCH  17  18
TORSDOF 6
ENDMDL
MODEL 3
REMARK VINA RESULT:     -12.5      2.991      6.293
REMARK  Name = 
REMARK  6 active torsions:
REMARK  status: ('A' for Active; 'I' for Inactive)
REMARK    1  A    between atoms: C_5  and  C_8
REMARK    2  A    between atoms: C_10  and  C_11
REMARK    3  A    between atoms: C_11  and  C_12
REMARK    4  A    between atoms: C_17  and  C_18
REMARK    5  A    between atoms: C_18  and  C_19
REMARK    6  A    between atoms: N_21  and  C_22
REMARK                            x       y       z     vdW  Elec       q    Type
REMARK                         _______ _______ _______ _____ _____    ______ ____
ROOT
ATOM     12  C   UNL     1      -4.896   2.050  24.928  0.00  0.00    +0.024 C 
ATOM     13  C   UNL     1      -5.535   1.835  25.403  0.00  0.00    +0.089 C 
ATOM     14  N   UNL     1      -5.910   2.402  25.871  0.00  0.00    -0.218 NA
ATOM     15  C   UNL     1      -5.646   3.183  25.863  0.00  0.00    +0.089 C 
ATOM     16  C   UNL     1      -5.006   3.398  25.387  0.00  0.00    +0.019 C 
ATOM     17  C   UNL     1      -4.632   2.831  24.920  0.00  0.00    +0.012 C 
ENDROOT
BRANCH  12  11
ATOM     11  C   UNL     1      -4.521   1.482  24.460  0.00  0.00    +0.051 C 
BRANCH  11  10
ATOM      8  C   UNL     1      -4.121  -0.580  24.839  0.00  0.00    +0.177 A 
ATOM      9  C   UNL     1      -4.213   0.052  24.316  0.00  0.00    +0.058 A 
ATOM     10  C   UNL     1      -4.386   0.725  24.759  0.00  0.00    +0.101 A 
ATOM     28  N   UNL     1      -4.400   0.510  25.555  0.00  0.00    -0.081 NA
ATOM     29  O   UNL     1      -4.236  -0.296  25.605  0.00  0.00    -0.354 OA
BRANCH   8   5
ATOM      1  F   UNL     1      -3.413  -3.695  24.010  0.00  0.00    -0.204 F 
ATOM      2  C   UNL     1      -3.590  -2.916  24.217  0.00  0.00    +0.140 A 
ATOM      3  C   UNL     1      -4.129  -2.482  23.767  0.00  0.00    +0.030 A 
ATOM      4  C   UNL     1      -4.306  -1.704  23.975  0.00  0.00    +0.005 A 
ATOM      5  C   UNL     1      -3.944  -1.359  24.632  0.00  0.00    +0.037 A 
ATOM      6  C   UNL     1      -3.405  -1.793  25.081  0.00  0.00    +0.005 A 
ATOM      7  C   UNL     1      -3.228  -2.572  24.873  0.00  0.00    +0.030 A 
ENDBRANCH   8   5
ENDBRANCH  11  10
ENDBRANCH  12  11
BRANCH  17  18
ATOM     18  C   UNL     1      -3.992   3.045  24.444  0.00  0.00    +0.087 C 
BRANCH  18  19
ATOM     19  C   UNL     1      -3.358   3.461  24.768  0.00  0.00    +0.246 C 
ATOM     20  O   UNL     1      -3.459   3.889  25.465  0.00  0.00    -0.273 OA
ATOM     21  N   UNL     1      -2.622   3.449  24.394  0.00  0.00    -0.179 NA
BRANCH  21  22
ATOM     22  C   UNL     1      -1.988   3.864  24.718  0.00  0.00    +0.073 A 
ATOM     23  C   UNL     1      -1.380   3.458  25.098  0.00  0.00    +0.017 A 
ATOM     24  C   UNL     1      -0.745   3.873  25.423  0.00  0.00    +0.001 A 
ATOM     25  C   UNL     1      -0.719   4.696  25.367  0.00  0.00    +0.000 A 
ATOM     26  C   UNL     1      -1.327   5.103  24.987  0.00  0.00    +0.001 A 
ATOM     27  C   UNL     1      -1.963   4.687  24.662  0.00  0.00    +0.017 A 
ENDBRANCH  21  22
ENDBRANCH  18  19
ENDBRANCH  17  18
TORSDOF 6
ENDMDL
MODEL 4
REMARK VINA RESULT:     -12.3      1.903      5.490
REMARK  Name = 
REMARK  6 active torsions:
REMARK  status: ('A' for Active; 'I' for Inactive)
REMARK    1  A    between atoms: C_5  and  C_8
REMARK    2  A    between atoms: C_10  and  C_11
REMARK    3  A    between atoms: C_11  and  C_12
REMARK    4  A    between atoms: C_17  and  C_18
REMARK    5  A    between atoms: C_18  and  C_19
REMARK    6  A    between atoms: N_21  and  C_22
REMARK                            x       y       z     vdW  Elec       q    Type
REMARK                         _______ _______ _______ _____ _____    ______ ____
ROOT
ATOM     12  C   UNL     1      -0.495   0.426  24.803  0.00  0.00    +0.024 C 
ATOM     13  C   UNL     1      -0.115  -0.038  24.235  0.00  0.00    +0.089 C 
ATOM     14  N   UNL     1       0.356   0.318  23.660  0.00  0.00    -0.218 NA
ATOM     15  C   UNL     1       0.449   1.138  23.652  0.00  0.00    +0.089 C 
ATOM     16  C   UNL     1       0.069   1.601  24.220  0.00  0.00    +0.019 C 
ATOM     17  C   UNL     1      -0.402   1.245  24.795  0.00  0.00    +0.012 C 
ENDROOT
BRANCH  12  11
ATOM     11  C   UNL     1      -0.967   0.069  25.379  0.00  0.00    +0.051 C 
BRANCH  11  10
ATOM      8  C   UNL     1      -2.279  -1.518  24.815  0.00  0.00    +0.177 A 
ATOM      9  C   UNL     1      -2.111  -0.713  24.888  0.00  0.00    +0.058 A 
ATOM     10  C   UNL     1      -1.356  -0.639  25.211  0.00  0.00    +0.101 A 
ATOM     28  N   UNL     1      -1.058  -1.397  25.339  0.00  0.00    -0.081 NA
ATOM     29  O   UNL     1      -1.628  -1.940  25.094  0.00  0.00    -0.354 OA
BRANCH   8   5
ATOM      1  F   UNL     1      -5.067  -2.816  23.619  0.00  0.00    -0.204 F 
ATOM      2  C   UNL     1      -4.370  -2.492  23.918  0.00  0.00    +0.140 A 
ATOM      3  C   UNL     1      -4.267  -1.673  23.926  0.00  0.00    +0.030 A 
ATOM      4  C   UNL     1      -3.570  -1.348  24.225  0.00  0.00    +0.005 A 
ATOM      5  C   UNL     1      -2.976  -1.843  24.516  0.00  0.00    +0.037 A 
ATOM      6  C   UNL     1      -3.080  -2.661  24.508  0.00  0.00    +0.005 A 
ATOM      7  C   UNL     1      -3.777  -2.985  24.209  0.00  0.00    +0.030 A 
ENDBRANCH   8   5
ENDBRANCH  11  10
ENDBRANCH  12  11
BRANCH  17  18
ATOM     18  C   UNL     1      -0.782   1.709  25.363  0.00  0.00    +0.087 C 
BRANCH  18  19
ATOM     19  C   UNL     1      -1.051   2.463  25.167  0.00  0.00    +0.246 C 
ATOM     20  O   UNL     1      -1.420   2.594  24.441  0.00  0.00    -0.273 OA
ATOM     21  N   UNL     1      -0.949   3.088  25.696  0.00  0.00    -0.179 NA
BRANCH  21  22
ATOM     22  C   UNL     1      -1.218   3.842  25.500  0.00  0.00    +0.073 A 
ATOM     23  C   UNL     1      -1.992   4.064  25.678  0.00  0.00    +0.017 A 
ATOM     24  C   UNL     1      -2.262   4.818  25.482  0.00  0.00    +0.001 A 
ATOM     25  C   UNL     1      -1.756   5.352  25.108  0.00  0.00    +0.000 A 
ATOM     26  C   UNL     1      -0.982   5.131  24.930  0.00  0.00    +0.001 A 
ATOM     27  C   UNL     1      -0.712   4.376  25.126  0.00  0.00    +0.017 A 
ENDBRANCH  21  22
ENDBRANCH  18  19
ENDBRANCH  17  18
TORSDOF 6
ENDMDL
MODEL 5
REMARK VINA RESULT:     -11.4      2.578      5.037
REMARK  Name = 
REMARK  6 active torsions:
REMARK  status: ('A' for Active; 'I' for Inactive)
REMARK    1  A    between atoms: C_5  and  C_8
REMARK    2  A    between atoms: C_10  and  C_11
REMARK    3  A    between atoms: C_11  and  C_12
REMARK    4  A    between atoms: C_17  and  C_18
REMARK    5  A    between atoms: C_18  and  C_19
REMARK    6  A    between atoms: N_21  and  C_22
REMARK                            x       y       z     vdW  Elec       q    Type
REMARK                         _______ _______ _______ _____ _____    ______ ____
ROOT
ATOM     12  C   UNL     1      -0.976   1.822  24.944  0.00  0.00    +0.024 C 
ATOM     13  C   UNL     1      -0.328   1.631  25.418  0.00  0.00    +0.089 C 
ATOM     14  N   UNL     1      -0.116   2.124  26.044  0.00  0.00    -0.218 NA
ATOM     15  C   UNL     1      -0.551   2.808  26.196  0.00  0.00    +0.089 C 
ATOM     16  C   UNL     1      -1.200   2.998  25.723  0.00  0.00    +0.019 C 
ATOM     17  C   UNL     1      -1.412   2.505  25.097  0.00  0.00    +0.012 C 
ENDROOT
BRANCH  12  11
ATOM     11  C   UNL     1      -1.189   1.328  24.317  0.00  0.00    +0.051 C 
BRANCH  11  10
ATOM      8  C   UNL     1      -1.691  -0.725  24.616  0.00  0.00    +0.177 A 
ATOM      9  C   UNL     1      -1.912   0.064  24.516  0.00  0.00    +0.058 A 
ATOM     10  C   UNL     1      -1.225   0.512  24.430  0.00  0.00    +0.101 A 
ATOM     28  N   UNL     1      -0.580   0.000  24.477  0.00  0.00    -0.081 NA
ATOM     29  O   UNL     1      -0.868  -0.764  24.592  0.00  0.00    -0.354 OA
BRANCH   8   5
ATOM      1  F   UNL     1      -3.743  -3.275  25.038  0.00  0.00    -0.204 F 
ATOM      2  C   UNL     1      -3.230  -2.637  24.932  0.00  0.00    +0.140 A 
ATOM      3  C   UNL     1      -2.513  -2.746  24.539  0.00  0.00    +0.030 A 
ATOM      4  C   UNL     1      -2.000  -2.109  24.433  0.00  0.00    +0.005 A 
ATOM      5  C   UNL     1      -2.204  -1.362  24.721  0.00  0.00    +0.037 A 
ATOM      6  C   UNL     1      -2.921  -1.255  25.115  0.00  0.00    +0.005 A 
ATOM      7  C   UNL     1      -3.434  -1.892  25.220  0.00  0.00    +0.030 A 
ENDBRANCH   8   5
ENDBRANCH  11  10
ENDBRANCH  12  11
BRANCH  17  18
ATOM     18  C   UNL     1      -2.060   2.696  24.623  0.00  0.00    +0.087 C 
BRANCH  18  19
ATOM     19  C   UNL     1      -2.778   2.905  24.971  0.00  0.00    +0.246 C 
ATOM     20  O   UNL     1      -2.786   3.322  25.682  0.00  0.00    -0.273 OA
ATOM     21  N   UNL     1      -3.489   2.697  24.607  0.00  0.00    -0.179 NA
BRANCH  21  22
ATOM     22  C   UNL     1      -4.207   2.905  24.955  0.00  0.00    +0.073 A 
ATOM     23  C   UNL     1      -4.679   2.328  25.305  0.00  0.00    +0.017 A 
ATOM     24  C   UNL     1      -5.397   2.536  25.653  0.00  0.00    +0.001 A 
ATOM     25  C   UNL     1      -5.643   3.324  25.651  0.00  0.00    +0.000 A 
ATOM     26  C   UNL     1      -5.172   3.902  25.301  0.00  0.00    +0.001 A 
ATOM     27  C   UNL     1      -4.453   3.694  24.952  0.00  0.00    +0.017 A 
ENDBRANCH  21  22
ENDBRANCH  18  19
ENDBRANCH  17  18
TORSDOF 6
ENDMDL
