REMARK  Name = 
REMARK  4 active torsions:
REMARK  status: ('A' for Active; 'I' for Inactive)
REMARK    1  A    between atoms: S_2  and  C_5
REMARK    2  A    between atoms: C_8  and  O_9
REMARK    3  A    between atoms: O_9  and  C_10
REMARK    4  A    between atoms: C_17  and  C_19
REMARK                            x       y       z     vdW  Elec       q    Type
REMARK                         _______ _______ _______ _____ _____    ______ ____
ROOT
ATOM     10  C   UNL     1      -0.401  -3.868   0.000  0.00  0.00    +0.215 C 
ATOM     11  C   UNL     1       0.281  -3.403   0.000  0.00  0.00    +0.187 C 
ATOM     12  O   UNL     1       1.069  -3.646   0.000  0.00  0.00    -0.348 OA
ATOM     13  C   UNL     1       1.371  -4.414   0.000  0.00  0.00    +0.164 C 
ATOM     14  C   UNL     1       0.958  -5.128   0.000  0.00  0.00    +0.126 C 
ATOM     15  N   UNL     1       0.142  -5.251   0.000  0.00  0.00    -0.268 N 
ATOM     16  C   UNL     1      -0.462  -4.690   0.000  0.00  0.00    +0.140 C 
ATOM     17  C   UNL     1      -0.101  -6.040   0.000  0.00  0.00    +0.268 C 
ATOM     18  O   UNL     1       0.460  -6.644   0.000  0.00  0.00    -0.268 OA
ENDROOT
BRANCH  17  19
ATOM     19  C   UNL     1      -0.905  -6.223   0.000  0.00  0.00    +0.154 A 
ATOM     20  C   UNL     1      -1.148  -7.012   0.000  0.00  0.00    +0.123 A 
ATOM     21  N   UNL     1      -1.953  -7.195   0.000  0.00  0.00    -0.239 NA
ATOM     22  C   UNL     1      -2.514  -6.590   0.000  0.00  0.00    +0.120 A 
ATOM     23  C   UNL     1      -2.271  -5.802   0.000  0.00  0.00    +0.120 A 
ATOM     24  N   UNL     1      -1.466  -5.619   0.000  0.00  0.00    -0.236 NA
ENDBRANCH  17  19
BRANCH  10   9
ATOM      9  O   UNL     1      -1.115  -3.455   0.000  0.00  0.00    -0.475 OA
BRANCH   9   8
ATOM      5  C   UNL     1      -1.115  -0.980   0.000  0.00  0.00    +0.106 A 
ATOM      6  C   UNL     1      -0.401  -1.393   0.000  0.00  0.00    +0.021 A 
ATOM      7  C   UNL     1      -0.401  -2.217   0.000  0.00  0.00    +0.038 A 
ATOM      8  C   UNL     1      -1.115  -2.630   0.000  0.00  0.00    +0.139 A 
ATOM     25  C   UNL     1      -1.830  -2.217   0.000  0.00  0.00    +0.038 A 
ATOM     26  C   UNL     1      -1.830  -1.393   0.000  0.00  0.00    +0.021 A 
BRANCH   5   2
ATOM      1  C   UNL     1      -1.115   0.670   0.000  0.00  0.00    +0.182 C 
ATOM      2  S   UNL     1      -1.115  -0.155   0.000  0.00  0.00    +0.010 S 
ATOM      3  O   UNL     1      -1.940  -0.155   0.000  0.00  0.00    -0.169 OA
ATOM      4  O   UNL     1      -0.290  -0.155   0.000  0.00  0.00    -0.169 OA
ENDBRANCH   5   2
ENDBRANCH   9   8
ENDBRANCH  10   9
TORSDOF 4
