MODEL 1
REMARK VINA RESULT:     -11.3      0.000      0.000
REMARK  Name = 
REMARK  10 active torsions:
REMARK  status: ('A' for Active; 'I' for Inactive)
REMARK    1  A    between atoms: C_2  and  C_4
REMARK    2  A    between atoms: C_6  and  C_7
REMARK    3  A    between atoms: C_7  and  C_8
REMARK    4  A    between atoms: C_11  and  C_12
REMARK    5  A    between atoms: C_12  and  O_13
REMARK    6  A    between atoms: O_13  and  C_14
REMARK    7  A    between atoms: C_25  and  C_26
REMARK    8  A    between atoms: C_26  and  N_27
REMARK    9  A    between atoms: N_27  and  C_28
REMARK   10  A    between atoms: C_28  and  C_29
REMARK                            x       y       z     vdW  Elec       q    Type
REMARK                         _______ _______ _______ _____ _____    ______ ____
ROOT
ATOM      4  C   UNL     1      -2.180   2.087  23.463  0.00  0.00    +0.006 C 
ATOM      5  C   UNL     1      -1.432   1.744  23.517  0.00  0.00    +0.005 C 
ATOM      6  C   UNL     1      -0.972   1.861  24.191  0.00  0.00    +0.027 C 
ATOM     22  C   UNL     1      -1.260   2.321  24.812  0.00  0.00    -0.048 C 
ATOM     23  C   UNL     1      -0.800   2.438  25.487  0.00  0.00    +0.026 C 
ATOM     24  C   UNL     1      -2.009   2.664  24.758  0.00  0.00    -0.033 C 
ATOM     25  C   UNL     1      -2.469   2.547  24.085  0.00  0.00    +0.039 C 
ENDROOT
BRANCH   4   2
ATOM      1  C   UNL     1      -3.088   1.281  22.710  0.00  0.00    +0.000 C 
ATOM      2  C   UNL     1      -2.640   1.969  22.788  0.00  0.00    +0.000 C 
ATOM      3  C   UNL     1      -2.652   2.540  22.194  0.00  0.00    +0.000 C 
ENDBRANCH   4   2
BRANCH   6   7
ATOM      7  C   UNL     1      -0.223   1.518  24.245  0.00  0.00    +0.091 C 
BRANCH   7   8
ATOM      8  C   UNL     1      -0.135   0.703  24.149  0.00  0.00    +0.227 A 
ATOM      9  N   UNL     1       0.441   0.328  23.693  0.00  0.00    -0.112 NA
ATOM     10  N   UNL     1       0.325  -0.487  23.755  0.00  0.00    -0.108 NA
ATOM     11  C   UNL     1      -0.323  -0.615  24.250  0.00  0.00    +0.270 A 
ATOM     21  O   UNL     1      -0.607   0.120  24.493  0.00  0.00    -0.420 OA
BRANCH  11  12
ATOM     12  C   UNL     1      -0.632  -1.349  24.463  0.00  0.00    +0.291 C 
BRANCH  12  13
ATOM     13  O   UNL     1      -1.221  -1.397  25.040  0.00  0.00    -0.465 OA
BRANCH  13  14
ATOM     14  C   UNL     1      -1.904  -1.836  24.897  0.00  0.00    +0.139 A 
ATOM     15  C   UNL     1      -2.636  -1.555  25.154  0.00  0.00    +0.039 A 
ATOM     16  C   UNL     1      -3.319  -1.995  25.011  0.00  0.00    +0.033 A 
ATOM     17  C   UNL     1      -3.270  -2.715  24.610  0.00  0.00    +0.140 A 
ATOM     18  F   UNL     1      -3.953  -3.155  24.467  0.00  0.00    -0.204 F 
ATOM     19  C   UNL     1      -2.538  -2.995  24.354  0.00  0.00    +0.033 A 
ATOM     20  C   UNL     1      -1.855  -2.556  24.497  0.00  0.00    +0.039 A 
ENDBRANCH  13  14
ENDBRANCH  12  13
ENDBRANCH  11  12
ENDBRANCH   7   8
ENDBRANCH   6   7
BRANCH  25  26
ATOM     26  C   UNL     1      -3.217   2.890  24.030  0.00  0.00    +0.093 C 
BRANCH  26  27
ATOM     27  N   UNL     1      -3.701   2.934  24.697  0.00  0.00    -0.213 NA
BRANCH  27  28
ATOM     28  C   UNL     1      -4.476   3.203  24.627  0.00  0.00    +0.117 C 
BRANCH  28  29
ATOM     29  C   UNL     1      -5.062   2.912  25.132  0.00  0.00    +0.014 A 
ATOM     30  C   UNL     1      -5.526   2.272  24.898  0.00  0.00    +0.000 A 
ATOM     31  C   UNL     1      -6.111   1.981  25.402  0.00  0.00    +0.020 A 
ATOM     32  C   UNL     1      -6.231   2.331  26.140  0.00  0.00    +0.099 A 
ATOM     33  N   UNL     1      -5.766   2.972  26.373  0.00  0.00    -0.243 NA
ATOM     34  C   UNL     1      -5.182   3.262  25.868  0.00  0.00    +0.096 A 
ENDBRANCH  28  29
ENDBRANCH  27  28
ENDBRANCH  26  27
ENDBRANCH  25  26
TORSDOF 10
ENDMDL
MODEL 2
REMARK VINA RESULT:     -10.8      2.496      5.780
REMARK  Name = 
REMARK  10 active torsions:
REMARK  status: ('A' for Active; 'I' for Inactive)
REMARK    1  A    between atoms: C_2  and  C_4
REMARK    2  A    between atoms: C_6  and  C_7
REMARK    3  A    between atoms: C_7  and  C_8
REMARK    4  A    between atoms: C_11  and  C_12
REMARK    5  A    between atoms: C_12  and  O_13
REMARK    6  A    between atoms: O_13  and  C_14
REMARK    7  A    between atoms: C_25  and  C_26
REMARK    8  A    between atoms: C_26  and  N_27
REMARK    9  A    between atoms: N_27  and  C_28
REMARK   10  A    between atoms: C_28  and  C_29
REMARK                            x       y       z     vdW  Elec       q    Type
REMARK                         _______ _______ _______ _____ _____    ______ ____
ROOT
ATOM      4  C   UNL     1      -0.649   0.541  24.242  0.00  0.00    +0.006 C 
ATOM      5  C   UNL     1      -1.244   0.207  24.706  0.00  0.00    +0.005 C 
ATOM      6  C   UNL     1      -1.262  -0.608  24.830  0.00  0.00    +0.027 C 
ATOM     22  C   UNL     1      -0.685  -1.090  24.491  0.00  0.00    -0.048 C 
ATOM     23  C   UNL     1      -0.702  -1.905  24.615  0.00  0.00    +0.026 C 
ATOM     24  C   UNL     1      -0.089  -0.756  24.026  0.00  0.00    -0.033 C 
ATOM     25  C   UNL     1      -0.072   0.059  23.902  0.00  0.00    +0.039 C 
ENDROOT
BRANCH   4   2
ATOM      1  C   UNL     1      -1.017   1.682  23.464  0.00  0.00    +0.000 C 
ATOM      2  C   UNL     1      -0.632   1.356  24.118  0.00  0.00    +0.000 C 
ATOM      3  C   UNL     1      -0.229   1.845  24.646  0.00  0.00    +0.000 C 
ENDBRANCH   4   2
BRANCH   6   7
ATOM      7  C   UNL     1      -1.857  -0.942  25.295  0.00  0.00    +0.091 C 
BRANCH   7   8
ATOM      8  C   UNL     1      -2.648  -0.772  25.136  0.00  0.00    +0.227 A 
ATOM      9  N   UNL     1      -3.166  -1.238  24.695  0.00  0.00    -0.112 NA
ATOM     10  N   UNL     1      -3.899  -0.860  24.677  0.00  0.00    -0.108 NA
ATOM     11  C   UNL     1      -3.835  -0.159  25.107  0.00  0.00    +0.270 A 
ATOM     21  O   UNL     1      -3.062  -0.104  25.391  0.00  0.00    -0.420 OA
BRANCH  11  12
ATOM     12  C   UNL     1      -4.437   0.391  25.232  0.00  0.00    +0.291 C 
BRANCH  12  13
ATOM     13  O   UNL     1      -4.546   1.011  24.698  0.00  0.00    -0.465 OA
BRANCH  13  14
ATOM     14  C   UNL     1      -4.864   1.726  24.957  0.00  0.00    +0.139 A 
ATOM     15  C   UNL     1      -4.474   2.435  24.793  0.00  0.00    +0.039 A 
ATOM     16  C   UNL     1      -4.793   3.150  25.052  0.00  0.00    +0.033 A 
ATOM     17  C   UNL     1      -5.501   3.158  25.476  0.00  0.00    +0.140 A 
ATOM     18  F   UNL     1      -5.819   3.873  25.735  0.00  0.00    -0.204 F 
ATOM     19  C   UNL     1      -5.890   2.449  25.640  0.00  0.00    +0.033 A 
ATOM     20  C   UNL     1      -5.572   1.734  25.381  0.00  0.00    +0.039 A 
ENDBRANCH  13  14
ENDBRANCH  12  13
ENDBRANCH  11  12
ENDBRANCH   7   8
ENDBRANCH   6   7
BRANCH  25  26
ATOM     26  C   UNL     1       0.523   0.393  23.438  0.00  0.00    +0.093 C 
BRANCH  26  27
ATOM     27  N   UNL     1       1.239  -0.004  23.336  0.00  0.00    -0.213 NA
BRANCH  27  28
ATOM     28  C   UNL     1       1.720   0.174  22.690  0.00  0.00    +0.117 C 
BRANCH  28  29
ATOM     29  C   UNL     1       2.541   0.193  22.779  0.00  0.00    +0.014 A 
ATOM     30  C   UNL     1       2.946   0.909  22.715  0.00  0.00    +0.000 A 
ATOM     31  C   UNL     1       3.766   0.927  22.804  0.00  0.00    +0.020 A 
ATOM     32  C   UNL     1       4.181   0.230  22.958  0.00  0.00    +0.099 A 
ATOM     33  N   UNL     1       3.774  -0.485  23.022  0.00  0.00    -0.243 NA
ATOM     34  C   UNL     1       2.954  -0.504  22.933  0.00  0.00    +0.096 A 
ENDBRANCH  28  29
ENDBRANCH  27  28
ENDBRANCH  26  27
ENDBRANCH  25  26
TORSDOF 10
ENDMDL
MODEL 3
REMARK VINA RESULT:     -10.8      2.021      4.670
REMARK  Name = 
REMARK  10 active torsions:
REMARK  status: ('A' for Active; 'I' for Inactive)
REMARK    1  A    between atoms: C_2  and  C_4
REMARK    2  A    between atoms: C_6  and  C_7
REMARK    3  A    between atoms: C_7  and  C_8
REMARK    4  A    between atoms: C_11  and  C_12
REMARK    5  A    between atoms: C_12  and  O_13
REMARK    6  A    between atoms: O_13  and  C_14
REMARK    7  A    between atoms: C_25  and  C_26
REMARK    8  A    between atoms: C_26  and  N_27
REMARK    9  A    between atoms: N_27  and  C_28
REMARK   10  A    between atoms: C_28  and  C_29
REMARK                            x       y       z     vdW  Elec       q    Type
REMARK                         _______ _______ _______ _____ _____    ______ ____
ROOT
ATOM      4  C   UNL     1      -0.637   1.421  24.365  0.00  0.00    +0.006 C 
ATOM      5  C   UNL     1      -0.577   2.224  24.546  0.00  0.00    +0.005 C 
ATOM      6  C   UNL     1      -0.516   2.466  25.331  0.00  0.00    +0.027 C 
ATOM     22  C   UNL     1      -0.514   1.907  25.937  0.00  0.00    -0.048 C 
ATOM     23  C   UNL     1      -0.453   2.149  26.723  0.00  0.00    +0.026 C 
ATOM     24  C   UNL     1      -0.574   1.103  25.756  0.00  0.00    -0.033 C 
ATOM     25  C   UNL     1      -0.635   0.861  24.971  0.00  0.00    +0.039 C 
ENDROOT
BRANCH   4   2
ATOM      1  C   UNL     1      -1.420   1.243  23.183  0.00  0.00    +0.000 C 
ATOM      2  C   UNL     1      -0.699   1.178  23.579  0.00  0.00    +0.000 C 
ATOM      3  C   UNL     1      -0.040   0.871  23.190  0.00  0.00    +0.000 C 
ENDBRANCH   4   2
BRANCH   6   7
ATOM      7  C   UNL     1      -0.456   3.270  25.512  0.00  0.00    +0.091 C 
BRANCH   7   8
ATOM      8  C   UNL     1      -1.099   3.770  25.382  0.00  0.00    +0.227 A 
ATOM      9  N   UNL     1      -1.060   4.554  25.128  0.00  0.00    -0.112 NA
ATOM     10  N   UNL     1      -1.831   4.844  25.073  0.00  0.00    -0.108 NA
ATOM     11  C   UNL     1      -2.346   4.239  25.294  0.00  0.00    +0.270 A 
ATOM     21  O   UNL     1      -1.894   3.575  25.485  0.00  0.00    -0.420 OA
BRANCH  11  12
ATOM     12  C   UNL     1      -3.169   4.288  25.319  0.00  0.00    +0.291 C 
BRANCH  12  13
ATOM     13  O   UNL     1      -3.621   3.957  24.712  0.00  0.00    -0.465 OA
BRANCH  13  14
ATOM     14  C   UNL     1      -4.283   3.500  24.894  0.00  0.00    +0.139 A 
ATOM     15  C   UNL     1      -4.399   2.775  24.517  0.00  0.00    +0.039 A 
ATOM     16  C   UNL     1      -5.062   2.318  24.699  0.00  0.00    +0.033 A 
ATOM     17  C   UNL     1      -5.608   2.586  25.257  0.00  0.00    +0.140 A 
ATOM     18  F   UNL     1      -6.270   2.129  25.438  0.00  0.00    -0.204 F 
ATOM     19  C   UNL     1      -5.491   3.311  25.633  0.00  0.00    +0.033 A 
ATOM     20  C   UNL     1      -4.828   3.768  25.451  0.00  0.00    +0.039 A 
ENDBRANCH  13  14
ENDBRANCH  12  13
ENDBRANCH  11  12
ENDBRANCH   7   8
ENDBRANCH   6   7
BRANCH  25  26
ATOM     26  C   UNL     1      -0.695   0.058  24.790  0.00  0.00    +0.093 C 
BRANCH  26  27
ATOM     27  N   UNL     1      -1.237  -0.417  25.192  0.00  0.00    -0.213 NA
BRANCH  27  28
ATOM     28  C   UNL     1      -1.213  -1.236  25.102  0.00  0.00    +0.117 C 
BRANCH  28  29
ATOM     29  C   UNL     1      -1.916  -1.664  25.033  0.00  0.00    +0.014 A 
ATOM     30  C   UNL     1      -2.568  -1.465  25.498  0.00  0.00    +0.000 A 
ATOM     31  C   UNL     1      -3.270  -1.893  25.429  0.00  0.00    +0.020 A 
ATOM     32  C   UNL     1      -3.320  -2.520  24.894  0.00  0.00    +0.099 A 
ATOM     33  N   UNL     1      -2.668  -2.719  24.430  0.00  0.00    -0.243 NA
ATOM     34  C   UNL     1      -1.966  -2.291  24.499  0.00  0.00    +0.096 A 
ENDBRANCH  28  29
ENDBRANCH  27  28
ENDBRANCH  26  27
ENDBRANCH  25  26
TORSDOF 10
ENDMDL
MODEL 4
REMARK VINA RESULT:     -10.7      2.967      4.165
REMARK  Name = 
REMARK  10 active torsions:
REMARK  status: ('A' for Active; 'I' for Inactive)
REMARK    1  A    between atoms: C_2  and  C_4
REMARK    2  A    between atoms: C_6  and  C_7
REMARK    3  A    between atoms: C_7  and  C_8
REMARK    4  A    between atoms: C_11  and  C_12
REMARK    5  A    between atoms: C_12  and  O_13
REMARK    6  A    between atoms: O_13  and  C_14
REMARK    7  A    between atoms: C_25  and  C_26
REMARK    8  A    between atoms: C_26  and  N_27
REMARK    9  A    between atoms: N_27  and  C_28
REMARK   10  A    between atoms: C_28  and  C_29
REMARK                            x       y       z     vdW  Elec       q    Type
REMARK                         _______ _______ _______ _____ _____    ______ ____
ROOT
ATOM      4  C   UNL     1      -0.996   1.790  24.682  0.00  0.00    +0.006 C 
ATOM      5  C   UNL     1      -0.477   1.169  24.520  0.00  0.00    +0.005 C 
ATOM      6  C   UNL     1      -0.772   0.414  24.370  0.00  0.00    +0.027 C 
ATOM     22  C   UNL     1      -1.585   0.278  24.381  0.00  0.00    -0.048 C 
ATOM     23  C   UNL     1      -1.880  -0.478  24.231  0.00  0.00    +0.026 C 
ATOM     24  C   UNL     1      -2.105   0.899  24.543  0.00  0.00    -0.033 C 
ATOM     25  C   UNL     1      -1.810   1.654  24.693  0.00  0.00    +0.039 C 
ENDROOT
BRANCH   4   2
ATOM      1  C   UNL     1      -0.476   2.755  25.598  0.00  0.00    +0.000 C 
ATOM      2  C   UNL     1      -0.701   2.546  24.832  0.00  0.00    +0.000 C 
ATOM      3  C   UNL     1      -0.632   3.091  24.218  0.00  0.00    +0.000 C 
ENDBRANCH   4   2
BRANCH   6   7
ATOM      7  C   UNL     1      -0.252  -0.207  24.208  0.00  0.00    +0.091 C 
BRANCH   7   8
ATOM      8  C   UNL     1       0.345  -0.110  23.648  0.00  0.00    +0.227 A 
ATOM      9  N   UNL     1       0.270  -0.225  22.834  0.00  0.00    -0.112 NA
ATOM     10  N   UNL     1       1.002  -0.067  22.486  0.00  0.00    -0.108 NA
ATOM     11  C   UNL     1       1.528   0.146  23.084  0.00  0.00    +0.270 A 
ATOM     21  O   UNL     1       1.123   0.119  23.802  0.00  0.00    -0.420 OA
BRANCH  11  12
ATOM     12  C   UNL     1       2.321   0.349  22.982  0.00  0.00    +0.291 C 
BRANCH  12  13
ATOM     13  O   UNL     1       2.883  -0.239  22.840  0.00  0.00    -0.465 OA
BRANCH  13  14
ATOM     14  C   UNL     1       3.672  -0.112  23.043  0.00  0.00    +0.139 A 
ATOM     15  C   UNL     1       4.089  -0.693  23.455  0.00  0.00    +0.039 A 
ATOM     16  C   UNL     1       4.878  -0.567  23.659  0.00  0.00    +0.033 A 
ATOM     17  C   UNL     1       5.251   0.139  23.451  0.00  0.00    +0.140 A 
ATOM     18  F   UNL     1       6.040   0.265  23.654  0.00  0.00    -0.204 F 
ATOM     19  C   UNL     1       4.833   0.719  23.039  0.00  0.00    +0.033 A 
ATOM     20  C   UNL     1       4.044   0.593  22.835  0.00  0.00    +0.039 A 
ENDBRANCH  13  14
ENDBRANCH  12  13
ENDBRANCH  11  12
ENDBRANCH   7   8
ENDBRANCH   6   7
BRANCH  25  26
ATOM     26  C   UNL     1      -2.329   2.275  24.855  0.00  0.00    +0.093 C 
BRANCH  26  27
ATOM     27  N   UNL     1      -3.140   2.133  24.905  0.00  0.00    -0.213 NA
BRANCH  27  28
ATOM     28  C   UNL     1      -3.672   2.761  24.861  0.00  0.00    +0.117 C 
BRANCH  28  29
ATOM     29  C   UNL     1      -4.445   2.668  25.136  0.00  0.00    +0.014 A 
ATOM     30  C   UNL     1      -4.948   2.123  24.775  0.00  0.00    +0.000 A 
ATOM     31  C   UNL     1      -5.720   2.030  25.049  0.00  0.00    +0.020 A 
ATOM     32  C   UNL     1      -5.990   2.482  25.685  0.00  0.00    +0.099 A 
ATOM     33  N   UNL     1      -5.486   3.027  26.046  0.00  0.00    -0.243 NA
ATOM     34  C   UNL     1      -4.714   3.120  25.771  0.00  0.00    +0.096 A 
ENDBRANCH  28  29
ENDBRANCH  27  28
ENDBRANCH  26  27
ENDBRANCH  25  26
TORSDOF 10
ENDMDL
MODEL 5
REMARK VINA RESULT:     -10.6      2.602      5.590
REMARK  Name = 
REMARK  10 active torsions:
REMARK  status: ('A' for Active; 'I' for Inactive)
REMARK    1  A    between atoms: C_2  and  C_4
REMARK    2  A    between atoms: C_6  and  C_7
REMARK    3  A    between atoms: C_7  and  C_8
REMARK    4  A    between atoms: C_11  and  C_12
REMARK    5  A    between atoms: C_12  and  O_13
REMARK    6  A    between atoms: O_13  and  C_14
REMARK    7  A    between atoms: C_25  and  C_26
REMARK    8  A    between atoms: C_26  and  N_27
REMARK    9  A    between atoms: N_27  and  C_28
REMARK   10  A    between atoms: C_28  and  C_29
REMARK                            x       y       z     vdW  Elec       q    Type
REMARK                         _______ _______ _______ _____ _____    ______ ____
ROOT
ATOM      4  C   UNL     1      -3.839   1.447  23.982  0.00  0.00    +0.006 C 
ATOM      5  C   UNL     1      -4.199   2.121  24.292  0.00  0.00    +0.005 C 
ATOM      6  C   UNL     1      -4.874   2.051  24.759  0.00  0.00    +0.027 C 
ATOM     22  C   UNL     1      -5.191   1.306  24.917  0.00  0.00    -0.048 C 
ATOM     23  C   UNL     1      -5.867   1.235  25.385  0.00  0.00    +0.026 C 
ATOM     24  C   UNL     1      -4.831   0.630  24.607  0.00  0.00    -0.033 C 
ATOM     25  C   UNL     1      -4.156   0.701  24.140  0.00  0.00    +0.039 C 
ENDROOT
BRANCH   4   2
ATOM      1  C   UNL     1      -2.419   1.377  23.842  0.00  0.00    +0.000 C 
ATOM      2  C   UNL     1      -3.163   1.518  23.515  0.00  0.00    +0.000 C 
ATOM      3  C   UNL     1      -3.231   1.730  22.721  0.00  0.00    +0.000 C 
ENDBRANCH   4   2
BRANCH   6   7
ATOM      7  C   UNL     1      -5.235   2.726  25.069  0.00  0.00    +0.091 C 
BRANCH   7   8
ATOM      8  C   UNL     1      -4.799   3.250  25.534  0.00  0.00    +0.227 A 
ATOM      9  N   UNL     1      -4.948   3.437  26.323  0.00  0.00    -0.112 NA
ATOM     10  N   UNL     1      -4.378   3.981  26.569  0.00  0.00    -0.108 NA
ATOM     11  C   UNL     1      -3.876   4.130  25.931  0.00  0.00    +0.270 A 
ATOM     21  O   UNL     1      -4.136   3.678  25.291  0.00  0.00    -0.420 OA
BRANCH  11  12
ATOM     12  C   UNL     1      -3.229   4.641  25.931  0.00  0.00    +0.291 C 
BRANCH  12  13
ATOM     13  O   UNL     1      -2.474   4.350  26.092  0.00  0.00    -0.465 OA
BRANCH  13  14
ATOM     14  C   UNL     1      -1.838   4.567  25.613  0.00  0.00    +0.139 A 
ATOM     15  C   UNL     1      -1.810   5.323  25.284  0.00  0.00    +0.039 A 
ATOM     16  C   UNL     1      -1.174   5.540  24.805  0.00  0.00    +0.033 A 
ATOM     17  C   UNL     1      -0.567   5.001  24.655  0.00  0.00    +0.140 A 
ATOM     18  F   UNL     1       0.069   5.218  24.177  0.00  0.00    -0.204 F 
ATOM     19  C   UNL     1      -0.596   4.245  24.985  0.00  0.00    +0.033 A 
ATOM     20  C   UNL     1      -1.232   4.028  25.464  0.00  0.00    +0.039 A 
ENDBRANCH  13  14
ENDBRANCH  12  13
ENDBRANCH  11  12
ENDBRANCH   7   8
ENDBRANCH   6   7
BRANCH  25  26
ATOM     26  C   UNL     1      -3.795   0.027  23.830  0.00  0.00    +0.093 C 
BRANCH  26  27
ATOM     27  N   UNL     1      -3.909  -0.706  24.192  0.00  0.00    -0.213 NA
BRANCH  27  28
ATOM     28  C   UNL     1      -3.744  -1.399  23.778  0.00  0.00    +0.117 C 
BRANCH  28  29
ATOM     29  C   UNL     1      -3.385  -2.035  24.165  0.00  0.00    +0.014 A 
ATOM     30  C   UNL     1      -3.848  -2.644  24.475  0.00  0.00    +0.000 A 
ATOM     31  C   UNL     1      -3.489  -3.278  24.861  0.00  0.00    +0.020 A 
ATOM     32  C   UNL     1      -2.668  -3.304  24.938  0.00  0.00    +0.099 A 
ATOM     33  N   UNL     1      -2.206  -2.695  24.628  0.00  0.00    -0.243 NA
ATOM     34  C   UNL     1      -2.565  -2.060  24.242  0.00  0.00    +0.096 A 
ENDBRANCH  28  29
ENDBRANCH  27  28
ENDBRANCH  26  27
ENDBRANCH  25  26
TORSDOF 10
ENDMDL
MODEL 6
REMARK VINA RESULT:     -10.2      1.611      4.685
REMARK  Name = 
REMARK  10 active torsions:
REMARK  status: ('A' for Active; 'I' for Inactive)
REMARK    1  A    between atoms: C_2  and  C_4
REMARK    2  A    between atoms: C_6  and  C_7
REMARK    3  A    between atoms: C_7  and  C_8
REMARK    4  A    between atoms: C_11  and  C_12
REMARK    5  A    between atoms: C_12  and  O_13
REMARK    6  A    between atoms: O_13  and  C_14
REMARK    7  A    between atoms: C_25  and  C_26
REMARK    8  A    between atoms: C_26  and  N_27
REMARK    9  A    between atoms: N_27  and  C_28
REMARK   10  A    between atoms: C_28  and  C_29
REMARK                            x       y       z     vdW  Elec       q    Type
REMARK                         _______ _______ _______ _____ _____    ______ ____
ROOT
ATOM      4  C   UNL     1      -1.131   2.254  24.964  0.00  0.00    +0.006 C 
ATOM      5  C   UNL     1      -1.937   2.411  24.895  0.00  0.00    +0.005 C 
ATOM      6  C   UNL     1      -2.295   2.411  24.153  0.00  0.00    +0.027 C 
ATOM     22  C   UNL     1      -1.847   2.253  23.478  0.00  0.00    -0.048 C 
ATOM     23  C   UNL     1      -2.206   2.253  22.735  0.00  0.00    +0.026 C 
ATOM     24  C   UNL     1      -1.040   2.096  23.547  0.00  0.00    -0.033 C 
ATOM     25  C   UNL     1      -0.682   2.096  24.290  0.00  0.00    +0.039 C 
ENDROOT
BRANCH   4   2
ATOM      1  C   UNL     1      -0.720   1.554  26.140  0.00  0.00    +0.000 C 
ATOM      2  C   UNL     1      -0.772   2.255  25.708  0.00  0.00    +0.000 C 
ATOM      3  C   UNL     1      -0.466   2.955  26.017  0.00  0.00    +0.000 C 
ENDBRANCH   4   2
BRANCH   6   7
ATOM      7  C   UNL     1      -3.103   2.568  24.084  0.00  0.00    +0.091 C 
BRANCH   7   8
ATOM      8  C   UNL     1      -3.654   2.042  24.398  0.00  0.00    +0.227 A 
ATOM      9  N   UNL     1      -4.269   2.233  24.914  0.00  0.00    -0.112 NA
ATOM     10  N   UNL     1      -4.683   1.540  25.087  0.00  0.00    -0.108 NA
ATOM     11  C   UNL     1      -4.323   0.920  24.678  0.00  0.00    +0.270 A 
ATOM     21  O   UNL     1      -3.688   1.230  24.252  0.00  0.00    -0.420 OA
BRANCH  11  12
ATOM     12  C   UNL     1      -4.558   0.130  24.692  0.00  0.00    +0.291 C 
BRANCH  12  13
ATOM     13  O   UNL     1      -4.169  -0.407  25.183  0.00  0.00    -0.465 OA
BRANCH  13  14
ATOM     14  C   UNL     1      -4.008  -1.170  24.914  0.00  0.00    +0.139 A 
ATOM     15  C   UNL     1      -3.496  -1.658  25.340  0.00  0.00    +0.039 A 
ATOM     16  C   UNL     1      -3.336  -2.421  25.071  0.00  0.00    +0.033 A 
ATOM     17  C   UNL     1      -3.686  -2.697  24.377  0.00  0.00    +0.140 A 
ATOM     18  F   UNL     1      -3.525  -3.460  24.108  0.00  0.00    -0.204 F 
ATOM     19  C   UNL     1      -4.198  -2.209  23.952  0.00  0.00    +0.033 A 
ATOM     20  C   UNL     1      -4.359  -1.446  24.221  0.00  0.00    +0.039 A 
ENDBRANCH  13  14
ENDBRANCH  12  13
ENDBRANCH  11  12
ENDBRANCH   7   8
ENDBRANCH   6   7
BRANCH  25  26
ATOM     26  C   UNL     1       0.125   1.939  24.359  0.00  0.00    +0.093 C 
BRANCH  26  27
ATOM     27  N   UNL     1       0.509   1.488  23.785  0.00  0.00    -0.213 NA
BRANCH  27  28
ATOM     28  C   UNL     1       1.297   1.271  23.890  0.00  0.00    +0.117 C 
BRANCH  28  29
ATOM     29  C   UNL     1       1.677   0.806  23.323  0.00  0.00    +0.014 A 
ATOM     30  C   UNL     1       1.277   0.174  22.974  0.00  0.00    +0.000 A 
ATOM     31  C   UNL     1       1.656  -0.290  22.407  0.00  0.00    +0.020 A 
ATOM     32  C   UNL     1       2.435  -0.123  22.190  0.00  0.00    +0.099 A 
ATOM     33  N   UNL     1       2.834   0.509  22.540  0.00  0.00    -0.243 NA
ATOM     34  C   UNL     1       2.454   0.973  23.107  0.00  0.00    +0.096 A 
ENDBRANCH  28  29
ENDBRANCH  27  28
ENDBRANCH  26  27
ENDBRANCH  25  26
TORSDOF 10
ENDMDL
MODEL 7
REMARK VINA RESULT:     -10.0      2.349      5.751
REMARK  Name = 
REMARK  10 active torsions:
REMARK  status: ('A' for Active; 'I' for Inactive)
REMARK    1  A    between atoms: C_2  and  C_4
REMARK    2  A    between atoms: C_6  and  C_7
REMARK    3  A    between atoms: C_7  and  C_8
REMARK    4  A    between atoms: C_11  and  C_12
REMARK    5  A    between atoms: C_12  and  O_13
REMARK    6  A    between atoms: O_13  and  C_14
REMARK    7  A    between atoms: C_25  and  C_26
REMARK    8  A    between atoms: C_26  and  N_27
REMARK    9  A    between atoms: N_27  and  C_28
REMARK   10  A    between atoms: C_28  and  C_29
REMARK                            x       y       z     vdW  Elec       q    Type
REMARK                         _______ _______ _______ _____ _____    ______ ____
ROOT
ATOM      4  C   UNL     1      -3.389  -0.361  25.089  0.00  0.00    +0.006 C 
ATOM      5  C   UNL     1      -4.055   0.126  25.112  0.00  0.00    +0.005 C 
ATOM      6  C   UNL     1      -4.174   0.690  24.524  0.00  0.00    +0.027 C 
ATOM     22  C   UNL     1      -3.628   0.769  23.911  0.00  0.00    -0.048 C 
ATOM     23  C   UNL     1      -3.748   1.334  23.322  0.00  0.00    +0.026 C 
ATOM     24  C   UNL     1      -2.962   0.282  23.887  0.00  0.00    -0.033 C 
ATOM     25  C   UNL     1      -2.843  -0.282  24.475  0.00  0.00    +0.039 C 
ENDROOT
BRANCH   4   2
ATOM      1  C   UNL     1      -2.866  -0.723  26.368  0.00  0.00    +0.000 C 
ATOM      2  C   UNL     1      -3.270  -0.926  25.678  0.00  0.00    +0.000 C 
ATOM      3  C   UNL     1      -3.554  -1.693  25.577  0.00  0.00    +0.000 C 
ENDBRANCH   4   2
BRANCH   6   7
ATOM      7  C   UNL     1      -4.841   1.177  24.548  0.00  0.00    +0.091 C 
BRANCH   7   8
ATOM      8  C   UNL     1      -4.838   1.858  25.013  0.00  0.00    +0.227 A 
ATOM      9  N   UNL     1      -5.420   2.078  25.554  0.00  0.00    -0.112 NA
ATOM     10  N   UNL     1      -5.194   2.795  25.895  0.00  0.00    -0.108 NA
ATOM     11  C   UNL     1      -4.472   3.018  25.564  0.00  0.00    +0.270 A 
ATOM     21  O   UNL     1      -4.252   2.439  25.019  0.00  0.00    -0.420 OA
BRANCH  11  12
ATOM     12  C   UNL     1      -4.045   3.700  25.746  0.00  0.00    +0.291 C 
BRANCH  12  13
ATOM     13  O   UNL     1      -3.325   3.641  26.144  0.00  0.00    -0.465 OA
BRANCH  13  14
ATOM     14  C   UNL     1      -2.656   4.020  25.843  0.00  0.00    +0.139 A 
ATOM     15  C   UNL     1      -2.697   4.814  25.621  0.00  0.00    +0.039 A 
ATOM     16  C   UNL     1      -2.029   5.192  25.321  0.00  0.00    +0.033 A 
ATOM     17  C   UNL     1      -1.319   4.777  25.242  0.00  0.00    +0.140 A 
ATOM     18  F   UNL     1      -0.651   5.156  24.942  0.00  0.00    -0.204 F 
ATOM     19  C   UNL     1      -1.279   3.984  25.465  0.00  0.00    +0.033 A 
ATOM     20  C   UNL     1      -1.948   3.605  25.765  0.00  0.00    +0.039 A 
ENDBRANCH  13  14
ENDBRANCH  12  13
ENDBRANCH  11  12
ENDBRANCH   7   8
ENDBRANCH   6   7
BRANCH  25  26
ATOM     26  C   UNL     1      -2.177  -0.769  24.452  0.00  0.00    +0.093 C 
BRANCH  26  27
ATOM     27  N   UNL     1      -1.523  -0.552  23.999  0.00  0.00    -0.213 NA
BRANCH  27  28
ATOM     28  C   UNL     1      -0.761  -0.712  24.271  0.00  0.00    +0.117 C 
BRANCH  28  29
ATOM     29  C   UNL     1      -0.112  -0.337  23.925  0.00  0.00    +0.014 A 
ATOM     30  C   UNL     1       0.102   0.423  24.166  0.00  0.00    +0.000 A 
ATOM     31  C   UNL     1       0.750   0.798  23.820  0.00  0.00    +0.020 A 
ATOM     32  C   UNL     1       1.186   0.413  23.234  0.00  0.00    +0.099 A 
ATOM     33  N   UNL     1       0.971  -0.347  22.994  0.00  0.00    -0.243 NA
ATOM     34  C   UNL     1       0.323  -0.722  23.340  0.00  0.00    +0.096 A 
ENDBRANCH  28  29
ENDBRANCH  27  28
ENDBRANCH  26  27
ENDBRANCH  25  26
TORSDOF 10
ENDMDL
MODEL 8
REMARK VINA RESULT:      -7.4     15.707     17.877
REMARK  Name = 
REMARK  10 active torsions:
REMARK  status: ('A' for Active; 'I' for Inactive)
REMARK    1  A    between atoms: C_2  and  C_4
REMARK    2  A    between atoms: C_6  and  C_7
REMARK    3  A    between atoms: C_7  and  C_8
REMARK    4  A    between atoms: C_11  and  C_12
REMARK    5  A    between atoms: C_12  and  O_13
REMARK    6  A    between atoms: O_13  and  C_14
REMARK    7  A    between atoms: C_25  and  C_26
REMARK    8  A    between atoms: C_26  and  N_27
REMARK    9  A    between atoms: N_27  and  C_28
REMARK   10  A    between atoms: C_28  and  C_29
REMARK                            x       y       z     vdW  Elec       q    Type
REMARK                         _______ _______ _______ _____ _____    ______ ____
ROOT
ATOM      4  C   UNL     1      -5.144  -9.588  11.534  0.00  0.00    +0.006 C 
ATOM      5  C   UNL     1      -5.191  -9.210  10.802  0.00  0.00    +0.005 C 
ATOM      6  C   UNL     1      -4.513  -9.112  10.344  0.00  0.00    +0.027 C 
ATOM     22  C   UNL     1      -3.787  -9.391  10.616  0.00  0.00    -0.048 C 
ATOM     23  C   UNL     1      -3.108  -9.293  10.158  0.00  0.00    +0.026 C 
ATOM     24  C   UNL     1      -3.739  -9.769  11.349  0.00  0.00    -0.033 C 
ATOM     25  C   UNL     1      -4.417  -9.867  11.807  0.00  0.00    +0.039 C 
ENDROOT
BRANCH   4   2
ATOM      1  C   UNL     1      -6.219 -10.410  11.991  0.00  0.00    +0.000 C 
ATOM      2  C   UNL     1      -5.823  -9.686  11.992  0.00  0.00    +0.000 C 
ATOM      3  C   UNL     1      -6.104  -9.062  12.451  0.00  0.00    +0.000 C 
ENDBRANCH   4   2
BRANCH   6   7
ATOM      7  C   UNL     1      -4.561  -8.734   9.611  0.00  0.00    +0.091 C 
BRANCH   7   8
ATOM      8  C   UNL     1      -5.230  -8.832   9.139  0.00  0.00    +0.227 A 
ATOM      9  N   UNL     1      -5.348  -9.429   8.582  0.00  0.00    -0.112 NA
ATOM     10  N   UNL     1      -6.090  -9.316   8.240  0.00  0.00    -0.108 NA
ATOM     11  C   UNL     1      -6.432  -8.649   8.585  0.00  0.00    +0.270 A 
ATOM     21  O   UNL     1      -5.900  -8.350   9.141  0.00  0.00    -0.420 OA
BRANCH  11  12
ATOM     12  C   UNL     1      -7.174  -8.336   8.407  0.00  0.00    +0.291 C 
BRANCH  12  13
ATOM     13  O   UNL     1      -7.848  -8.642   8.771  0.00  0.00    -0.465 OA
BRANCH  13  14
ATOM     14  C   UNL     1      -8.521  -8.172   8.853  0.00  0.00    +0.139 A 
ATOM     15  C   UNL     1      -8.660  -7.555   8.322  0.00  0.00    +0.039 A 
ATOM     16  C   UNL     1      -9.333  -7.085   8.405  0.00  0.00    +0.033 A 
ATOM     17  C   UNL     1      -9.866  -7.230   9.018  0.00  0.00    +0.140 A 
ATOM     18  F   UNL     1     -10.539  -6.760   9.100  0.00  0.00    -0.204 F 
ATOM     19  C   UNL     1      -9.726  -7.847   9.548  0.00  0.00    +0.033 A 
ATOM     20  C   UNL     1      -9.054  -8.317   9.465  0.00  0.00    +0.039 A 
ENDBRANCH  13  14
ENDBRANCH  12  13
ENDBRANCH  11  12
ENDBRANCH   7   8
ENDBRANCH   6   7
BRANCH  25  26
ATOM     26  C   UNL     1      -4.369 -10.245  12.539  0.00  0.00    +0.093 C 
BRANCH  26  27
ATOM     27  N   UNL     1      -3.641 -10.321  12.918  0.00  0.00    -0.213 NA
BRANCH  27  28
ATOM     28  C   UNL     1      -3.577 -10.779  13.601  0.00  0.00    +0.117 C 
BRANCH  28  29
ATOM     29  C   UNL     1      -2.930 -10.682  14.104  0.00  0.00    +0.014 A 
ATOM     30  C   UNL     1      -3.049 -10.578  14.914  0.00  0.00    +0.000 A 
ATOM     31  C   UNL     1      -2.402 -10.481  15.417  0.00  0.00    +0.020 A 
ATOM     32  C   UNL     1      -1.636 -10.489  15.110  0.00  0.00    +0.099 A 
ATOM     33  N   UNL     1      -1.518 -10.593  14.300  0.00  0.00    -0.243 NA
ATOM     34  C   UNL     1      -2.165 -10.689  13.797  0.00  0.00    +0.096 A 
ENDBRANCH  28  29
ENDBRANCH  27  28
ENDBRANCH  26  27
ENDBRANCH  25  26
TORSDOF 10
ENDMDL
MODEL 9
REMARK VINA RESULT:      -7.4     16.287     18.420
REMARK  Name = 
REMARK  10 active torsions:
REMARK  status: ('A' for Active; 'I' for Inactive)
REMARK    1  A    between atoms: C_2  and  C_4
REMARK    2  A    between atoms: C_6  and  C_7
REMARK    3  A    between atoms: C_7  and  C_8
REMARK    4  A    between atoms: C_11  and  C_12
REMARK    5  A    between atoms: C_12  and  O_13
REMARK    6  A    between atoms: O_13  and  C_14
REMARK    7  A    between atoms: C_25  and  C_26
REMARK    8  A    between atoms: C_26  and  N_27
REMARK    9  A    between atoms: N_27  and  C_28
REMARK   10  A    between atoms: C_28  and  C_29
REMARK                            x       y       z     vdW  Elec       q    Type
REMARK                         _______ _______ _______ _____ _____    ______ ____
ROOT
ATOM      4  C   UNL     1      -5.885  -9.243  10.829  0.00  0.00    +0.006 C 
ATOM      5  C   UNL     1      -6.204  -8.857  10.172  0.00  0.00    +0.005 C 
ATOM      6  C   UNL     1      -5.823  -8.901   9.443  0.00  0.00    +0.027 C 
ATOM     22  C   UNL     1      -5.123  -9.330   9.368  0.00  0.00    -0.048 C 
ATOM     23  C   UNL     1      -4.741  -9.374   8.638  0.00  0.00    +0.026 C 
ATOM     24  C   UNL     1      -4.803  -9.716  10.024  0.00  0.00    -0.033 C 
ATOM     25  C   UNL     1      -5.184  -9.672  10.754  0.00  0.00    +0.039 C 
ENDROOT
BRANCH   4   2
ATOM      1  C   UNL     1      -6.157  -8.539  12.042  0.00  0.00    +0.000 C 
ATOM      2  C   UNL     1      -6.267  -9.199  11.559  0.00  0.00    +0.000 C 
ATOM      3  C   UNL     1      -6.757  -9.814  11.805  0.00  0.00    +0.000 C 
ENDBRANCH   4   2
BRANCH   6   7
ATOM      7  C   UNL     1      -6.142  -8.515   8.787  0.00  0.00    +0.091 C 
BRANCH   7   8
ATOM      8  C   UNL     1      -6.956  -8.385   8.739  0.00  0.00    +0.227 A 
ATOM      9  N   UNL     1      -7.527  -8.951   8.557  0.00  0.00    -0.112 NA
ATOM     10  N   UNL     1      -8.265  -8.582   8.571  0.00  0.00    -0.108 NA
ATOM     11  C   UNL     1      -8.150  -7.788   8.763  0.00  0.00    +0.270 A 
ATOM     21  O   UNL     1      -7.340  -7.666   8.867  0.00  0.00    -0.420 OA
BRANCH  11  12
ATOM     12  C   UNL     1      -8.739  -7.216   8.837  0.00  0.00    +0.291 C 
BRANCH  12  13
ATOM     13  O   UNL     1      -8.812  -6.622   8.269  0.00  0.00    -0.465 OA
BRANCH  13  14
ATOM     14  C   UNL     1      -9.275  -5.958   8.424  0.00  0.00    +0.139 A 
ATOM     15  C   UNL     1      -8.921  -5.215   8.493  0.00  0.00    +0.039 A 
ATOM     16  C   UNL     1      -9.384  -4.551   8.649  0.00  0.00    +0.033 A 
ATOM     17  C   UNL     1     -10.202  -4.628   8.735  0.00  0.00    +0.140 A 
ATOM     18  F   UNL     1     -10.665  -3.964   8.890  0.00  0.00    -0.204 F 
ATOM     19  C   UNL     1     -10.555  -5.370   8.665  0.00  0.00    +0.033 A 
ATOM     20  C   UNL     1     -10.091  -6.035   8.510  0.00  0.00    +0.039 A 
ENDBRANCH  13  14
ENDBRANCH  12  13
ENDBRANCH  11  12
ENDBRANCH   7   8
ENDBRANCH   6   7
BRANCH  25  26
ATOM     26  C   UNL     1      -4.866 -10.058  11.410  0.00  0.00    +0.093 C 
BRANCH  26  27
ATOM     27  N   UNL     1      -4.049 -10.151  11.478  0.00  0.00    -0.213 NA
BRANCH  27  28
ATOM     28  C   UNL     1      -3.740 -10.708  12.001  0.00  0.00    +0.117 C 
BRANCH  28  29
ATOM     29  C   UNL     1      -3.007 -10.577  12.358  0.00  0.00    +0.014 A 
ATOM     30  C   UNL     1      -2.333 -10.479  11.892  0.00  0.00    +0.000 A 
ATOM     31  C   UNL     1      -1.601 -10.348  12.249  0.00  0.00    +0.020 A 
ATOM     32  C   UNL     1      -1.543 -10.315  13.072  0.00  0.00    +0.099 A 
ATOM     33  N   UNL     1      -2.217 -10.413  13.537  0.00  0.00    -0.243 NA
ATOM     34  C   UNL     1      -2.949 -10.544  13.180  0.00  0.00    +0.096 A 
ENDBRANCH  28  29
ENDBRANCH  27  28
ENDBRANCH  26  27
ENDBRANCH  25  26
TORSDOF 10
ENDMDL
