MODEL 1
REMARK VINA RESULT:     -13.1      0.000      0.000
REMARK  Name = 
REMARK  2 active torsions:
REMARK  status: ('A' for Active; 'I' for Inactive)
REMARK    1  A    between atoms: C_7  and  C_9
REMARK    2  A    between atoms: C_14  and  C_16
REMARK                            x       y       z     vdW  Elec       q    Type
REMARK                         _______ _______ _______ _____ _____    ______ ____
ROOT
ATOM      9  C   UNL     1      -4.761   1.304  25.048  0.00  0.00    +0.080 C 
ATOM     10  C   UNL     1      -5.554   1.532  25.042  0.00  0.00    +0.031 C 
ATOM     11  C   UNL     1      -5.585   2.353  25.114  0.00  0.00    +0.094 C 
ATOM     12  N   UNL     1      -4.811   2.634  25.165  0.00  0.00    -0.276 N 
ATOM     13  C   UNL     1      -4.302   1.985  25.124  0.00  0.00    +0.101 C 
ATOM     14  C   UNL     1      -4.584   3.423  25.243  0.00  0.00    +0.249 C 
ATOM     15  O   UNL     1      -5.158   4.015  25.277  0.00  0.00    -0.270 OA
ENDROOT
BRANCH   9   7
ATOM      1  C   UNL     1      -3.645  -2.730  23.993  0.00  0.00    +0.031 C 
ATOM      2  C   UNL     1      -3.721  -2.028  24.419  0.00  0.00    -0.020 A 
ATOM      3  C   UNL     1      -4.135  -1.393  24.096  0.00  0.00    +0.016 A 
ATOM      4  C   UNL     1      -4.212  -0.690  24.522  0.00  0.00    +0.100 A 
ATOM      5  C   UNL     1      -3.873  -0.623  25.271  0.00  0.00    +0.100 A 
ATOM      6  N   UNL     1      -4.038   0.131  25.559  0.00  0.00    -0.229 NA
ATOM      7  C   UNL     1      -4.478   0.532  24.989  0.00  0.00    +0.140 A 
ATOM      8  N   UNL     1      -4.585   0.024  24.348  0.00  0.00    -0.229 NA
ATOM     22  C   UNL     1      -3.458  -1.260  25.595  0.00  0.00    +0.020 A 
ATOM     23  C   UNL     1      -3.382  -1.961  25.168  0.00  0.00    -0.003 A 
ENDBRANCH   9   7
BRANCH  14  16
ATOM     16  C   UNL     1      -3.784   3.621  25.287  0.00  0.00    +0.057 A 
ATOM     17  C   UNL     1      -3.339   3.695  24.595  0.00  0.00    +0.025 A 
ATOM     18  C   UNL     1      -2.540   3.893  24.640  0.00  0.00    +0.099 A 
ATOM     19  N   UNL     1      -2.185   4.017  25.374  0.00  0.00    -0.242 NA
ATOM     20  C   UNL     1      -2.630   3.943  26.066  0.00  0.00    +0.099 A 
ATOM     21  C   UNL     1      -3.431   3.745  26.022  0.00  0.00    +0.025 A 
ENDBRANCH  14  16
TORSDOF 2
ENDMDL
MODEL 2
REMARK VINA RESULT:     -12.0      1.688      2.221
REMARK  Name = 
REMARK  2 active torsions:
REMARK  status: ('A' for Active; 'I' for Inactive)
REMARK    1  A    between atoms: C_7  and  C_9
REMARK    2  A    between atoms: C_14  and  C_16
REMARK                            x       y       z     vdW  Elec       q    Type
REMARK                         _______ _______ _______ _____ _____    ______ ____
ROOT
ATOM      9  C   UNL     1      -3.156   1.443  24.689  0.00  0.00    +0.080 C 
ATOM     10  C   UNL     1      -3.699   2.059  24.609  0.00  0.00    +0.031 C 
ATOM     11  C   UNL     1      -3.302   2.770  24.739  0.00  0.00    +0.094 C 
ATOM     12  N   UNL     1      -2.512   2.594  24.901  0.00  0.00    -0.276 N 
ATOM     13  C   UNL     1      -2.422   1.774  24.870  0.00  0.00    +0.101 C 
ATOM     14  C   UNL     1      -1.917   3.141  25.064  0.00  0.00    +0.249 C 
ATOM     15  O   UNL     1      -2.089   3.947  25.076  0.00  0.00    -0.270 OA
ENDROOT
BRANCH   9   7
ATOM      1  C   UNL     1      -3.490  -2.856  24.889  0.00  0.00    +0.031 C 
ATOM      2  C   UNL     1      -3.599  -2.076  24.645  0.00  0.00    -0.020 A 
ATOM      3  C   UNL     1      -3.209  -1.463  25.036  0.00  0.00    +0.016 A 
ATOM      4  C   UNL     1      -3.318  -0.682  24.792  0.00  0.00    +0.100 A 
ATOM      5  C   UNL     1      -3.816  -0.515  24.156  0.00  0.00    +0.100 A 
ATOM      6  N   UNL     1      -3.816   0.301  24.041  0.00  0.00    -0.229 NA
ATOM      7  C   UNL     1      -3.318   0.639  24.605  0.00  0.00    +0.140 A 
ATOM      8  N   UNL     1      -3.010   0.031  25.069  0.00  0.00    -0.229 NA
ATOM     22  C   UNL     1      -4.206  -1.128  23.765  0.00  0.00    +0.020 A 
ATOM     23  C   UNL     1      -4.097  -1.908  24.009  0.00  0.00    -0.003 A 
ENDBRANCH   9   7
BRANCH  14  16
ATOM     16  C   UNL     1      -1.148   2.882  25.216  0.00  0.00    +0.057 A 
ATOM     17  C   UNL     1      -0.897   2.766  25.994  0.00  0.00    +0.025 A 
ATOM     18  C   UNL     1      -0.129   2.507  26.144  0.00  0.00    +0.099 A 
ATOM     19  N   UNL     1       0.389   2.364  25.519  0.00  0.00    -0.242 NA
ATOM     20  C   UNL     1       0.138   2.479  24.741  0.00  0.00    +0.099 A 
ATOM     21  C   UNL     1      -0.631   2.738  24.589  0.00  0.00    +0.025 A 
ENDBRANCH  14  16
TORSDOF 2
ENDMDL
MODEL 3
REMARK VINA RESULT:     -11.8      1.277      1.842
REMARK  Name = 
REMARK  2 active torsions:
REMARK  status: ('A' for Active; 'I' for Inactive)
REMARK    1  A    between atoms: C_7  and  C_9
REMARK    2  A    between atoms: C_14  and  C_16
REMARK                            x       y       z     vdW  Elec       q    Type
REMARK                         _______ _______ _______ _____ _____    ______ ____
ROOT
ATOM      9  C   UNL     1      -3.294   1.057  23.882  0.00  0.00    +0.080 C 
ATOM     10  C   UNL     1      -2.925   1.424  23.242  0.00  0.00    +0.031 C 
ATOM     11  C   UNL     1      -3.113   2.227  23.264  0.00  0.00    +0.094 C 
ATOM     12  N   UNL     1      -3.598   2.357  23.918  0.00  0.00    -0.276 N 
ATOM     13  C   UNL     1      -3.710   1.634  24.300  0.00  0.00    +0.101 C 
ATOM     14  C   UNL     1      -3.916   3.082  24.150  0.00  0.00    +0.249 C 
ATOM     15  O   UNL     1      -3.755   3.762  23.712  0.00  0.00    -0.270 OA
ENDROOT
BRANCH   9   7
ATOM      1  C   UNL     1      -3.803  -3.190  24.460  0.00  0.00    +0.031 C 
ATOM      2  C   UNL     1      -3.481  -2.432  24.492  0.00  0.00    -0.020 A 
ATOM      3  C   UNL     1      -3.873  -1.801  24.134  0.00  0.00    +0.016 A 
ATOM      4  C   UNL     1      -3.550  -1.042  24.165  0.00  0.00    +0.100 A 
ATOM      5  C   UNL     1      -2.835  -0.915  24.555  0.00  0.00    +0.100 A 
ATOM      6  N   UNL     1      -2.652  -0.113  24.497  0.00  0.00    -0.229 NA
ATOM      7  C   UNL     1      -3.254   0.255  24.070  0.00  0.00    +0.140 A 
ATOM      8  N   UNL     1      -3.809  -0.319  23.866  0.00  0.00    -0.229 NA
ATOM     22  C   UNL     1      -2.442  -1.546  24.914  0.00  0.00    +0.020 A 
ATOM     23  C   UNL     1      -2.765  -2.304  24.882  0.00  0.00    -0.003 A 
ENDBRANCH   9   7
BRANCH  14  16
ATOM     16  C   UNL     1      -4.395   3.127  24.821  0.00  0.00    +0.057 A 
ATOM     17  C   UNL     1      -5.182   2.882  24.783  0.00  0.00    +0.025 A 
ATOM     18  C   UNL     1      -5.660   2.928  25.454  0.00  0.00    +0.099 A 
ATOM     19  N   UNL     1      -5.352   3.218  26.162  0.00  0.00    -0.242 NA
ATOM     20  C   UNL     1      -4.565   3.463  26.200  0.00  0.00    +0.099 A 
ATOM     21  C   UNL     1      -4.086   3.417  25.529  0.00  0.00    +0.025 A 
ENDBRANCH  14  16
TORSDOF 2
ENDMDL
MODEL 4
REMARK VINA RESULT:     -11.4      2.243      4.590
REMARK  Name = 
REMARK  2 active torsions:
REMARK  status: ('A' for Active; 'I' for Inactive)
REMARK    1  A    between atoms: C_7  and  C_9
REMARK    2  A    between atoms: C_14  and  C_16
REMARK                            x       y       z     vdW  Elec       q    Type
REMARK                         _______ _______ _______ _____ _____    ______ ____
ROOT
ATOM      9  C   UNL     1      -3.879  -0.412  24.455  0.00  0.00    +0.080 C 
ATOM     10  C   UNL     1      -4.354  -1.046  24.230  0.00  0.00    +0.031 C 
ATOM     11  C   UNL     1      -3.880  -1.720  24.189  0.00  0.00    +0.094 C 
ATOM     12  N   UNL     1      -3.110  -1.502  24.389  0.00  0.00    -0.276 N 
ATOM     13  C   UNL     1      -3.110  -0.693  24.554  0.00  0.00    +0.101 C 
ATOM     14  C   UNL     1      -2.456  -2.003  24.420  0.00  0.00    +0.249 C 
ATOM     15  O   UNL     1      -2.541  -2.803  24.239  0.00  0.00    -0.270 OA
ENDROOT
BRANCH   9   7
ATOM      1  C   UNL     1      -5.659   3.344  25.620  0.00  0.00    +0.031 C 
ATOM      2  C   UNL     1      -5.194   2.792  25.222  0.00  0.00    -0.020 A 
ATOM      3  C   UNL     1      -5.227   1.996  25.433  0.00  0.00    +0.016 A 
ATOM      4  C   UNL     1      -4.762   1.443  25.035  0.00  0.00    +0.100 A 
ATOM      5  C   UNL     1      -4.263   1.687  24.425  0.00  0.00    +0.100 A 
ATOM      6  N   UNL     1      -3.871   1.023  24.134  0.00  0.00    -0.229 NA
ATOM      7  C   UNL     1      -4.128   0.367  24.564  0.00  0.00    +0.140 A 
ATOM      8  N   UNL     1      -4.678   0.627  25.120  0.00  0.00    -0.229 NA
ATOM     22  C   UNL     1      -4.229   2.485  24.214  0.00  0.00    +0.020 A 
ATOM     23  C   UNL     1      -4.695   3.037  24.613  0.00  0.00    -0.003 A 
ENDBRANCH   9   7
BRANCH  14  16
ATOM     16  C   UNL     1      -1.716  -1.704  24.630  0.00  0.00    +0.057 A 
ATOM     17  C   UNL     1      -1.201  -1.427  24.047  0.00  0.00    +0.025 A 
ATOM     18  C   UNL     1      -0.462  -1.128  24.259  0.00  0.00    +0.099 A 
ATOM     19  N   UNL     1      -0.237  -1.106  25.052  0.00  0.00    -0.242 NA
ATOM     20  C   UNL     1      -0.751  -1.384  25.635  0.00  0.00    +0.099 A 
ATOM     21  C   UNL     1      -1.491  -1.682  25.424  0.00  0.00    +0.025 A 
ENDBRANCH  14  16
TORSDOF 2
ENDMDL
MODEL 5
REMARK VINA RESULT:     -11.1      1.524      4.658
REMARK  Name = 
REMARK  2 active torsions:
REMARK  status: ('A' for Active; 'I' for Inactive)
REMARK    1  A    between atoms: C_7  and  C_9
REMARK    2  A    between atoms: C_14  and  C_16
REMARK                            x       y       z     vdW  Elec       q    Type
REMARK                         _______ _______ _______ _____ _____    ______ ____
ROOT
ATOM      9  C   UNL     1      -3.744   1.751  24.777  0.00  0.00    +0.080 C 
ATOM     10  C   UNL     1      -4.531   1.758  24.532  0.00  0.00    +0.031 C 
ATOM     11  C   UNL     1      -4.784   0.976  24.460  0.00  0.00    +0.094 C 
ATOM     12  N   UNL     1      -4.153   0.485  24.663  0.00  0.00    -0.276 N 
ATOM     13  C   UNL     1      -3.510   0.964  24.858  0.00  0.00    +0.101 C 
ATOM     14  C   UNL     1      -4.161  -0.340  24.668  0.00  0.00    +0.249 C 
ATOM     15  O   UNL     1      -4.848  -0.747  24.458  0.00  0.00    -0.270 OA
ENDROOT
BRANCH   9   7
ATOM      1  C   UNL     1      -0.786   4.890  24.937  0.00  0.00    +0.031 C 
ATOM      2  C   UNL     1      -1.464   4.450  25.096  0.00  0.00    -0.020 A 
ATOM      3  C   UNL     1      -1.600   3.742  24.694  0.00  0.00    +0.016 A 
ATOM      4  C   UNL     1      -2.279   3.301  24.853  0.00  0.00    +0.100 A 
ATOM      5  C   UNL     1      -2.822   3.568  25.413  0.00  0.00    +0.100 A 
ATOM      6  N   UNL     1      -3.437   3.020  25.453  0.00  0.00    -0.229 NA
ATOM      7  C   UNL     1      -3.274   2.414  24.918  0.00  0.00    +0.140 A 
ATOM      8  N   UNL     1      -2.558   2.588  24.547  0.00  0.00    -0.229 NA
ATOM     22  C   UNL     1      -2.687   4.276  25.815  0.00  0.00    +0.020 A 
ATOM     23  C   UNL     1      -2.008   4.716  25.656  0.00  0.00    -0.003 A 
ENDBRANCH   9   7
BRANCH  14  16
ATOM     16  C   UNL     1      -3.484  -0.759  24.884  0.00  0.00    +0.057 A 
ATOM     17  C   UNL     1      -3.343  -0.936  25.678  0.00  0.00    +0.025 A 
ATOM     18  C   UNL     1      -2.666  -1.355  25.892  0.00  0.00    +0.099 A 
ATOM     19  N   UNL     1      -2.129  -1.596  25.315  0.00  0.00    -0.242 NA
ATOM     20  C   UNL     1      -2.269  -1.419  24.521  0.00  0.00    +0.099 A 
ATOM     21  C   UNL     1      -2.947  -1.000  24.305  0.00  0.00    +0.025 A 
ENDBRANCH  14  16
TORSDOF 2
ENDMDL
MODEL 6
REMARK VINA RESULT:     -11.1      2.438      5.320
REMARK  Name = 
REMARK  2 active torsions:
REMARK  status: ('A' for Active; 'I' for Inactive)
REMARK    1  A    between atoms: C_7  and  C_9
REMARK    2  A    between atoms: C_14  and  C_16
REMARK                            x       y       z     vdW  Elec       q    Type
REMARK                         _______ _______ _______ _____ _____    ______ ____
ROOT
ATOM      9  C   UNL     1      -1.117   1.068  24.821  0.00  0.00    +0.080 C 
ATOM     10  C   UNL     1      -0.392   0.719  24.639  0.00  0.00    +0.031 C 
ATOM     11  C   UNL     1      -0.511  -0.095  24.567  0.00  0.00    +0.094 C 
ATOM     12  N   UNL     1      -1.310  -0.248  24.704  0.00  0.00    -0.276 N 
ATOM     13  C   UNL     1      -1.684   0.470  24.861  0.00  0.00    +0.101 C 
ATOM     14  C   UNL     1      -1.671  -0.989  24.687  0.00  0.00    +0.249 C 
ATOM     15  O   UNL     1      -1.224  -1.663  24.522  0.00  0.00    -0.270 OA
ENDROOT
BRANCH   9   7
ATOM      1  C   UNL     1      -1.138   5.381  24.990  0.00  0.00    +0.031 C 
ATOM      2  C   UNL     1      -1.355   4.595  25.111  0.00  0.00    -0.020 A 
ATOM      3  C   UNL     1      -0.905   3.988  24.782  0.00  0.00    +0.016 A 
ATOM      4  C   UNL     1      -1.123   3.201  24.902  0.00  0.00    +0.100 A 
ATOM      5  C   UNL     1      -1.791   3.022  25.351  0.00  0.00    +0.100 A 
ATOM      6  N   UNL     1      -1.870   2.202  25.376  0.00  0.00    -0.229 NA
ATOM      7  C   UNL     1      -1.251   1.873  24.942  0.00  0.00    +0.140 A 
ATOM      8  N   UNL     1      -0.790   2.491  24.649  0.00  0.00    -0.229 NA
ATOM     22  C   UNL     1      -2.242   3.630  25.681  0.00  0.00    +0.020 A 
ATOM     23  C   UNL     1      -2.023   4.416  25.560  0.00  0.00    -0.003 A 
ENDBRANCH   9   7
BRANCH  14  16
ATOM     16  C   UNL     1      -2.480  -1.058  24.837  0.00  0.00    +0.057 A 
ATOM     17  C   UNL     1      -3.019  -1.019  24.213  0.00  0.00    +0.025 A 
ATOM     18  C   UNL     1      -3.827  -1.088  24.364  0.00  0.00    +0.099 A 
ATOM     19  N   UNL     1      -4.097  -1.196  25.135  0.00  0.00    -0.242 NA
ATOM     20  C   UNL     1      -3.557  -1.236  25.759  0.00  0.00    +0.099 A 
ATOM     21  C   UNL     1      -2.748  -1.167  25.609  0.00  0.00    +0.025 A 
ENDBRANCH  14  16
TORSDOF 2
ENDMDL
MODEL 7
REMARK VINA RESULT:     -10.2      2.547      4.506
REMARK  Name = 
REMARK  2 active torsions:
REMARK  status: ('A' for Active; 'I' for Inactive)
REMARK    1  A    between atoms: C_7  and  C_9
REMARK    2  A    between atoms: C_14  and  C_16
REMARK                            x       y       z     vdW  Elec       q    Type
REMARK                         _______ _______ _______ _____ _____    ______ ____
ROOT
ATOM      9  C   UNL     1      -2.318   1.560  24.247  0.00  0.00    +0.080 C 
ATOM     10  C   UNL     1      -1.804   2.018  23.794  0.00  0.00    +0.031 C 
ATOM     11  C   UNL     1      -1.111   1.585  23.676  0.00  0.00    +0.094 C 
ATOM     12  N   UNL     1      -1.198   0.859  24.058  0.00  0.00    -0.276 N 
ATOM     13  C   UNL     1      -1.944   0.844  24.410  0.00  0.00    +0.101 C 
ATOM     14  C   UNL     1      -0.638   0.254  24.082  0.00  0.00    +0.249 C 
ATOM     15  O   UNL     1       0.088   0.348  23.702  0.00  0.00    -0.270 OA
ENDROOT
BRANCH   9   7
ATOM      1  C   UNL     1      -6.496   1.967  25.254  0.00  0.00    +0.031 C 
ATOM      2  C   UNL     1      -5.694   2.138  25.171  0.00  0.00    -0.020 A 
ATOM      3  C   UNL     1      -5.188   1.586  24.827  0.00  0.00    +0.016 A 
ATOM      4  C   UNL     1      -4.385   1.757  24.743  0.00  0.00    +0.100 A 
ATOM      5  C   UNL     1      -4.089   2.481  25.004  0.00  0.00    +0.100 A 
ATOM      6  N   UNL     1      -3.279   2.496  24.850  0.00  0.00    -0.229 NA
ATOM      7  C   UNL     1      -3.074   1.781  24.494  0.00  0.00    +0.140 A 
ATOM      8  N   UNL     1      -3.758   1.324  24.428  0.00  0.00    -0.229 NA
ATOM     22  C   UNL     1      -4.595   3.034  25.349  0.00  0.00    +0.020 A 
ATOM     23  C   UNL     1      -5.398   2.862  25.432  0.00  0.00    -0.003 A 
ENDBRANCH   9   7
BRANCH  14  16
ATOM     16  C   UNL     1      -0.804  -0.446  24.487  0.00  0.00    +0.057 A 
ATOM     17  C   UNL     1      -0.674  -0.492  25.301  0.00  0.00    +0.025 A 
ATOM     18  C   UNL     1      -0.840  -1.192  25.705  0.00  0.00    +0.099 A 
ATOM     19  N   UNL     1      -1.134  -1.845  25.297  0.00  0.00    -0.242 NA
ATOM     20  C   UNL     1      -1.264  -1.799  24.483  0.00  0.00    +0.099 A 
ATOM     21  C   UNL     1      -1.098  -1.099  24.078  0.00  0.00    +0.025 A 
ENDBRANCH  14  16
TORSDOF 2
ENDMDL
MODEL 8
REMARK VINA RESULT:      -9.4     16.984     19.114
REMARK  Name = 
REMARK  2 active torsions:
REMARK  status: ('A' for Active; 'I' for Inactive)
REMARK    1  A    between atoms: C_7  and  C_9
REMARK    2  A    between atoms: C_14  and  C_16
REMARK                            x       y       z     vdW  Elec       q    Type
REMARK                         _______ _______ _______ _____ _____    ______ ____
ROOT
ATOM      9  C   UNL     1      13.038   7.548  19.412  0.00  0.00    +0.080 C 
ATOM     10  C   UNL     1      12.708   7.676  18.667  0.00  0.00    +0.031 C 
ATOM     11  C   UNL     1      11.944   7.969  18.772  0.00  0.00    +0.094 C 
ATOM     12  N   UNL     1      11.801   8.022  19.582  0.00  0.00    -0.276 N 
ATOM     13  C   UNL     1      12.477   7.761  19.978  0.00  0.00    +0.101 C 
ATOM     14  C   UNL     1      11.105   8.288  19.936  0.00  0.00    +0.249 C 
ATOM     15  O   UNL     1      10.472   8.532  19.468  0.00  0.00    -0.270 OA
ENDROOT
BRANCH   9   7
ATOM      1  C   UNL     1      17.141   6.207  19.412  0.00  0.00    +0.031 C 
ATOM      2  C   UNL     1      16.378   6.383  19.671  0.00  0.00    -0.020 A 
ATOM      3  C   UNL     1      15.831   6.711  19.149  0.00  0.00    +0.016 A 
ATOM      4  C   UNL     1      15.067   6.886  19.407  0.00  0.00    +0.100 A 
ATOM      5  C   UNL     1      14.851   6.733  20.188  0.00  0.00    +0.100 A 
ATOM      6  N   UNL     1      14.065   6.962  20.285  0.00  0.00    -0.229 NA
ATOM      7  C   UNL     1      13.795   7.257  19.564  0.00  0.00    +0.140 A 
ATOM      8  N   UNL     1      14.414   7.210  19.022  0.00  0.00    -0.229 NA
ATOM     22  C   UNL     1      15.399   6.405  20.712  0.00  0.00    +0.020 A 
ATOM     23  C   UNL     1      16.162   6.230  20.452  0.00  0.00    -0.003 A 
ENDBRANCH   9   7
BRANCH  14  16
ATOM     16  C   UNL     1      11.042   8.310  20.759  0.00  0.00    +0.057 A 
ATOM     17  C   UNL     1      10.758   7.652  21.169  0.00  0.00    +0.025 A 
ATOM     18  C   UNL     1      10.696   7.675  21.991  0.00  0.00    +0.099 A 
ATOM     19  N   UNL     1      10.916   8.354  22.403  0.00  0.00    -0.242 NA
ATOM     20  C   UNL     1      11.199   9.012  21.993  0.00  0.00    +0.099 A 
ATOM     21  C   UNL     1      11.263   8.990  21.171  0.00  0.00    +0.025 A 
ENDBRANCH  14  16
TORSDOF 2
ENDMDL
