MODEL 1
REMARK VINA RESULT:     -11.0      0.000      0.000
REMARK  Name = 
REMARK  6 active torsions:
REMARK  status: ('A' for Active; 'I' for Inactive)
REMARK    1  A    between atoms: O_2  and  C_3
REMARK    2  A    between atoms: C_3  and  C_4
REMARK    3  A    between atoms: N_6  and  C_7
REMARK    4  A    between atoms: C_7  and  C_8
REMARK    5  A    between atoms: C_15  and  C_16
REMARK    6  A    between atoms: N_18  and  C_19
REMARK                            x       y       z     vdW  Elec       q    Type
REMARK                         _______ _______ _______ _____ _____    ______ ____
ROOT
ATOM      8  C   UNL     1      -4.266   2.528  24.633  0.00  0.00    +0.082 C 
ATOM      9  C   UNL     1      -4.761   2.033  24.972  0.00  0.00    +0.019 C 
ATOM     10  C   UNL     1      -4.676   1.228  25.002  0.00  0.00    +0.013 C 
ATOM     11  C   UNL     1      -5.355   0.837  25.438  0.00  0.00    +0.018 C 
ATOM     12  C   UNL     1      -5.017   1.338  25.190  0.00  0.00    +0.072 C 
ATOM     13  N   UNL     1      -4.186   1.708  24.668  0.00  0.00    -0.272 NA
ATOM     14  C   UNL     1      -3.545   1.143  24.349  0.00  0.00    +0.081 C 
ATOM     15  C   UNL     1      -4.055   0.690  24.692  0.00  0.00    +0.094 C 
ENDROOT
BRANCH  15  16
ATOM     16  C   UNL     1      -4.028  -0.132  24.758  0.00  0.00    +0.242 C 
ATOM     17  O   UNL     1      -4.302  -0.499  25.445  0.00  0.00    -0.273 OA
ATOM     18  N   UNL     1      -3.729  -0.586  24.139  0.00  0.00    -0.207 NA
BRANCH  18  19
ATOM     19  C   UNL     1      -3.702  -1.408  24.205  0.00  0.00    +0.095 C 
ATOM     20  C   UNL     1      -3.103  -1.767  24.645  0.00  0.00    +0.022 C 
ATOM     21  C   UNL     1      -3.077  -2.589  24.710  0.00  0.00    +0.002 C 
ATOM     22  C   UNL     1      -3.649  -3.052  24.337  0.00  0.00    +0.000 C 
ATOM     23  C   UNL     1      -4.248  -2.692  23.898  0.00  0.00    +0.002 C 
ATOM     24  C   UNL     1      -4.274  -1.870  23.832  0.00  0.00    +0.022 C 
ENDBRANCH  18  19
ENDBRANCH  15  16
BRANCH   8   7
ATOM      7  C   UNL     1      -4.016   3.283  24.412  0.00  0.00    +0.145 C 
BRANCH   7   6
ATOM      4  C   UNL     1      -2.398   4.300  25.363  0.00  0.00    +0.131 A 
ATOM      5  C   UNL     1      -2.707   3.866  24.731  0.00  0.00    +0.116 A 
ATOM      6  N   UNL     1      -3.498   3.704  24.895  0.00  0.00    -0.229 N 
ATOM     25  N   UNL     1      -3.680   4.036  25.628  0.00  0.00    -0.064 NA
ATOM     26  N   UNL     1      -3.000   4.405  25.917  0.00  0.00    -0.131 NA
BRANCH   4   3
ATOM      3  C   UNL     1      -1.625   4.579  25.429  0.00  0.00    +0.191 C 
BRANCH   3   2
ATOM      1  C   UNL     1      -0.624   5.392  24.813  0.00  0.00    +0.175 C 
ATOM      2  O   UNL     1      -1.406   5.279  25.053  0.00  0.00    -0.345 OA
ENDBRANCH   3   2
ENDBRANCH   4   3
ENDBRANCH   7   6
ENDBRANCH   8   7
TORSDOF 6
ENDMDL
MODEL 2
REMARK VINA RESULT:     -10.9      1.268      5.459
REMARK  Name = 
REMARK  6 active torsions:
REMARK  status: ('A' for Active; 'I' for Inactive)
REMARK    1  A    between atoms: O_2  and  C_3
REMARK    2  A    between atoms: C_3  and  C_4
REMARK    3  A    between atoms: N_6  and  C_7
REMARK    4  A    between atoms: C_7  and  C_8
REMARK    5  A    between atoms: C_15  and  C_16
REMARK    6  A    between atoms: N_18  and  C_19
REMARK                            x       y       z     vdW  Elec       q    Type
REMARK                         _______ _______ _______ _____ _____    ______ ____
ROOT
ATOM      8  C   UNL     1      -3.983   0.592  24.418  0.00  0.00    +0.082 C 
ATOM      9  C   UNL     1      -3.647   0.978  23.832  0.00  0.00    +0.019 C 
ATOM     10  C   UNL     1      -3.295   1.706  23.888  0.00  0.00    +0.013 C 
ATOM     11  C   UNL     1      -2.967   1.978  23.099  0.00  0.00    +0.018 C 
ATOM     12  C   UNL     1      -3.271   1.569  23.508  0.00  0.00    +0.072 C 
ATOM     13  N   UNL     1      -3.623   1.333  24.466  0.00  0.00    -0.272 NA
ATOM     14  C   UNL     1      -3.504   1.909  25.164  0.00  0.00    +0.081 C 
ATOM     15  C   UNL     1      -3.184   2.255  24.563  0.00  0.00    +0.094 C 
ENDROOT
BRANCH  15  16
ATOM     16  C   UNL     1      -2.811   2.992  24.551  0.00  0.00    +0.242 C 
ATOM     17  O   UNL     1      -3.053   3.567  24.011  0.00  0.00    -0.273 OA
ATOM     18  N   UNL     1      -2.199   3.152  25.079  0.00  0.00    -0.207 NA
BRANCH  18  19
ATOM     19  C   UNL     1      -1.827   3.889  25.067  0.00  0.00    +0.095 C 
ATOM     20  C   UNL     1      -1.050   3.954  24.797  0.00  0.00    +0.022 C 
ATOM     21  C   UNL     1      -0.678   4.690  24.786  0.00  0.00    +0.002 C 
ATOM     22  C   UNL     1      -1.083   5.361  25.043  0.00  0.00    +0.000 C 
ATOM     23  C   UNL     1      -1.860   5.296  25.313  0.00  0.00    +0.002 C 
ATOM     24  C   UNL     1      -2.232   4.560  25.325  0.00  0.00    +0.022 C 
ENDBRANCH  18  19
ENDBRANCH  15  16
BRANCH   8   7
ATOM      7  C   UNL     1      -4.384  -0.053  24.739  0.00  0.00    +0.145 C 
BRANCH   7   6
ATOM      4  C   UNL     1      -3.527  -1.988  24.462  0.00  0.00    +0.131 A 
ATOM      5  C   UNL     1      -3.536  -1.249  24.830  0.00  0.00    +0.116 A 
ATOM      6  N   UNL     1      -4.171  -0.820  24.525  0.00  0.00    -0.229 N 
ATOM     25  N   UNL     1      -4.555  -1.294  23.969  0.00  0.00    -0.064 NA
ATOM     26  N   UNL     1      -4.157  -2.015  23.930  0.00  0.00    -0.131 NA
BRANCH   4   3
ATOM      3  C   UNL     1      -2.984  -2.593  24.602  0.00  0.00    +0.191 C 
BRANCH   3   2
ATOM      1  C   UNL     1      -1.595  -2.927  24.589  0.00  0.00    +0.175 C 
ATOM      2  O   UNL     1      -2.251  -2.584  24.224  0.00  0.00    -0.345 OA
ENDBRANCH   3   2
ENDBRANCH   4   3
ENDBRANCH   7   6
ENDBRANCH   8   7
TORSDOF 6
ENDMDL
MODEL 3
REMARK VINA RESULT:     -10.2      2.267      6.025
REMARK  Name = 
REMARK  6 active torsions:
REMARK  status: ('A' for Active; 'I' for Inactive)
REMARK    1  A    between atoms: O_2  and  C_3
REMARK    2  A    between atoms: C_3  and  C_4
REMARK    3  A    between atoms: N_6  and  C_7
REMARK    4  A    between atoms: C_7  and  C_8
REMARK    5  A    between atoms: C_15  and  C_16
REMARK    6  A    between atoms: N_18  and  C_19
REMARK                            x       y       z     vdW  Elec       q    Type
REMARK                         _______ _______ _______ _____ _____    ______ ____
ROOT
ATOM      8  C   UNL     1      -0.945  -0.224  25.150  0.00  0.00    +0.082 C 
ATOM      9  C   UNL     1      -0.593   0.239  24.633  0.00  0.00    +0.019 C 
ATOM     10  C   UNL     1      -0.717   1.035  24.551  0.00  0.00    +0.013 C 
ATOM     11  C   UNL     1      -0.214   1.386  23.897  0.00  0.00    +0.018 C 
ATOM     12  C   UNL     1      -0.443   0.910  24.282  0.00  0.00    +0.072 C 
ATOM     13  N   UNL     1      -1.066   0.588  25.061  0.00  0.00    -0.272 NA
ATOM     14  C   UNL     1      -1.608   1.176  25.500  0.00  0.00    +0.081 C 
ATOM     15  C   UNL     1      -1.241   1.595  24.978  0.00  0.00    +0.094 C 
ENDROOT
BRANCH  15  16
ATOM     16  C   UNL     1      -1.320   2.406  24.844  0.00  0.00    +0.242 C 
ATOM     17  O   UNL     1      -1.523   2.681  24.092  0.00  0.00    -0.273 OA
ATOM     18  N   UNL     1      -1.197   2.939  25.459  0.00  0.00    -0.207 NA
BRANCH  18  19
ATOM     19  C   UNL     1      -1.276   3.750  25.325  0.00  0.00    +0.095 C 
ATOM     20  C   UNL     1      -1.999   4.122  25.463  0.00  0.00    +0.022 C 
ATOM     21  C   UNL     1      -2.078   4.932  25.328  0.00  0.00    +0.002 C 
ATOM     22  C   UNL     1      -1.434   5.370  25.056  0.00  0.00    +0.000 C 
ATOM     23  C   UNL     1      -0.711   4.997  24.918  0.00  0.00    +0.002 C 
ATOM     24  C   UNL     1      -0.632   4.188  25.052  0.00  0.00    +0.022 C 
ENDBRANCH  18  19
ENDBRANCH  15  16
BRANCH   8   7
ATOM      7  C   UNL     1      -1.087  -0.954  25.507  0.00  0.00    +0.145 C 
BRANCH   7   6
ATOM      4  C   UNL     1      -2.494  -2.300  24.633  0.00  0.00    +0.131 A 
ATOM      5  C   UNL     1      -2.317  -1.656  25.119  0.00  0.00    +0.116 A 
ATOM      6  N   UNL     1      -1.502  -1.539  25.100  0.00  0.00    -0.229 N 
ATOM     25  N   UNL     1      -1.173  -2.110  24.603  0.00  0.00    -0.064 NA
ATOM     26  N   UNL     1      -1.786  -2.580  24.314  0.00  0.00    -0.131 NA
BRANCH   4   3
ATOM      3  C   UNL     1      -3.246  -2.609  24.490  0.00  0.00    +0.191 C 
BRANCH   3   2
ATOM      1  C   UNL     1      -4.498  -2.551  23.805  0.00  0.00    +0.175 C 
ATOM      2  O   UNL     1      -3.755  -2.228  23.965  0.00  0.00    -0.345 OA
ENDBRANCH   3   2
ENDBRANCH   4   3
ENDBRANCH   7   6
ENDBRANCH   8   7
TORSDOF 6
ENDMDL
MODEL 4
REMARK VINA RESULT:      -9.9      2.188      2.827
REMARK  Name = 
REMARK  6 active torsions:
REMARK  status: ('A' for Active; 'I' for Inactive)
REMARK    1  A    between atoms: O_2  and  C_3
REMARK    2  A    between atoms: C_3  and  C_4
REMARK    3  A    between atoms: N_6  and  C_7
REMARK    4  A    between atoms: C_7  and  C_8
REMARK    5  A    between atoms: C_15  and  C_16
REMARK    6  A    between atoms: N_18  and  C_19
REMARK                            x       y       z     vdW  Elec       q    Type
REMARK                         _______ _______ _______ _____ _____    ______ ____
ROOT
ATOM      8  C   UNL     1      -0.491   1.397  25.346  0.00  0.00    +0.082 C 
ATOM      9  C   UNL     1      -0.397   0.923  24.736  0.00  0.00    +0.019 C 
ATOM     10  C   UNL     1      -0.836   0.261  24.581  0.00  0.00    +0.013 C 
ATOM     11  C   UNL     1      -0.570  -0.147  23.828  0.00  0.00    +0.018 C 
ATOM     12  C   UNL     1      -0.557   0.312  24.292  0.00  0.00    +0.072 C 
ATOM     13  N   UNL     1      -0.935   0.721  25.181  0.00  0.00    -0.272 NA
ATOM     14  C   UNL     1      -1.631   0.325  25.619  0.00  0.00    +0.081 C 
ATOM     15  C   UNL     1      -1.506  -0.114  25.007  0.00  0.00    +0.094 C 
ENDROOT
BRANCH  15  16
ATOM     16  C   UNL     1      -1.914  -0.798  24.791  0.00  0.00    +0.242 C 
ATOM     17  O   UNL     1      -1.503  -1.444  24.485  0.00  0.00    -0.273 OA
ATOM     18  N   UNL     1      -2.733  -0.834  24.882  0.00  0.00    -0.207 NA
BRANCH  18  19
ATOM     19  C   UNL     1      -3.141  -1.518  24.666  0.00  0.00    +0.095 C 
ATOM     20  C   UNL     1      -3.028  -2.217  25.089  0.00  0.00    +0.022 C 
ATOM     21  C   UNL     1      -3.436  -2.900  24.873  0.00  0.00    +0.002 C 
ATOM     22  C   UNL     1      -3.958  -2.886  24.235  0.00  0.00    +0.000 C 
ATOM     23  C   UNL     1      -4.072  -2.186  23.812  0.00  0.00    +0.002 C 
ATOM     24  C   UNL     1      -3.663  -1.503  24.027  0.00  0.00    +0.022 C 
ENDBRANCH  18  19
ENDBRANCH  15  16
BRANCH   8   7
ATOM      7  C   UNL     1      -0.299   2.057  25.801  0.00  0.00    +0.145 C 
BRANCH   7   6
ATOM      4  C   UNL     1      -1.404   3.863  25.526  0.00  0.00    +0.131 A 
ATOM      5  C   UNL     1      -1.321   3.111  25.857  0.00  0.00    +0.116 A 
ATOM      6  N   UNL     1      -0.603   2.798  25.602  0.00  0.00    -0.229 N 
ATOM     25  N   UNL     1      -0.240   3.355  25.114  0.00  0.00    -0.064 NA
ATOM     26  N   UNL     1      -0.735   4.014  25.067  0.00  0.00    -0.131 NA
BRANCH   4   3
ATOM      3  C   UNL     1      -2.042   4.374  25.635  0.00  0.00    +0.191 C 
BRANCH   3   2
ATOM      1  C   UNL     1      -3.458   4.480  25.790  0.00  0.00    +0.175 C 
ATOM      2  O   UNL     1      -2.803   4.133  25.428  0.00  0.00    -0.345 OA
ENDBRANCH   3   2
ENDBRANCH   4   3
ENDBRANCH   7   6
ENDBRANCH   8   7
TORSDOF 6
ENDMDL
MODEL 5
REMARK VINA RESULT:      -9.9      3.348      4.723
REMARK  Name = 
REMARK  6 active torsions:
REMARK  status: ('A' for Active; 'I' for Inactive)
REMARK    1  A    between atoms: O_2  and  C_3
REMARK    2  A    between atoms: C_3  and  C_4
REMARK    3  A    between atoms: N_6  and  C_7
REMARK    4  A    between atoms: C_7  and  C_8
REMARK    5  A    between atoms: C_15  and  C_16
REMARK    6  A    between atoms: N_18  and  C_19
REMARK                            x       y       z     vdW  Elec       q    Type
REMARK                         _______ _______ _______ _____ _____    ______ ____
ROOT
ATOM      8  C   UNL     1      -0.918   1.426  24.016  0.00  0.00    +0.082 C 
ATOM      9  C   UNL     1      -1.470   1.567  23.485  0.00  0.00    +0.019 C 
ATOM     10  C   UNL     1      -2.229   1.800  23.644  0.00  0.00    +0.013 C 
ATOM     11  C   UNL     1      -2.708   1.910  22.894  0.00  0.00    +0.018 C 
ATOM     12  C   UNL     1      -2.176   1.767  23.244  0.00  0.00    +0.072 C 
ATOM     13  N   UNL     1      -1.694   1.665  24.170  0.00  0.00    -0.272 NA
ATOM     14  C   UNL     1      -2.137   1.832  24.949  0.00  0.00    +0.081 C 
ATOM     15  C   UNL     1      -2.649   1.960  24.398  0.00  0.00    +0.094 C 
ENDROOT
BRANCH  15  16
ATOM     16  C   UNL     1      -3.434   2.198  24.491  0.00  0.00    +0.242 C 
ATOM     17  O   UNL     1      -3.761   2.751  23.973  0.00  0.00    -0.273 OA
ATOM     18  N   UNL     1      -3.891   1.883  25.100  0.00  0.00    -0.207 NA
BRANCH  18  19
ATOM     19  C   UNL     1      -4.675   2.121  25.193  0.00  0.00    +0.095 C 
ATOM     20  C   UNL     1      -4.847   2.853  25.534  0.00  0.00    +0.022 C 
ATOM     21  C   UNL     1      -5.631   3.090  25.626  0.00  0.00    +0.002 C 
ATOM     22  C   UNL     1      -6.245   2.597  25.379  0.00  0.00    +0.000 C 
ATOM     23  C   UNL     1      -6.072   1.865  25.039  0.00  0.00    +0.002 C 
ATOM     24  C   UNL     1      -5.288   1.627  24.946  0.00  0.00    +0.022 C 
ENDBRANCH  18  19
ENDBRANCH  15  16
BRANCH   8   7
ATOM      7  C   UNL     1      -0.157   1.210  24.245  0.00  0.00    +0.145 C 
BRANCH   7   6
ATOM      4  C   UNL     1       1.153   0.089  22.986  0.00  0.00    +0.131 A 
ATOM      5  C   UNL     1       0.903   0.806  23.312  0.00  0.00    +0.116 A 
ATOM      6  N   UNL     1       0.263   0.651  23.807  0.00  0.00    -0.229 N 
ATOM     25  N   UNL     1       0.116  -0.161  23.789  0.00  0.00    -0.064 NA
ATOM     26  N   UNL     1       0.666  -0.508  23.281  0.00  0.00    -0.131 NA
BRANCH   4   3
ATOM      3  C   UNL     1       1.779  -0.012  22.458  0.00  0.00    +0.191 C 
BRANCH   3   2
ATOM      1  C   UNL     1       3.158   0.161  22.128  0.00  0.00    +0.175 C 
ATOM      2  O   UNL     1       2.541   0.218  22.672  0.00  0.00    -0.345 OA
ENDBRANCH   3   2
ENDBRANCH   4   3
ENDBRANCH   7   6
ENDBRANCH   8   7
TORSDOF 6
ENDMDL
