REMARK  Name = 
REMARK  3 active torsions:
REMARK  status: ('A' for Active; 'I' for Inactive)
REMARK    1  A    between atoms: O_2  and  C_3
REMARK    2  A    between atoms: C_7  and  C_8
REMARK    3  A    between atoms: C_8  and  N_9
REMARK                            x       y       z     vdW  Elec       q    Type
REMARK                         _______ _______ _______ _____ _____    ______ ____
ROOT
ATOM      8  C   UNL     1       0.242  -3.266   0.000  0.00  0.00    +0.099 C 
ENDROOT
BRANCH   8   9
ATOM      9  N   UNL     1      -0.472  -2.853   0.000  0.00  0.00    -0.265 NA
ATOM     10  C   UNL     1      -1.154  -3.318   0.000  0.00  0.00    +0.105 C 
ATOM     11  C   UNL     1      -1.942  -3.075   0.000  0.00  0.00    +0.160 C 
ATOM     12  O   UNL     1      -2.244  -2.307   0.000  0.00  0.00    -0.350 OA
ATOM     13  C   UNL     1      -1.831  -1.593   0.000  0.00  0.00    +0.176 C 
ATOM     14  C   UNL     1      -1.016  -1.470   0.000  0.00  0.00    +0.197 C 
ATOM     15  O   UNL     1      -0.772  -0.681   0.000  0.00  0.00    -0.219 OA
ATOM     16  C   UNL     1      -0.411  -2.031   0.000  0.00  0.00    +0.108 C 
ENDBRANCH   8   9
BRANCH   8   7
ATOM      3  C   UNL     1       1.671  -1.616   0.000  0.00  0.00    +0.138 A 
ATOM      4  C   UNL     1       2.385  -2.029   0.000  0.00  0.00    +0.037 A 
ATOM      5  C   UNL     1       2.385  -2.853   0.000  0.00  0.00    +0.003 A 
ATOM      6  C   UNL     1       1.671  -3.266   0.000  0.00  0.00    -0.003 A 
ATOM      7  C   UNL     1       0.957  -2.853   0.000  0.00  0.00    -0.003 A 
ATOM     17  C   UNL     1       0.957  -2.029   0.000  0.00  0.00    +0.034 A 
BRANCH   3   2
ATOM      1  C   UNL     1       2.385  -0.379   0.000  0.00  0.00    +0.252 C 
ATOM      2  O   UNL     1       1.671  -0.791   0.000  0.00  0.00    -0.471 OA
ENDBRANCH   3   2
ENDBRANCH   8   7
TORSDOF 3
