MODEL 1
REMARK VINA RESULT:     -11.4      0.000      0.000
REMARK  Name = 
REMARK  8 active torsions:
REMARK  status: ('A' for Active; 'I' for Inactive)
REMARK    1  A    between atoms: C_2  and  N_4
REMARK    2  A    between atoms: N_7  and  C_8
REMARK    3  A    between atoms: C_8  and  C_9
REMARK    4  A    between atoms: C_13  and  C_14
REMARK    5  A    between atoms: C_14  and  C_15
REMARK    6  A    between atoms: N_17  and  C_18
REMARK    7  A    between atoms: C_18  and  C_19
REMARK    8  A    between atoms: C_27  and  C_28
REMARK                            x       y       z     vdW  Elec       q    Type
REMARK                         _______ _______ _______ _____ _____    ______ ____
ROOT
ATOM      9  C   UNL     1      -4.020   0.810  24.273  0.00  0.00    +0.043 C 
ATOM     10  C   UNL     1      -4.672   0.921  24.766  0.00  0.00    -0.033 C 
ATOM     11  C   UNL     1      -4.864   1.680  25.029  0.00  0.00    -0.048 C 
ATOM     12  C   UNL     1      -5.516   1.791  25.523  0.00  0.00    +0.026 C 
ATOM     13  C   UNL     1      -4.405   2.326  24.800  0.00  0.00    +0.027 C 
ATOM     26  C   UNL     1      -3.754   2.213  24.306  0.00  0.00    +0.005 C 
ATOM     27  C   UNL     1      -3.561   1.456  24.043  0.00  0.00    +0.006 C 
ENDROOT
BRANCH  27  28
ATOM     28  C   UNL     1      -2.909   1.344  23.550  0.00  0.00    +0.000 C 
ATOM     29  C   UNL     1      -2.976   1.478  22.739  0.00  0.00    +0.000 C 
ATOM     30  C   UNL     1      -2.189   1.096  23.868  0.00  0.00    +0.000 C 
ENDBRANCH  27  28
BRANCH   9   8
ATOM      8  C   UNL     1      -3.827   0.052  24.009  0.00  0.00    +0.121 C 
BRANCH   8   7
ATOM      4  N   UNL     1      -3.968  -2.016  24.693  0.00  0.00    -0.189 NA
ATOM      5  C   UNL     1      -3.817  -1.363  24.212  0.00  0.00    +0.339 C 
ATOM      6  O   UNL     1      -3.507  -1.469  23.457  0.00  0.00    -0.249 OA
ATOM      7  N   UNL     1      -3.978  -0.602  24.490  0.00  0.00    -0.187 NA
BRANCH   4   2
ATOM      1  C   UNL     1      -3.127  -3.171  24.664  0.00  0.00    +0.023 C 
ATOM      2  C   UNL     1      -3.808  -2.777  24.415  0.00  0.00    +0.097 C 
ATOM      3  C   UNL     1      -4.328  -3.143  23.891  0.00  0.00    +0.023 C 
ENDBRANCH   4   2
ENDBRANCH   8   7
ENDBRANCH   9   8
BRANCH  13  14
ATOM     14  C   UNL     1      -4.598   3.083  25.063  0.00  0.00    +0.091 C 
BRANCH  14  15
ATOM     15  C   UNL     1      -4.088   3.486  25.571  0.00  0.00    +0.242 C 
ATOM     16  O   UNL     1      -4.213   3.460  26.386  0.00  0.00    -0.273 OA
ATOM     17  N   UNL     1      -3.454   3.915  25.265  0.00  0.00    -0.201 NA
BRANCH  17  18
ATOM     18  C   UNL     1      -2.945   4.318  25.773  0.00  0.00    +0.141 C 
BRANCH  18  19
ATOM     19  C   UNL     1      -2.217   4.591  25.497  0.00  0.00    -0.000 A 
ATOM     20  C   UNL     1      -1.548   4.111  25.548  0.00  0.00    -0.000 A 
ATOM     21  C   UNL     1      -0.821   4.384  25.272  0.00  0.00    +0.029 A 
ATOM     22  C   UNL     1      -0.762   5.139  24.945  0.00  0.00    +0.140 A 
ATOM     23  F   UNL     1      -0.034   5.413  24.669  0.00  0.00    -0.204 F 
ATOM     24  C   UNL     1      -1.429   5.620  24.893  0.00  0.00    +0.029 A 
ATOM     25  C   UNL     1      -2.158   5.346  25.169  0.00  0.00    -0.000 A 
ENDBRANCH  18  19
ENDBRANCH  17  18
ENDBRANCH  14  15
ENDBRANCH  13  14
TORSDOF 8
ENDMDL
MODEL 2
REMARK VINA RESULT:     -10.3      2.951      4.476
REMARK  Name = 
REMARK  8 active torsions:
REMARK  status: ('A' for Active; 'I' for Inactive)
REMARK    1  A    between atoms: C_2  and  N_4
REMARK    2  A    between atoms: N_7  and  C_8
REMARK    3  A    between atoms: C_8  and  C_9
REMARK    4  A    between atoms: C_13  and  C_14
REMARK    5  A    between atoms: C_14  and  C_15
REMARK    6  A    between atoms: N_17  and  C_18
REMARK    7  A    between atoms: C_18  and  C_19
REMARK    8  A    between atoms: C_27  and  C_28
REMARK                            x       y       z     vdW  Elec       q    Type
REMARK                         _______ _______ _______ _____ _____    ______ ____
ROOT
ATOM      9  C   UNL     1      -0.546   1.533  24.597  0.00  0.00    +0.043 C 
ATOM     10  C   UNL     1      -0.251   2.304  24.620  0.00  0.00    -0.033 C 
ATOM     11  C   UNL     1      -0.700   2.906  24.963  0.00  0.00    -0.048 C 
ATOM     12  C   UNL     1      -0.406   3.676  24.986  0.00  0.00    +0.026 C 
ATOM     13  C   UNL     1      -1.442   2.738  25.281  0.00  0.00    +0.027 C 
ATOM     26  C   UNL     1      -1.736   1.967  25.257  0.00  0.00    +0.005 C 
ATOM     27  C   UNL     1      -1.288   1.365  24.915  0.00  0.00    +0.006 C 
ENDROOT
BRANCH  27  28
ATOM     28  C   UNL     1      -1.581   0.594  24.891  0.00  0.00    +0.000 C 
ATOM     29  C   UNL     1      -2.018   0.339  24.240  0.00  0.00    +0.000 C 
ATOM     30  C   UNL     1      -1.437   0.079  25.519  0.00  0.00    +0.000 C 
ENDBRANCH  27  28
BRANCH   9   8
ATOM      8  C   UNL     1      -0.097   0.931  24.254  0.00  0.00    +0.121 C 
BRANCH   8   7
ATOM      4  N   UNL     1       1.683   0.708  23.010  0.00  0.00    -0.189 NA
ATOM      5  C   UNL     1       0.998   0.523  23.431  0.00  0.00    +0.339 C 
ATOM      6  O   UNL     1       0.723  -0.254  23.450  0.00  0.00    -0.249 OA
ATOM      7  N   UNL     1       0.588   1.116  23.833  0.00  0.00    -0.187 NA
BRANCH   4   2
ATOM      1  C   UNL     1       2.845  -0.110  22.860  0.00  0.00    +0.023 C 
ATOM      2  C   UNL     1       2.092   0.114  22.608  0.00  0.00    +0.097 C 
ATOM      3  C   UNL     1       1.750  -0.253  21.955  0.00  0.00    +0.023 C 
ENDBRANCH   4   2
ENDBRANCH   8   7
ENDBRANCH   9   8
BRANCH  13  14
ATOM     14  C   UNL     1      -1.890   3.339  25.623  0.00  0.00    +0.091 C 
BRANCH  14  15
ATOM     15  C   UNL     1      -2.597   3.579  25.271  0.00  0.00    +0.242 C 
ATOM     16  O   UNL     1      -2.586   4.132  24.659  0.00  0.00    -0.273 OA
ATOM     17  N   UNL     1      -3.314   3.267  25.532  0.00  0.00    -0.201 NA
BRANCH  17  18
ATOM     18  C   UNL     1      -4.021   3.506  25.181  0.00  0.00    +0.141 C 
BRANCH  18  19
ATOM     19  C   UNL     1      -4.696   3.036  25.247  0.00  0.00    -0.000 A 
ATOM     20  C   UNL     1      -5.160   3.072  25.928  0.00  0.00    -0.000 A 
ATOM     21  C   UNL     1      -5.834   2.603  25.994  0.00  0.00    +0.029 A 
ATOM     22  C   UNL     1      -6.045   2.096  25.378  0.00  0.00    +0.140 A 
ATOM     23  F   UNL     1      -6.720   1.626  25.443  0.00  0.00    -0.204 F 
ATOM     24  C   UNL     1      -5.582   2.059  24.696  0.00  0.00    +0.029 A 
ATOM     25  C   UNL     1      -4.907   2.530  24.631  0.00  0.00    -0.000 A 
ENDBRANCH  18  19
ENDBRANCH  17  18
ENDBRANCH  14  15
ENDBRANCH  13  14
TORSDOF 8
ENDMDL
MODEL 3
REMARK VINA RESULT:     -10.3      2.989      4.697
REMARK  Name = 
REMARK  8 active torsions:
REMARK  status: ('A' for Active; 'I' for Inactive)
REMARK    1  A    between atoms: C_2  and  N_4
REMARK    2  A    between atoms: N_7  and  C_8
REMARK    3  A    between atoms: C_8  and  C_9
REMARK    4  A    between atoms: C_13  and  C_14
REMARK    5  A    between atoms: C_14  and  C_15
REMARK    6  A    between atoms: N_17  and  C_18
REMARK    7  A    between atoms: C_18  and  C_19
REMARK    8  A    between atoms: C_27  and  C_28
REMARK                            x       y       z     vdW  Elec       q    Type
REMARK                         _______ _______ _______ _____ _____    ______ ____
ROOT
ATOM      9  C   UNL     1      -0.662   0.360  24.164  0.00  0.00    +0.043 C 
ATOM     10  C   UNL     1      -0.836  -0.441  24.256  0.00  0.00    -0.033 C 
ATOM     11  C   UNL     1      -1.569  -0.672  24.557  0.00  0.00    -0.048 C 
ATOM     12  C   UNL     1      -1.743  -1.473  24.649  0.00  0.00    +0.026 C 
ATOM     13  C   UNL     1      -2.128  -0.101  24.765  0.00  0.00    +0.027 C 
ATOM     26  C   UNL     1      -1.953   0.700  24.673  0.00  0.00    +0.005 C 
ATOM     27  C   UNL     1      -1.221   0.931  24.373  0.00  0.00    +0.006 C 
ENDROOT
BRANCH  27  28
ATOM     28  C   UNL     1      -1.045   1.732  24.280  0.00  0.00    +0.000 C 
ATOM     29  C   UNL     1      -1.206   2.110  23.566  0.00  0.00    +0.000 C 
ATOM     30  C   UNL     1      -0.709   2.154  24.904  0.00  0.00    +0.000 C 
ENDBRANCH  27  28
BRANCH   9   8
ATOM      8  C   UNL     1       0.071   0.591  23.863  0.00  0.00    +0.121 C 
BRANCH   8   7
ATOM      4  N   UNL     1       1.733  -0.269  22.740  0.00  0.00    -0.189 NA
ATOM      5  C   UNL     1       1.285   0.262  23.184  0.00  0.00    +0.339 C 
ATOM      6  O   UNL     1       1.601   0.993  23.395  0.00  0.00    -0.249 OA
ATOM      7  N   UNL     1       0.519   0.060  23.419  0.00  0.00    -0.187 NA
BRANCH   4   2
ATOM      1  C   UNL     1       2.656   0.104  21.714  0.00  0.00    +0.023 C 
ATOM      2  C   UNL     1       2.499  -0.067  22.505  0.00  0.00    +0.097 C 
ATOM      3  C   UNL     1       3.105  -0.036  23.062  0.00  0.00    +0.023 C 
ENDBRANCH   4   2
ENDBRANCH   8   7
ENDBRANCH   9   8
BRANCH  13  14
ATOM     14  C   UNL     1      -2.860  -0.332  25.066  0.00  0.00    +0.091 C 
BRANCH  14  15
ATOM     15  C   UNL     1      -3.555  -0.041  24.729  0.00  0.00    +0.242 C 
ATOM     16  O   UNL     1      -3.827  -0.348  24.014  0.00  0.00    -0.273 OA
ATOM     17  N   UNL     1      -3.978   0.557  25.108  0.00  0.00    -0.201 NA
BRANCH  17  18
ATOM     18  C   UNL     1      -4.672   0.848  24.772  0.00  0.00    +0.141 C 
BRANCH  18  19
ATOM     19  C   UNL     1      -4.981   1.571  25.021  0.00  0.00    -0.000 A 
ATOM     20  C   UNL     1      -5.518   1.598  25.647  0.00  0.00    -0.000 A 
ATOM     21  C   UNL     1      -5.826   2.321  25.896  0.00  0.00    +0.029 A 
ATOM     22  C   UNL     1      -5.598   3.018  25.519  0.00  0.00    +0.140 A 
ATOM     23  F   UNL     1      -5.906   3.742  25.768  0.00  0.00    -0.204 F 
ATOM     24  C   UNL     1      -5.061   2.993  24.893  0.00  0.00    +0.029 A 
ATOM     25  C   UNL     1      -4.753   2.268  24.644  0.00  0.00    -0.000 A 
ENDBRANCH  18  19
ENDBRANCH  17  18
ENDBRANCH  14  15
ENDBRANCH  13  14
TORSDOF 8
ENDMDL
MODEL 4
REMARK VINA RESULT:     -10.1      1.210      1.979
REMARK  Name = 
REMARK  8 active torsions:
REMARK  status: ('A' for Active; 'I' for Inactive)
REMARK    1  A    between atoms: C_2  and  N_4
REMARK    2  A    between atoms: N_7  and  C_8
REMARK    3  A    between atoms: C_8  and  C_9
REMARK    4  A    between atoms: C_13  and  C_14
REMARK    5  A    between atoms: C_14  and  C_15
REMARK    6  A    between atoms: N_17  and  C_18
REMARK    7  A    between atoms: C_18  and  C_19
REMARK    8  A    between atoms: C_27  and  C_28
REMARK                            x       y       z     vdW  Elec       q    Type
REMARK                         _______ _______ _______ _____ _____    ______ ____
ROOT
ATOM      9  C   UNL     1      -4.238   0.877  24.197  0.00  0.00    +0.043 C 
ATOM     10  C   UNL     1      -3.650   0.995  23.631  0.00  0.00    -0.033 C 
ATOM     11  C   UNL     1      -3.391   1.760  23.459  0.00  0.00    -0.048 C 
ATOM     12  C   UNL     1      -2.803   1.879  22.893  0.00  0.00    +0.026 C 
ATOM     13  C   UNL     1      -3.719   2.406  23.855  0.00  0.00    +0.027 C 
ATOM     26  C   UNL     1      -4.307   2.286  24.421  0.00  0.00    +0.005 C 
ATOM     27  C   UNL     1      -4.566   1.523  24.593  0.00  0.00    +0.006 C 
ENDROOT
BRANCH  27  28
ATOM     28  C   UNL     1      -5.154   1.403  25.159  0.00  0.00    +0.000 C 
ATOM     29  C   UNL     1      -5.949   1.440  24.944  0.00  0.00    +0.000 C 
ATOM     30  C   UNL     1      -4.946   1.246  25.942  0.00  0.00    +0.000 C 
ENDBRANCH  27  28
BRANCH   9   8
ATOM      8  C   UNL     1      -4.497   0.112  24.369  0.00  0.00    +0.121 C 
BRANCH   8   7
ATOM      4  N   UNL     1      -3.832  -1.888  23.802  0.00  0.00    -0.189 NA
ATOM      5  C   UNL     1      -4.089  -1.253  24.262  0.00  0.00    +0.339 C 
ATOM      6  O   UNL     1      -4.194  -1.348  25.074  0.00  0.00    -0.249 OA
ATOM      7  N   UNL     1      -4.240  -0.522  23.909  0.00  0.00    -0.187 NA
BRANCH   4   2
ATOM      1  C   UNL     1      -2.989  -2.729  24.592  0.00  0.00    +0.023 C 
ATOM      2  C   UNL     1      -3.680  -2.618  24.156  0.00  0.00    +0.097 C 
ATOM      3  C   UNL     1      -4.220  -3.236  24.073  0.00  0.00    +0.023 C 
ENDBRANCH   4   2
ENDBRANCH   8   7
ENDBRANCH   9   8
BRANCH  13  14
ATOM     14  C   UNL     1      -3.460   3.169  23.683  0.00  0.00    +0.091 C 
BRANCH  14  15
ATOM     15  C   UNL     1      -3.069   3.612  24.260  0.00  0.00    +0.242 C 
ATOM     16  O   UNL     1      -3.447   4.256  24.611  0.00  0.00    -0.273 OA
ATOM     17  N   UNL     1      -2.301   3.412  24.484  0.00  0.00    -0.201 NA
BRANCH  17  18
ATOM     18  C   UNL     1      -1.911   3.855  25.060  0.00  0.00    +0.141 C 
BRANCH  18  19
ATOM     19  C   UNL     1      -1.243   3.549  25.434  0.00  0.00    -0.000 A 
ATOM     20  C   UNL     1      -1.318   3.140  26.147  0.00  0.00    -0.000 A 
ATOM     21  C   UNL     1      -0.650   2.835  26.521  0.00  0.00    +0.029 A 
ATOM     22  C   UNL     1       0.095   2.937  26.182  0.00  0.00    +0.140 A 
ATOM     23  F   UNL     1       0.764   2.631  26.555  0.00  0.00    -0.204 F 
ATOM     24  C   UNL     1       0.172   3.344  25.469  0.00  0.00    +0.029 A 
ATOM     25  C   UNL     1      -0.498   3.651  25.095  0.00  0.00    -0.000 A 
ENDBRANCH  18  19
ENDBRANCH  17  18
ENDBRANCH  14  15
ENDBRANCH  13  14
TORSDOF 8
ENDMDL
MODEL 5
REMARK VINA RESULT:     -10.0      3.271      5.416
REMARK  Name = 
REMARK  8 active torsions:
REMARK  status: ('A' for Active; 'I' for Inactive)
REMARK    1  A    between atoms: C_2  and  N_4
REMARK    2  A    between atoms: N_7  and  C_8
REMARK    3  A    between atoms: C_8  and  C_9
REMARK    4  A    between atoms: C_13  and  C_14
REMARK    5  A    between atoms: C_14  and  C_15
REMARK    6  A    between atoms: N_17  and  C_18
REMARK    7  A    between atoms: C_18  and  C_19
REMARK    8  A    between atoms: C_27  and  C_28
REMARK                            x       y       z     vdW  Elec       q    Type
REMARK                         _______ _______ _______ _____ _____    ______ ____
ROOT
ATOM      9  C   UNL     1      -0.680   1.432  24.011  0.00  0.00    +0.043 C 
ATOM     10  C   UNL     1      -1.083   1.486  23.293  0.00  0.00    -0.033 C 
ATOM     11  C   UNL     1      -1.903   1.583  23.286  0.00  0.00    -0.048 C 
ATOM     12  C   UNL     1      -2.305   1.636  22.568  0.00  0.00    +0.026 C 
ATOM     13  C   UNL     1      -2.319   1.626  23.997  0.00  0.00    +0.027 C 
ATOM     26  C   UNL     1      -1.915   1.572  24.715  0.00  0.00    +0.005 C 
ATOM     27  C   UNL     1      -1.096   1.475  24.722  0.00  0.00    +0.006 C 
ENDROOT
BRANCH  27  28
ATOM     28  C   UNL     1      -0.693   1.422  25.439  0.00  0.00    +0.000 C 
ATOM     29  C   UNL     1      -0.616   0.693  25.817  0.00  0.00    +0.000 C 
ATOM     30  C   UNL     1      -0.365   2.098  25.779  0.00  0.00    +0.000 C 
ENDBRANCH  27  28
BRANCH   9   8
ATOM      8  C   UNL     1       0.140   1.335  24.017  0.00  0.00    +0.121 C 
BRANCH   8   7
ATOM      4  N   UNL     1       1.680   0.304  22.865  0.00  0.00    -0.189 NA
ATOM      5  C   UNL     1       1.321   0.813  23.405  0.00  0.00    +0.339 C 
ATOM      6  O   UNL     1       1.783   1.309  23.874  0.00  0.00    -0.249 OA
ATOM      7  N   UNL     1       0.499   0.826  23.477  0.00  0.00    -0.187 NA
BRANCH   4   2
ATOM      1  C   UNL     1       2.936  -0.321  23.134  0.00  0.00    +0.023 C 
ATOM      2  C   UNL     1       2.502   0.292  22.793  0.00  0.00    +0.097 C 
ATOM      3  C   UNL     1       2.889   0.891  22.381  0.00  0.00    +0.023 C 
ENDBRANCH   4   2
ENDBRANCH   8   7
ENDBRANCH   9   8
BRANCH  13  14
ATOM     14  C   UNL     1      -3.137   1.723  23.990  0.00  0.00    +0.091 C 
BRANCH  14  15
ATOM     15  C   UNL     1      -3.618   1.210  24.422  0.00  0.00    +0.242 C 
ATOM     16  O   UNL     1      -4.025   1.486  25.084  0.00  0.00    -0.273 OA
ATOM     17  N   UNL     1      -3.692   0.421  24.192  0.00  0.00    -0.201 NA
BRANCH  17  18
ATOM     18  C   UNL     1      -4.172  -0.091  24.624  0.00  0.00    +0.141 C 
BRANCH  18  19
ATOM     19  C   UNL     1      -4.072  -0.907  24.556  0.00  0.00    -0.000 A 
ATOM     20  C   UNL     1      -4.335  -1.301  23.880  0.00  0.00    -0.000 A 
ATOM     21  C   UNL     1      -4.235  -2.117  23.812  0.00  0.00    +0.029 A 
ATOM     22  C   UNL     1      -3.872  -2.539  24.421  0.00  0.00    +0.140 A 
ATOM     23  F   UNL     1      -3.772  -3.355  24.354  0.00  0.00    -0.204 F 
ATOM     24  C   UNL     1      -3.610  -2.147  25.097  0.00  0.00    +0.029 A 
ATOM     25  C   UNL     1      -3.710  -1.330  25.165  0.00  0.00    -0.000 A 
ENDBRANCH  18  19
ENDBRANCH  17  18
ENDBRANCH  14  15
ENDBRANCH  13  14
TORSDOF 8
ENDMDL
MODEL 6
REMARK VINA RESULT:      -9.7      3.649      5.500
REMARK  Name = 
REMARK  8 active torsions:
REMARK  status: ('A' for Active; 'I' for Inactive)
REMARK    1  A    between atoms: C_2  and  N_4
REMARK    2  A    between atoms: N_7  and  C_8
REMARK    3  A    between atoms: C_8  and  C_9
REMARK    4  A    between atoms: C_13  and  C_14
REMARK    5  A    between atoms: C_14  and  C_15
REMARK    6  A    between atoms: N_17  and  C_18
REMARK    7  A    between atoms: C_18  and  C_19
REMARK    8  A    between atoms: C_27  and  C_28
REMARK                            x       y       z     vdW  Elec       q    Type
REMARK                         _______ _______ _______ _____ _____    ______ ____
ROOT
ATOM      9  C   UNL     1      -1.457   1.506  24.664  0.00  0.00    +0.043 C 
ATOM     10  C   UNL     1      -1.689   0.726  24.529  0.00  0.00    -0.033 C 
ATOM     11  C   UNL     1      -1.132   0.164  24.293  0.00  0.00    -0.048 C 
ATOM     12  C   UNL     1      -1.364  -0.615  24.158  0.00  0.00    +0.026 C 
ATOM     13  C   UNL     1      -0.343   0.383  24.194  0.00  0.00    +0.027 C 
ATOM     26  C   UNL     1      -0.111   1.164  24.329  0.00  0.00    +0.005 C 
ATOM     27  C   UNL     1      -0.668   1.725  24.564  0.00  0.00    +0.006 C 
ENDROOT
BRANCH  27  28
ATOM     28  C   UNL     1      -0.436   2.505  24.699  0.00  0.00    +0.000 C 
ATOM     29  C   UNL     1      -0.467   3.057  24.088  0.00  0.00    +0.000 C 
ATOM     30  C   UNL     1      -0.174   2.733  25.448  0.00  0.00    +0.000 C 
ENDBRANCH  27  28
BRANCH   9   8
ATOM      8  C   UNL     1      -2.015   2.067  24.899  0.00  0.00    +0.121 C 
BRANCH   8   7
ATOM      4  N   UNL     1      -4.174   2.365  24.798  0.00  0.00    -0.189 NA
ATOM      5  C   UNL     1      -3.387   2.445  25.029  0.00  0.00    +0.339 C 
ATOM      6  O   UNL     1      -3.183   2.980  25.622  0.00  0.00    -0.249 OA
ATOM      7  N   UNL     1      -2.802   1.988  24.667  0.00  0.00    -0.187 NA
BRANCH   4   2
ATOM      1  C   UNL     1      -5.314   2.464  25.655  0.00  0.00    +0.023 C 
ATOM      2  C   UNL     1      -4.759   2.822  25.160  0.00  0.00    +0.097 C 
ATOM      3  C   UNL     1      -4.788   3.635  25.027  0.00  0.00    +0.023 C 
ENDBRANCH   4   2
ENDBRANCH   8   7
ENDBRANCH   9   8
BRANCH  13  14
ATOM     14  C   UNL     1       0.214  -0.178  23.959  0.00  0.00    +0.091 C 
BRANCH  14  15
ATOM     15  C   UNL     1       0.688  -0.038  23.298  0.00  0.00    +0.242 C 
ATOM     16  O   UNL     1       0.341   0.074  22.558  0.00  0.00    -0.273 OA
ATOM     17  N   UNL     1       1.508  -0.010  23.377  0.00  0.00    -0.201 NA
BRANCH  17  18
ATOM     18  C   UNL     1       1.982   0.129  22.717  0.00  0.00    +0.141 C 
BRANCH  18  19
ATOM     19  C   UNL     1       2.796   0.228  22.806  0.00  0.00    -0.000 A 
ATOM     20  C   UNL     1       3.271  -0.414  23.016  0.00  0.00    -0.000 A 
ATOM     21  C   UNL     1       4.084  -0.315  23.104  0.00  0.00    +0.029 A 
ATOM     22  C   UNL     1       4.425   0.427  22.983  0.00  0.00    +0.140 A 
ATOM     23  F   UNL     1       5.239   0.527  23.071  0.00  0.00    -0.204 F 
ATOM     24  C   UNL     1       3.952   1.069  22.773  0.00  0.00    +0.029 A 
ATOM     25  C   UNL     1       3.137   0.970  22.684  0.00  0.00    -0.000 A 
ENDBRANCH  18  19
ENDBRANCH  17  18
ENDBRANCH  14  15
ENDBRANCH  13  14
TORSDOF 8
ENDMDL
MODEL 7
REMARK VINA RESULT:      -9.7      1.905      5.260
REMARK  Name = 
REMARK  8 active torsions:
REMARK  status: ('A' for Active; 'I' for Inactive)
REMARK    1  A    between atoms: C_2  and  N_4
REMARK    2  A    between atoms: N_7  and  C_8
REMARK    3  A    between atoms: C_8  and  C_9
REMARK    4  A    between atoms: C_13  and  C_14
REMARK    5  A    between atoms: C_14  and  C_15
REMARK    6  A    between atoms: N_17  and  C_18
REMARK    7  A    between atoms: C_18  and  C_19
REMARK    8  A    between atoms: C_27  and  C_28
REMARK                            x       y       z     vdW  Elec       q    Type
REMARK                         _______ _______ _______ _____ _____    ______ ____
ROOT
ATOM      9  C   UNL     1      -3.391   2.096  24.170  0.00  0.00    +0.043 C 
ATOM     10  C   UNL     1      -3.936   1.990  24.780  0.00  0.00    -0.033 C 
ATOM     11  C   UNL     1      -4.321   1.264  24.868  0.00  0.00    -0.048 C 
ATOM     12  C   UNL     1      -4.866   1.159  25.477  0.00  0.00    +0.026 C 
ATOM     13  C   UNL     1      -4.160   0.646  24.346  0.00  0.00    +0.027 C 
ATOM     26  C   UNL     1      -3.614   0.753  23.736  0.00  0.00    +0.005 C 
ATOM     27  C   UNL     1      -3.230   1.477  23.648  0.00  0.00    +0.006 C 
ENDROOT
BRANCH  27  28
ATOM     28  C   UNL     1      -2.684   1.585  23.039  0.00  0.00    +0.000 C 
ATOM     29  C   UNL     1      -2.930   1.888  22.313  0.00  0.00    +0.000 C 
ATOM     30  C   UNL     1      -1.892   1.387  23.156  0.00  0.00    +0.000 C 
ENDBRANCH  27  28
BRANCH   9   8
ATOM      8  C   UNL     1      -3.006   2.821  24.082  0.00  0.00    +0.121 C 
BRANCH   8   7
ATOM      4  N   UNL     1      -1.985   4.304  25.315  0.00  0.00    -0.189 NA
ATOM      5  C   UNL     1      -2.324   3.936  24.659  0.00  0.00    +0.339 C 
ATOM      6  O   UNL     1      -2.319   4.312  23.926  0.00  0.00    -0.249 OA
ATOM      7  N   UNL     1      -2.668   3.189  24.738  0.00  0.00    -0.187 NA
BRANCH   4   2
ATOM      1  C   UNL     1      -0.843   5.117  25.037  0.00  0.00    +0.023 C 
ATOM      2  C   UNL     1      -1.641   5.051  25.237  0.00  0.00    +0.097 C 
ATOM      3  C   UNL     1      -2.094   5.728  25.358  0.00  0.00    +0.023 C 
ENDBRANCH   4   2
ENDBRANCH   8   7
ENDBRANCH   9   8
BRANCH  13  14
ATOM     14  C   UNL     1      -4.544  -0.078  24.433  0.00  0.00    +0.091 C 
BRANCH  14  15
ATOM     15  C   UNL     1      -4.134  -0.782  24.303  0.00  0.00    +0.242 C 
ATOM     16  O   UNL     1      -4.286  -1.228  23.626  0.00  0.00    -0.273 OA
ATOM     17  N   UNL     1      -3.572  -1.040  24.849  0.00  0.00    -0.201 NA
BRANCH  17  18
ATOM     18  C   UNL     1      -3.163  -1.743  24.719  0.00  0.00    +0.141 C 
BRANCH  18  19
ATOM     19  C   UNL     1      -2.369  -1.806  24.936  0.00  0.00    -0.000 A 
ATOM     20  C   UNL     1      -2.097  -1.436  25.622  0.00  0.00    -0.000 A 
ATOM     21  C   UNL     1      -1.304  -1.499  25.838  0.00  0.00    +0.029 A 
ATOM     22  C   UNL     1      -0.782  -1.931  25.368  0.00  0.00    +0.140 A 
ATOM     23  F   UNL     1       0.012  -1.995  25.584  0.00  0.00    -0.204 F 
ATOM     24  C   UNL     1      -1.052  -2.301  24.682  0.00  0.00    +0.029 A 
ATOM     25  C   UNL     1      -1.846  -2.238  24.466  0.00  0.00    -0.000 A 
ENDBRANCH  18  19
ENDBRANCH  17  18
ENDBRANCH  14  15
ENDBRANCH  13  14
TORSDOF 8
ENDMDL
MODEL 8
REMARK VINA RESULT:      -9.6      2.598      5.440
REMARK  Name = 
REMARK  8 active torsions:
REMARK  status: ('A' for Active; 'I' for Inactive)
REMARK    1  A    between atoms: C_2  and  N_4
REMARK    2  A    between atoms: N_7  and  C_8
REMARK    3  A    between atoms: C_8  and  C_9
REMARK    4  A    between atoms: C_13  and  C_14
REMARK    5  A    between atoms: C_14  and  C_15
REMARK    6  A    between atoms: N_17  and  C_18
REMARK    7  A    between atoms: C_18  and  C_19
REMARK    8  A    between atoms: C_27  and  C_28
REMARK                            x       y       z     vdW  Elec       q    Type
REMARK                         _______ _______ _______ _____ _____    ______ ____
ROOT
ATOM      9  C   UNL     1      -2.382   2.201  24.369  0.00  0.00    +0.043 C 
ATOM     10  C   UNL     1      -1.933   2.236  25.060  0.00  0.00    -0.033 C 
ATOM     11  C   UNL     1      -1.268   1.755  25.143  0.00  0.00    -0.048 C 
ATOM     12  C   UNL     1      -0.819   1.790  25.834  0.00  0.00    +0.026 C 
ATOM     13  C   UNL     1      -1.052   1.240  24.536  0.00  0.00    +0.027 C 
ATOM     26  C   UNL     1      -1.502   1.206  23.845  0.00  0.00    +0.005 C 
ATOM     27  C   UNL     1      -2.167   1.686  23.761  0.00  0.00    +0.006 C 
ENDROOT
BRANCH  27  28
ATOM     28  C   UNL     1      -2.617   1.652  23.071  0.00  0.00    +0.000 C 
ATOM     29  C   UNL     1      -3.238   1.114  23.008  0.00  0.00    +0.000 C 
ATOM     30  C   UNL     1      -2.444   2.158  22.441  0.00  0.00    +0.000 C 
ENDBRANCH  27  28
BRANCH   9   8
ATOM      8  C   UNL     1      -3.048   2.682  24.285  0.00  0.00    +0.121 C 
BRANCH   8   7
ATOM      4  N   UNL     1      -4.539   3.561  25.615  0.00  0.00    -0.189 NA
ATOM      5  C   UNL     1      -4.196   3.213  24.950  0.00  0.00    +0.339 C 
ATOM      6  O   UNL     1      -4.657   3.048  24.288  0.00  0.00    -0.249 OA
ATOM      7  N   UNL     1      -3.391   3.031  24.950  0.00  0.00    -0.187 NA
BRANCH   4   2
ATOM      1  C   UNL     1      -5.900   3.151  25.754  0.00  0.00    +0.023 C 
ATOM      2  C   UNL     1      -5.344   3.744  25.616  0.00  0.00    +0.097 C 
ATOM      3  C   UNL     1      -5.591   4.518  25.479  0.00  0.00    +0.023 C 
ENDBRANCH   4   2
ENDBRANCH   8   7
ENDBRANCH   9   8
BRANCH  13  14
ATOM     14  C   UNL     1      -0.387   0.760  24.620  0.00  0.00    +0.091 C 
BRANCH  14  15
ATOM     15  C   UNL     1      -0.422  -0.036  24.406  0.00  0.00    +0.242 C 
ATOM     16  O   UNL     1       0.010  -0.308  23.758  0.00  0.00    -0.273 OA
ATOM     17  N   UNL     1      -0.889  -0.560  24.838  0.00  0.00    -0.201 NA
BRANCH  17  18
ATOM     18  C   UNL     1      -0.925  -1.355  24.624  0.00  0.00    +0.141 C 
BRANCH  18  19
ATOM     19  C   UNL     1      -1.617  -1.786  24.747  0.00  0.00    -0.000 A 
ATOM     20  C   UNL     1      -2.061  -1.670  25.433  0.00  0.00    -0.000 A 
ATOM     21  C   UNL     1      -2.753  -2.101  25.555  0.00  0.00    +0.029 A 
ATOM     22  C   UNL     1      -3.003  -2.649  24.991  0.00  0.00    +0.140 A 
ATOM     23  F   UNL     1      -3.695  -3.080  25.112  0.00  0.00    -0.204 F 
ATOM     24  C   UNL     1      -2.560  -2.766  24.305  0.00  0.00    +0.029 A 
ATOM     25  C   UNL     1      -1.867  -2.334  24.183  0.00  0.00    -0.000 A 
ENDBRANCH  18  19
ENDBRANCH  17  18
ENDBRANCH  14  15
ENDBRANCH  13  14
TORSDOF 8
ENDMDL
