REMARK  Name = 
REMARK  5 active torsions:
REMARK  status: ('A' for Active; 'I' for Inactive)
REMARK    1  A    between atoms: C_2  and  C_4
REMARK    2  A    between atoms: C_4  and  C_5
REMARK    3  A    between atoms: C_5  and  C_6
REMARK    4  A    between atoms: N_8  and  C_9
REMARK    5  A    between atoms: C_20  and  C_25
REMARK                            x       y       z     vdW  Elec       q    Type
REMARK                         _______ _______ _______ _____ _____    ______ ____
ROOT
ATOM      9  C   UNL     1      -0.708  -1.045   0.000  0.00  0.00    +0.124 C 
ATOM     10  C   UNL     1      -0.622  -1.866   0.000  0.00  0.00    +0.045 C 
ATOM     11  C   UNL     1       0.185  -2.037   0.000  0.00  0.00    +0.096 C 
ATOM     12  N   UNL     1       0.598  -1.323   0.000  0.00  0.00    -0.268 N 
ATOM     13  C   UNL     1       0.046  -0.710   0.000  0.00  0.00    +0.174 C 
ATOM     14  C   UNL     1       0.181   0.104   0.000  0.00  0.00    +0.265 C 
ATOM     15  O   UNL     1      -0.494   0.579   0.000  0.00  0.00    -0.271 OA
ATOM     16  N   UNL     1       0.901   0.506   0.000  0.00  0.00    -0.178 NA
ATOM     17  C   UNL     1       1.665   0.193   0.000  0.00  0.00    +0.078 A 
ATOM     18  C   UNL     1       2.235   0.789   0.000  0.00  0.00    +0.017 A 
ATOM     19  C   UNL     1       3.037   0.594   0.000  0.00  0.00    +0.002 A 
ATOM     20  C   UNL     1       3.268  -0.198   0.000  0.00  0.00    +0.006 A 
ATOM     21  C   UNL     1       2.698  -0.794   0.000  0.00  0.00    +0.006 A 
ATOM     22  C   UNL     1       1.896  -0.599   0.000  0.00  0.00    +0.069 A 
ATOM     23  C   UNL     1       1.421  -1.274   0.000  0.00  0.00    +0.251 C 
ATOM     24  O   UNL     1       1.823  -1.994   0.000  0.00  0.00    -0.270 OA
ENDROOT
BRANCH  20  25
ATOM     25  C   UNL     1       4.069  -0.394   0.000  0.00  0.00    +0.029 A 
ATOM     26  C   UNL     1       4.699   0.140   0.000  0.00  0.00    +0.007 A 
ATOM     27  C   UNL     1       5.401  -0.294   0.000  0.00  0.00    +0.007 A 
ATOM     28  C   UNL     1       5.205  -1.095   0.000  0.00  0.00    +0.035 A 
ATOM     29  S   UNL     1       4.382  -1.157   0.000  0.00  0.00    -0.086 S 
ENDBRANCH  20  25
BRANCH   9   8
ATOM      6  C   UNL     1      -2.137  -1.045   0.000  0.00  0.00    +0.242 C 
ATOM      7  O   UNL     1      -2.137  -1.870   0.000  0.00  0.00    -0.273 OA
ATOM      8  N   UNL     1      -1.422  -0.633   0.000  0.00  0.00    -0.205 NA
BRANCH   6   5
ATOM      5  C   UNL     1      -2.851  -0.633   0.000  0.00  0.00    +0.099 C 
BRANCH   5   4
ATOM      4  C   UNL     1      -3.566  -1.045   0.000  0.00  0.00    +0.124 C 
BRANCH   4   2
ATOM      1  O   UNL     1      -4.995  -1.045   0.000  0.00  0.00    -0.246 OA
ATOM      2  C   UNL     1      -4.280  -0.633   0.000  0.00  0.00    +0.365 C 
ATOM      3  O   UNL     1      -4.280   0.192   0.000  0.00  0.00    -0.246 OA
ENDBRANCH   4   2
ENDBRANCH   5   4
ENDBRANCH   6   5
ENDBRANCH   9   8
TORSDOF 5
