MODEL 1
REMARK VINA RESULT:     -12.3      0.000      0.000
REMARK  Name = 
REMARK  7 active torsions:
REMARK  status: ('A' for Active; 'I' for Inactive)
REMARK    1  A    between atoms: C_5  and  N_6
REMARK    2  A    between atoms: N_9  and  C_10
REMARK    3  A    between atoms: C_12  and  C_19
REMARK    4  A    between atoms: N_21  and  C_22
REMARK    5  A    between atoms: C_22  and  C_23
REMARK    6  A    between atoms: C_22  and  C_29
REMARK    7  A    between atoms: C_23  and  C_24
REMARK                            x       y       z     vdW  Elec       q    Type
REMARK                         _______ _______ _______ _____ _____    ______ ____
ROOT
ATOM     10  C   UNL     1      -4.691   1.567  24.666  0.00  0.00    +0.133 C 
ATOM     11  C   UNL     1      -3.934   1.783  24.422  0.00  0.00    +0.064 C 
ATOM     12  C   UNL     1      -3.636   2.530  24.611  0.00  0.00    +0.200 C 
ATOM     13  O   UNL     1      -2.995   2.222  24.194  0.00  0.00    -0.216 OA
ATOM     14  C   UNL     1      -4.097   3.060  25.044  0.00  0.00    +0.075 C 
ATOM     15  C   UNL     1      -4.855   2.844  25.288  0.00  0.00    +0.187 C 
ATOM     16  O   UNL     1      -5.315   3.374  25.721  0.00  0.00    -0.220 OA
ATOM     17  C   UNL     1      -5.152   2.098  25.099  0.00  0.00    +0.202 C 
ATOM     18  O   UNL     1      -5.910   1.882  25.343  0.00  0.00    -0.219 OA
ENDROOT
BRANCH  10   9
ATOM      6  N   UNL     1      -4.812  -0.592  24.371  0.00  0.00    -0.161 NA
ATOM      7  C   UNL     1      -4.512   0.154  24.560  0.00  0.00    +0.344 C 
ATOM      8  O   UNL     1      -3.737   0.231  24.831  0.00  0.00    -0.249 OA
ATOM      9  N   UNL     1      -4.989   0.822  24.478  0.00  0.00    -0.186 NA
BRANCH   6   5
ATOM      1  C   UNL     1      -2.905  -3.265  24.701  0.00  0.00    +0.031 C 
ATOM      2  C   UNL     1      -3.381  -2.597  24.619  0.00  0.00    -0.022 A 
ATOM      3  C   UNL     1      -3.484  -2.082  25.256  0.00  0.00    -0.003 A 
ATOM      4  C   UNL     1      -3.961  -1.414  25.172  0.00  0.00    +0.016 A 
ATOM      5  C   UNL     1      -4.335  -1.260  24.454  0.00  0.00    +0.075 A 
ATOM     32  C   UNL     1      -4.233  -1.775  23.818  0.00  0.00    +0.016 A 
ATOM     33  C   UNL     1      -3.756  -2.444  23.900  0.00  0.00    -0.003 A 
ENDBRANCH   6   5
ENDBRANCH  10   9
BRANCH  12  19
ATOM     19  C   UNL     1      -3.117   3.168  24.655  0.00  0.00    +0.269 C 
ATOM     20  O   UNL     1      -3.240   3.834  24.183  0.00  0.00    -0.271 OA
ATOM     21  N   UNL     1      -2.473   3.142  25.171  0.00  0.00    -0.195 NA
BRANCH  21  22
ATOM     22  C   UNL     1      -1.953   3.781  25.215  0.00  0.00    +0.179 C 
BRANCH  22  29
ATOM     29  C   UNL     1      -2.154   4.447  25.657  0.00  0.00    +0.281 C 
ATOM     30  N   UNL     1      -2.059   5.201  25.336  0.00  0.00    -0.086 NA
ATOM     31  O   UNL     1      -2.450   4.360  26.423  0.00  0.00    -0.270 OA
ENDBRANCH  22  29
BRANCH  22  23
ATOM     23  C   UNL     1      -1.232   3.754  24.815  0.00  0.00    +0.064 C 
BRANCH  23  24
ATOM     24  C   UNL     1      -0.637   3.244  25.071  0.00  0.00    +0.010 A 
ATOM     25  C   UNL     1      -0.419   3.110  25.856  0.00  0.00    +0.003 A 
ATOM     26  C   UNL     1       0.198   2.561  25.859  0.00  0.00    +0.007 A 
ATOM     27  C   UNL     1       0.360   2.356  25.076  0.00  0.00    +0.035 A 
ATOM     28  S   UNL     1      -0.156   2.777  24.590  0.00  0.00    -0.091 S 
ENDBRANCH  23  24
ENDBRANCH  22  23
ENDBRANCH  21  22
ENDBRANCH  12  19
TORSDOF 7
ENDMDL
MODEL 2
REMARK VINA RESULT:     -11.4      2.088      3.408
REMARK  Name = 
REMARK  7 active torsions:
REMARK  status: ('A' for Active; 'I' for Inactive)
REMARK    1  A    between atoms: C_5  and  N_6
REMARK    2  A    between atoms: N_9  and  C_10
REMARK    3  A    between atoms: C_12  and  C_19
REMARK    4  A    between atoms: N_21  and  C_22
REMARK    5  A    between atoms: C_22  and  C_23
REMARK    6  A    between atoms: C_22  and  C_29
REMARK    7  A    between atoms: C_23  and  C_24
REMARK                            x       y       z     vdW  Elec       q    Type
REMARK                         _______ _______ _______ _____ _____    ______ ____
ROOT
ATOM     10  C   UNL     1      -0.496   0.306  25.010  0.00  0.00    +0.133 C 
ATOM     11  C   UNL     1      -0.937   0.842  25.455  0.00  0.00    +0.064 C 
ATOM     12  C   UNL     1      -0.828   1.653  25.349  0.00  0.00    +0.200 C 
ATOM     13  O   UNL     1      -1.410   1.662  25.934  0.00  0.00    -0.216 OA
ATOM     14  C   UNL     1      -0.279   1.928  24.798  0.00  0.00    +0.075 C 
ATOM     15  C   UNL     1       0.162   1.391  24.353  0.00  0.00    +0.187 C 
ATOM     16  O   UNL     1       0.711   1.666  23.802  0.00  0.00    -0.220 OA
ATOM     17  C   UNL     1       0.054   0.581  24.459  0.00  0.00    +0.202 C 
ATOM     18  O   UNL     1       0.495   0.043  24.013  0.00  0.00    -0.219 OA
ENDROOT
BRANCH  10   9
ATOM      6  N   UNL     1      -1.424  -1.670  25.004  0.00  0.00    -0.161 NA
ATOM      7  C   UNL     1      -1.317  -0.858  24.899  0.00  0.00    +0.344 C 
ATOM      8  O   UNL     1      -1.924  -0.400  24.577  0.00  0.00    -0.249 OA
ATOM      9  N   UNL     1      -0.604  -0.505  25.115  0.00  0.00    -0.186 NA
BRANCH   6   5
ATOM      1  C   UNL     1      -4.278  -3.082  24.140  0.00  0.00    +0.031 C 
ATOM      2  C   UNL     1      -3.565  -2.729  24.356  0.00  0.00    -0.022 A 
ATOM      3  C   UNL     1      -3.524  -2.268  25.038  0.00  0.00    -0.003 A 
ATOM      4  C   UNL     1      -2.810  -1.915  25.254  0.00  0.00    +0.016 A 
ATOM      5  C   UNL     1      -2.138  -2.023  24.788  0.00  0.00    +0.075 A 
ATOM     32  C   UNL     1      -2.180  -2.484  24.106  0.00  0.00    +0.016 A 
ATOM     33  C   UNL     1      -2.894  -2.838  23.889  0.00  0.00    -0.003 A 
ENDBRANCH   6   5
ENDBRANCH  10   9
BRANCH  12  19
ATOM     19  C   UNL     1      -0.921   2.467  25.447  0.00  0.00    +0.269 C 
ATOM     20  O   UNL     1      -0.400   2.888  25.928  0.00  0.00    -0.271 OA
ATOM     21  N   UNL     1      -1.537   2.861  25.062  0.00  0.00    -0.195 NA
BRANCH  21  22
ATOM     22  C   UNL     1      -1.630   3.675  25.160  0.00  0.00    +0.179 C 
BRANCH  22  29
ATOM     29  C   UNL     1      -1.174   4.199  24.716  0.00  0.00    +0.281 C 
ATOM     30  N   UNL     1      -0.780   4.821  25.088  0.00  0.00    -0.086 NA
ATOM     31  O   UNL     1      -1.111   4.101  23.898  0.00  0.00    -0.270 OA
ENDBRANCH  22  29
BRANCH  22  23
ATOM     23  C   UNL     1      -2.181   3.964  25.702  0.00  0.00    +0.064 C 
BRANCH  23  24
ATOM     24  C   UNL     1      -2.987   3.919  25.535  0.00  0.00    +0.010 A 
ATOM     25  C   UNL     1      -3.329   3.951  24.784  0.00  0.00    +0.003 A 
ATOM     26  C   UNL     1      -4.147   3.886  24.874  0.00  0.00    +0.007 A 
ATOM     27  C   UNL     1      -4.310   3.813  25.680  0.00  0.00    +0.035 A 
ATOM     28  S   UNL     1      -3.593   3.834  26.088  0.00  0.00    -0.091 S 
ENDBRANCH  23  24
ENDBRANCH  22  23
ENDBRANCH  21  22
ENDBRANCH  12  19
TORSDOF 7
ENDMDL
MODEL 3
REMARK VINA RESULT:     -11.1      1.524      5.034
REMARK  Name = 
REMARK  7 active torsions:
REMARK  status: ('A' for Active; 'I' for Inactive)
REMARK    1  A    between atoms: C_5  and  N_6
REMARK    2  A    between atoms: N_9  and  C_10
REMARK    3  A    between atoms: C_12  and  C_19
REMARK    4  A    between atoms: N_21  and  C_22
REMARK    5  A    between atoms: C_22  and  C_23
REMARK    6  A    between atoms: C_22  and  C_29
REMARK    7  A    between atoms: C_23  and  C_24
REMARK                            x       y       z     vdW  Elec       q    Type
REMARK                         _______ _______ _______ _____ _____    ______ ____
ROOT
ATOM     10  C   UNL     1      -4.317   2.404  25.497  0.00  0.00    +0.133 C 
ATOM     11  C   UNL     1      -3.854   1.722  25.529  0.00  0.00    +0.064 C 
ATOM     12  C   UNL     1      -4.159   1.003  25.263  0.00  0.00    +0.200 C 
ATOM     13  O   UNL     1      -3.406   0.762  25.497  0.00  0.00    -0.216 OA
ATOM     14  C   UNL     1      -4.927   0.966  24.964  0.00  0.00    +0.075 C 
ATOM     15  C   UNL     1      -5.390   1.647  24.931  0.00  0.00    +0.187 C 
ATOM     16  O   UNL     1      -6.158   1.610  24.632  0.00  0.00    -0.220 OA
ATOM     17  C   UNL     1      -5.086   2.366  25.197  0.00  0.00    +0.202 C 
ATOM     18  O   UNL     1      -5.550   3.049  25.165  0.00  0.00    -0.219 OA
ENDROOT
BRANCH  10   9
ATOM      6  N   UNL     1      -2.993   4.122  25.736  0.00  0.00    -0.161 NA
ATOM      7  C   UNL     1      -3.296   3.402  25.469  0.00  0.00    +0.344 C 
ATOM      8  O   UNL     1      -2.880   2.962  24.909  0.00  0.00    -0.249 OA
ATOM      9  N   UNL     1      -4.014   3.123  25.763  0.00  0.00    -0.186 NA
BRANCH   6   5
ATOM      1  C   UNL     1      -0.118   5.238  24.562  0.00  0.00    +0.031 C 
ATOM      2  C   UNL     1      -0.836   4.959  24.855  0.00  0.00    -0.022 A 
ATOM      3  C   UNL     1      -1.530   5.388  24.725  0.00  0.00    -0.003 A 
ATOM      4  C   UNL     1      -2.248   5.108  25.019  0.00  0.00    +0.016 A 
ATOM      5  C   UNL     1      -2.274   4.401  25.443  0.00  0.00    +0.075 A 
ATOM     32  C   UNL     1      -1.581   3.973  25.573  0.00  0.00    +0.016 A 
ATOM     33  C   UNL     1      -0.862   4.252  25.279  0.00  0.00    -0.003 A 
ENDBRANCH   6   5
ENDBRANCH  10   9
BRANCH  12  19
ATOM     19  C   UNL     1      -4.202   0.201  25.078  0.00  0.00    +0.269 C 
ATOM     20  O   UNL     1      -4.832  -0.254  25.355  0.00  0.00    -0.271 OA
ATOM     21  N   UNL     1      -3.614  -0.148  24.615  0.00  0.00    -0.195 NA
BRANCH  21  22
ATOM     22  C   UNL     1      -3.657  -0.951  24.430  0.00  0.00    +0.179 C 
BRANCH  22  29
ATOM     29  C   UNL     1      -4.026  -1.196  23.735  0.00  0.00    +0.281 C 
ATOM     30  N   UNL     1      -4.575  -1.812  23.752  0.00  0.00    -0.086 NA
ATOM     31  O   UNL     1      -3.847  -0.824  23.019  0.00  0.00    -0.270 OA
ENDBRANCH  22  29
BRANCH  22  23
ATOM     23  C   UNL     1      -3.331  -1.510  24.942  0.00  0.00    +0.064 C 
BRANCH  23  24
ATOM     24  C   UNL     1      -2.554  -1.764  24.834  0.00  0.00    +0.010 A 
ATOM     25  C   UNL     1      -1.873  -1.334  25.018  0.00  0.00    +0.003 A 
ATOM     26  C   UNL     1      -1.218  -1.797  24.821  0.00  0.00    +0.007 A 
ATOM     27  C   UNL     1      -1.495  -2.512  24.514  0.00  0.00    +0.035 A 
ATOM     28  S   UNL     1      -2.319  -2.491  24.523  0.00  0.00    -0.091 S 
ENDBRANCH  23  24
ENDBRANCH  22  23
ENDBRANCH  21  22
ENDBRANCH  12  19
TORSDOF 7
ENDMDL
MODEL 4
REMARK VINA RESULT:     -11.1      2.357      4.687
REMARK  Name = 
REMARK  7 active torsions:
REMARK  status: ('A' for Active; 'I' for Inactive)
REMARK    1  A    between atoms: C_5  and  N_6
REMARK    2  A    between atoms: N_9  and  C_10
REMARK    3  A    between atoms: C_12  and  C_19
REMARK    4  A    between atoms: N_21  and  C_22
REMARK    5  A    between atoms: C_22  and  C_23
REMARK    6  A    between atoms: C_22  and  C_29
REMARK    7  A    between atoms: C_23  and  C_24
REMARK                            x       y       z     vdW  Elec       q    Type
REMARK                         _______ _______ _______ _____ _____    ______ ____
ROOT
ATOM     10  C   UNL     1      -1.491   2.895  24.795  0.00  0.00    +0.133 C 
ATOM     11  C   UNL     1      -1.379   2.270  24.269  0.00  0.00    +0.064 C 
ATOM     12  C   UNL     1      -0.700   1.803  24.321  0.00  0.00    +0.200 C 
ATOM     13  O   UNL     1      -1.076   1.438  23.684  0.00  0.00    -0.216 OA
ATOM     14  C   UNL     1      -0.135   1.962  24.900  0.00  0.00    +0.075 C 
ATOM     15  C   UNL     1      -0.247   2.587  25.426  0.00  0.00    +0.187 C 
ATOM     16  O   UNL     1       0.319   2.746  26.005  0.00  0.00    -0.220 OA
ATOM     17  C   UNL     1      -0.925   3.053  25.374  0.00  0.00    +0.202 C 
ATOM     18  O   UNL     1      -1.037   3.680  25.900  0.00  0.00    -0.219 OA
ENDROOT
BRANCH  10   9
ATOM      6  N   UNL     1      -3.586   3.506  24.859  0.00  0.00    -0.161 NA
ATOM      7  C   UNL     1      -2.908   3.037  24.911  0.00  0.00    +0.344 C 
ATOM      8  O   UNL     1      -2.970   2.245  25.132  0.00  0.00    -0.249 OA
ATOM      9  N   UNL     1      -2.169   3.362  24.743  0.00  0.00    -0.186 NA
BRANCH   6   5
ATOM      1  C   UNL     1      -6.543   2.206  25.533  0.00  0.00    +0.031 C 
ATOM      2  C   UNL     1      -5.804   2.531  25.365  0.00  0.00    -0.022 A 
ATOM      3  C   UNL     1      -5.438   3.029  25.912  0.00  0.00    -0.003 A 
ATOM      4  C   UNL     1      -4.699   3.354  25.742  0.00  0.00    +0.016 A 
ATOM      5  C   UNL     1      -4.325   3.181  25.028  0.00  0.00    +0.075 A 
ATOM     32  C   UNL     1      -4.691   2.683  24.482  0.00  0.00    +0.016 A 
ATOM     33  C   UNL     1      -5.431   2.358  24.650  0.00  0.00    -0.003 A 
ENDBRANCH   6   5
ENDBRANCH  10   9
BRANCH  12  19
ATOM     19  C   UNL     1      -0.153   1.210  24.153  0.00  0.00    +0.269 C 
ATOM     20  O   UNL     1       0.655   1.374  24.182  0.00  0.00    -0.271 OA
ATOM     21  N   UNL     1      -0.414   0.452  23.954  0.00  0.00    -0.195 NA
BRANCH  21  22
ATOM     22  C   UNL     1       0.135  -0.141  23.786  0.00  0.00    +0.179 C 
BRANCH  22  29
ATOM     29  C   UNL     1       0.550  -0.129  23.074  0.00  0.00    +0.281 C 
ATOM     30  N   UNL     1       1.375  -0.158  23.076  0.00  0.00    -0.086 NA
ATOM     31  O   UNL     1       0.140  -0.088  22.357  0.00  0.00    -0.270 OA
ENDBRANCH  22  29
BRANCH  22  23
ATOM     23  C   UNL     1       0.267  -0.746  24.330  0.00  0.00    +0.064 C 
BRANCH  23  24
ATOM     24  C   UNL     1      -0.340  -1.271  24.519  0.00  0.00    +0.010 A 
ATOM     25  C   UNL     1      -0.811  -1.682  23.979  0.00  0.00    +0.003 A 
ATOM     26  C   UNL     1      -1.346  -2.143  24.407  0.00  0.00    +0.007 A 
ATOM     27  C   UNL     1      -1.205  -2.017  25.211  0.00  0.00    +0.035 A 
ATOM     28  S   UNL     1      -0.584  -1.478  25.279  0.00  0.00    -0.091 S 
ENDBRANCH  23  24
ENDBRANCH  22  23
ENDBRANCH  21  22
ENDBRANCH  12  19
TORSDOF 7
ENDMDL
MODEL 5
REMARK VINA RESULT:     -11.0      2.523      6.021
REMARK  Name = 
REMARK  7 active torsions:
REMARK  status: ('A' for Active; 'I' for Inactive)
REMARK    1  A    between atoms: C_5  and  N_6
REMARK    2  A    between atoms: N_9  and  C_10
REMARK    3  A    between atoms: C_12  and  C_19
REMARK    4  A    between atoms: N_21  and  C_22
REMARK    5  A    between atoms: C_22  and  C_23
REMARK    6  A    between atoms: C_22  and  C_29
REMARK    7  A    between atoms: C_23  and  C_24
REMARK                            x       y       z     vdW  Elec       q    Type
REMARK                         _______ _______ _______ _____ _____    ______ ____
ROOT
ATOM     10  C   UNL     1      -0.267   0.972  24.976  0.00  0.00    +0.133 C 
ATOM     11  C   UNL     1      -0.813   0.586  25.459  0.00  0.00    +0.064 C 
ATOM     12  C   UNL     1      -1.089  -0.164  25.252  0.00  0.00    +0.200 C 
ATOM     13  O   UNL     1      -1.504  -0.047  25.955  0.00  0.00    -0.216 OA
ATOM     14  C   UNL     1      -0.819  -0.526  24.561  0.00  0.00    +0.075 C 
ATOM     15  C   UNL     1      -0.274  -0.140  24.079  0.00  0.00    +0.187 C 
ATOM     16  O   UNL     1      -0.004  -0.502  23.388  0.00  0.00    -0.220 OA
ATOM     17  C   UNL     1       0.002   0.609  24.286  0.00  0.00    +0.202 C 
ATOM     18  O   UNL     1       0.549   0.997  23.802  0.00  0.00    -0.219 OA
ENDROOT
BRANCH  10   9
ATOM      6  N   UNL     1      -0.211   3.125  25.334  0.00  0.00    -0.161 NA
ATOM      7  C   UNL     1      -0.489   2.376  25.127  0.00  0.00    +0.344 C 
ATOM      8  O   UNL     1      -1.265   2.282  24.864  0.00  0.00    -0.249 OA
ATOM      9  N   UNL     1       0.010   1.721  25.183  0.00  0.00    -0.186 NA
BRANCH   6   5
ATOM      1  C   UNL     1      -2.207   5.743  25.110  0.00  0.00    +0.031 C 
ATOM      2  C   UNL     1      -1.708   5.089  25.166  0.00  0.00    -0.022 A 
ATOM      3  C   UNL     1      -1.009   5.065  24.728  0.00  0.00    -0.003 A 
ATOM      4  C   UNL     1      -0.511   4.409  24.784  0.00  0.00    +0.016 A 
ATOM      5  C   UNL     1      -0.710   3.779  25.278  0.00  0.00    +0.075 A 
ATOM     32  C   UNL     1      -1.409   3.804  25.716  0.00  0.00    +0.016 A 
ATOM     33  C   UNL     1      -1.908   4.459  25.660  0.00  0.00    -0.003 A 
ENDBRANCH   6   5
ENDBRANCH  10   9
BRANCH  12  19
ATOM     19  C   UNL     1      -1.509  -0.872  25.288  0.00  0.00    +0.269 C 
ATOM     20  O   UNL     1      -1.105  -1.589  25.347  0.00  0.00    -0.271 OA
ATOM     21  N   UNL     1      -2.335  -0.864  25.267  0.00  0.00    -0.195 NA
BRANCH  21  22
ATOM     22  C   UNL     1      -2.755  -1.573  25.304  0.00  0.00    +0.179 C 
BRANCH  22  29
ATOM     29  C   UNL     1      -3.089  -1.818  26.016  0.00  0.00    +0.281 C 
ATOM     30  N   UNL     1      -2.974  -2.591  26.282  0.00  0.00    -0.086 NA
ATOM     31  O   UNL     1      -3.539  -1.291  26.464  0.00  0.00    -0.270 OA
ENDBRANCH  22  29
BRANCH  22  23
ATOM     23  C   UNL     1      -2.840  -2.037  24.627  0.00  0.00    +0.064 C 
BRANCH  23  24
ATOM     24  C   UNL     1      -3.540  -2.005  24.191  0.00  0.00    +0.010 A 
ATOM     25  C   UNL     1      -3.934  -1.319  23.956  0.00  0.00    +0.003 A 
ATOM     26  C   UNL     1      -4.607  -1.544  23.533  0.00  0.00    +0.007 A 
ATOM     27  C   UNL     1      -4.628  -2.368  23.508  0.00  0.00    +0.035 A 
ATOM     28  S   UNL     1      -3.969  -2.653  23.914  0.00  0.00    -0.091 S 
ENDBRANCH  23  24
ENDBRANCH  22  23
ENDBRANCH  21  22
ENDBRANCH  12  19
TORSDOF 7
ENDMDL
MODEL 6
REMARK VINA RESULT:     -10.8      3.327      5.472
REMARK  Name = 
REMARK  7 active torsions:
REMARK  status: ('A' for Active; 'I' for Inactive)
REMARK    1  A    between atoms: C_5  and  N_6
REMARK    2  A    between atoms: N_9  and  C_10
REMARK    3  A    between atoms: C_12  and  C_19
REMARK    4  A    between atoms: N_21  and  C_22
REMARK    5  A    between atoms: C_22  and  C_23
REMARK    6  A    between atoms: C_22  and  C_29
REMARK    7  A    between atoms: C_23  and  C_24
REMARK                            x       y       z     vdW  Elec       q    Type
REMARK                         _______ _______ _______ _____ _____    ______ ____
ROOT
ATOM     10  C   UNL     1       0.291   0.343  23.519  0.00  0.00    +0.133 C 
ATOM     11  C   UNL     1       0.172   1.128  23.741  0.00  0.00    +0.064 C 
ATOM     12  C   UNL     1      -0.404   1.315  24.302  0.00  0.00    +0.200 C 
ATOM     13  O   UNL     1      -0.112   2.069  24.139  0.00  0.00    -0.216 OA
ATOM     14  C   UNL     1      -0.861   0.717  24.640  0.00  0.00    +0.075 C 
ATOM     15  C   UNL     1      -0.742  -0.068  24.418  0.00  0.00    +0.187 C 
ATOM     16  O   UNL     1      -1.198  -0.666  24.756  0.00  0.00    -0.220 OA
ATOM     17  C   UNL     1      -0.167  -0.255  23.858  0.00  0.00    +0.202 C 
ATOM     18  O   UNL     1      -0.047  -1.042  23.635  0.00  0.00    -0.219 OA
ENDROOT
BRANCH  10   9
ATOM      6  N   UNL     1       2.240   0.052  22.581  0.00  0.00    -0.161 NA
ATOM      7  C   UNL     1       1.665   0.241  23.143  0.00  0.00    +0.344 C 
ATOM      8  O   UNL     1       1.890   0.516  23.887  0.00  0.00    -0.249 OA
ATOM      9  N   UNL     1       0.866   0.155  22.959  0.00  0.00    -0.186 NA
BRANCH   6   5
ATOM      1  C   UNL     1       5.438   0.398  23.316  0.00  0.00    +0.031 C 
ATOM      2  C   UNL     1       4.639   0.312  23.132  0.00  0.00    -0.022 A 
ATOM      3  C   UNL     1       4.251  -0.397  23.302  0.00  0.00    -0.003 A 
ATOM      4  C   UNL     1       3.452  -0.482  23.118  0.00  0.00    +0.016 A 
ATOM      5  C   UNL     1       3.039   0.139  22.765  0.00  0.00    +0.075 A 
ATOM     32  C   UNL     1       3.428   0.847  22.595  0.00  0.00    +0.016 A 
ATOM     33  C   UNL     1       4.228   0.933  22.779  0.00  0.00    -0.003 A 
ENDBRANCH   6   5
ENDBRANCH  10   9
BRANCH  12  19
ATOM     19  C   UNL     1      -0.878   1.764  24.806  0.00  0.00    +0.269 C 
ATOM     20  O   UNL     1      -0.876   1.614  25.617  0.00  0.00    -0.271 OA
ATOM     21  N   UNL     1      -1.354   2.365  24.498  0.00  0.00    -0.195 NA
BRANCH  21  22
ATOM     22  C   UNL     1      -1.828   2.814  25.003  0.00  0.00    +0.179 C 
BRANCH  22  29
ATOM     29  C   UNL     1      -1.537   3.511  25.331  0.00  0.00    +0.281 C 
ATOM     30  N   UNL     1      -1.567   3.628  26.147  0.00  0.00    -0.086 NA
ATOM     31  O   UNL     1      -1.214   4.094  24.843  0.00  0.00    -0.270 OA
ENDBRANCH  22  29
BRANCH  22  23
ATOM     23  C   UNL     1      -2.595   2.564  25.178  0.00  0.00    +0.064 C 
BRANCH  23  24
ATOM     24  C   UNL     1      -3.228   2.822  24.718  0.00  0.00    +0.010 A 
ATOM     25  C   UNL     1      -3.327   2.685  23.910  0.00  0.00    +0.003 A 
ATOM     26  C   UNL     1      -4.035   3.041  23.676  0.00  0.00    +0.007 A 
ATOM     27  C   UNL     1      -4.372   3.398  24.339  0.00  0.00    +0.035 A 
ATOM     28  S   UNL     1      -3.873   3.262  24.983  0.00  0.00    -0.091 S 
ENDBRANCH  23  24
ENDBRANCH  22  23
ENDBRANCH  21  22
ENDBRANCH  12  19
TORSDOF 7
ENDMDL
