MODEL 1
REMARK VINA RESULT:     -13.4      0.000      0.000
REMARK  Name = 
REMARK  6 active torsions:
REMARK  status: ('A' for Active; 'I' for Inactive)
REMARK    1  A    between atoms: O_2  and  C_3
REMARK    2  A    between atoms: C_6  and  S_9
REMARK    3  A    between atoms: S_9  and  N_12
REMARK    4  A    between atoms: N_12  and  C_13
REMARK    5  A    between atoms: N_21  and  C_22
REMARK    6  A    between atoms: C_22  and  C_23
REMARK                            x       y       z     vdW  Elec       q    Type
REMARK                         _______ _______ _______ _____ _____    ______ ____
ROOT
ATOM     13  C   UNL     1      -3.737   1.424  24.395  0.00  0.00    +0.147 A 
ATOM     14  C   UNL     1      -4.552   1.303  24.432  0.00  0.00    +0.024 A 
ATOM     15  C   UNL     1      -5.036   1.861  24.798  0.00  0.00    +0.014 A 
ATOM     16  C   UNL     1      -4.705   2.541  25.128  0.00  0.00    +0.041 A 
ATOM     17  C   UNL     1      -4.945   3.306  25.577  0.00  0.00    +0.054 C 
ATOM     18  C   UNL     1      -5.506   3.642  25.832  0.00  0.00    +0.011 C 
ATOM     19  C   UNL     1      -4.700   3.758  25.794  0.00  0.00    +0.039 C 
ATOM     20  C   UNL     1      -3.766   4.074  25.849  0.00  0.00    +0.074 C 
ATOM     21  N   UNL     1      -3.382   3.445  25.456  0.00  0.00    -0.269 NA
ATOM     33  C   UNL     1      -4.046   3.625  25.638  0.00  0.00    +0.078 C 
ATOM     34  C   UNL     1      -4.440   2.962  25.325  0.00  0.00    +0.110 C 
ATOM     35  N   UNL     1      -3.889   2.662  25.092  0.00  0.00    -0.298 N 
ATOM     36  C   UNL     1      -3.405   2.104  24.725  0.00  0.00    +0.277 A 
ATOM     37  O   UNL     1      -2.590   2.225  24.688  0.00  0.00    -0.266 OA
ENDROOT
BRANCH  13  12
ATOM     12  N   UNL     1      -3.253   0.866  24.028  0.00  0.00    -0.092 NA
BRANCH  12   9
ATOM      9  S   UNL     1      -3.393   0.061  24.144  0.00  0.00    +0.093 S 
ATOM     10  O   UNL     1      -3.905   0.056  23.497  0.00  0.00    -0.148 OA
ATOM     11  O   UNL     1      -2.881   0.065  24.791  0.00  0.00    -0.148 OA
BRANCH   9   6
ATOM      3  C   UNL     1      -3.812  -2.354  24.492  0.00  0.00    +0.139 A 
ATOM      4  C   UNL     1      -3.377  -1.927  25.047  0.00  0.00    +0.038 A 
ATOM      5  C   UNL     1      -3.238  -1.122  24.931  0.00  0.00    +0.023 A 
ATOM      6  C   UNL     1      -3.533  -0.744  24.260  0.00  0.00    +0.127 A 
ATOM      7  C   UNL     1      -3.967  -1.172  23.704  0.00  0.00    +0.023 A 
ATOM      8  C   UNL     1      -4.107  -1.977  23.820  0.00  0.00    +0.038 A 
BRANCH   3   2
ATOM      1  C   UNL     1      -3.329  -3.697  24.555  0.00  0.00    +0.252 C 
ATOM      2  O   UNL     1      -3.951  -3.159  24.607  0.00  0.00    -0.471 OA
ENDBRANCH   3   2
ENDBRANCH   9   6
ENDBRANCH  12   9
ENDBRANCH  13  12
BRANCH  21  22
ATOM     22  C   UNL     1      -2.766   3.000  25.134  0.00  0.00    +0.101 C 
BRANCH  22  23
ATOM     23  C   UNL     1      -2.009   3.322  25.080  0.00  0.00    +0.012 A 
ATOM     24  C   UNL     1      -1.782   3.947  24.589  0.00  0.00    +0.073 A 
ATOM     25  N   UNL     1      -0.979   4.088  24.712  0.00  0.00    -0.324 N 
ATOM     26  C   UNL     1      -0.525   4.665  24.335  0.00  0.00    +0.130 C 
ATOM     27  C   UNL     1      -0.709   3.553  25.278  0.00  0.00    +0.060 A 
ATOM     28  C   UNL     1      -1.346   3.079  25.506  0.00  0.00    +0.015 A 
ATOM     29  C   UNL     1      -1.238   2.488  26.071  0.00  0.00    +0.001 A 
ATOM     30  C   UNL     1      -0.495   2.370  26.408  0.00  0.00    +0.000 A 
ATOM     31  C   UNL     1       0.141   2.843  26.181  0.00  0.00    +0.001 A 
ATOM     32  C   UNL     1       0.034   3.434  25.616  0.00  0.00    +0.017 A 
ENDBRANCH  22  23
ENDBRANCH  21  22
TORSDOF 6
ENDMDL
MODEL 2
REMARK VINA RESULT:     -12.6      1.357      4.445
REMARK  Name = 
REMARK  6 active torsions:
REMARK  status: ('A' for Active; 'I' for Inactive)
REMARK    1  A    between atoms: O_2  and  C_3
REMARK    2  A    between atoms: C_6  and  S_9
REMARK    3  A    between atoms: S_9  and  N_12
REMARK    4  A    between atoms: N_12  and  C_13
REMARK    5  A    between atoms: N_21  and  C_22
REMARK    6  A    between atoms: C_22  and  C_23
REMARK                            x       y       z     vdW  Elec       q    Type
REMARK                         _______ _______ _______ _____ _____    ______ ____
ROOT
ATOM     13  C   UNL     1      -3.098   2.092  24.288  0.00  0.00    +0.147 A 
ATOM     14  C   UNL     1      -3.362   2.869  24.372  0.00  0.00    +0.024 A 
ATOM     15  C   UNL     1      -4.134   3.018  24.622  0.00  0.00    +0.014 A 
ATOM     16  C   UNL     1      -4.642   2.389  24.786  0.00  0.00    +0.041 A 
ATOM     17  C   UNL     1      -5.502   2.221  25.064  0.00  0.00    +0.054 C 
ATOM     18  C   UNL     1      -6.093   2.548  25.255  0.00  0.00    +0.011 C 
ATOM     19  C   UNL     1      -5.829   1.782  25.170  0.00  0.00    +0.039 C 
ATOM     20  C   UNL     1      -5.700   0.803  25.129  0.00  0.00    +0.074 C 
ATOM     21  N   UNL     1      -4.905   0.778  24.872  0.00  0.00    -0.269 NA
ATOM     33  C   UNL     1      -5.392   1.273  25.029  0.00  0.00    +0.078 C 
ATOM     34  C   UNL     1      -4.929   1.948  24.879  0.00  0.00    +0.110 C 
ATOM     35  N   UNL     1      -4.378   1.612  24.702  0.00  0.00    -0.298 N 
ATOM     36  C   UNL     1      -3.606   1.463  24.452  0.00  0.00    +0.277 A 
ATOM     37  O   UNL     1      -3.342   0.686  24.367  0.00  0.00    -0.266 OA
ENDROOT
BRANCH  13  12
ATOM     12  N   UNL     1      -2.326   1.944  24.038  0.00  0.00    -0.092 NA
BRANCH  12   9
ATOM      9  S   UNL     1      -1.692   2.118  24.536  0.00  0.00    +0.093 S 
ATOM     10  O   UNL     1      -1.486   1.319  24.553  0.00  0.00    -0.148 OA
ATOM     11  O   UNL     1      -1.898   2.917  24.519  0.00  0.00    -0.148 OA
BRANCH   9   6
ATOM      3  C   UNL     1       0.212   2.641  26.030  0.00  0.00    +0.139 A 
ATOM      4  C   UNL     1       0.007   3.163  25.425  0.00  0.00    +0.038 A 
ATOM      5  C   UNL     1      -0.627   2.988  24.927  0.00  0.00    +0.023 A 
ATOM      6  C   UNL     1      -1.057   2.292  25.034  0.00  0.00    +0.127 A 
ATOM      7  C   UNL     1      -0.853   1.771  25.640  0.00  0.00    +0.023 A 
ATOM      8  C   UNL     1      -0.218   1.946  26.138  0.00  0.00    +0.038 A 
BRANCH   3   2
ATOM      1  C   UNL     1       0.799   2.641  27.333  0.00  0.00    +0.252 C 
ATOM      2  O   UNL     1       0.846   2.816  26.528  0.00  0.00    -0.471 OA
ENDBRANCH   3   2
ENDBRANCH   9   6
ENDBRANCH  12   9
ENDBRANCH  13  12
BRANCH  21  22
ATOM     22  C   UNL     1      -4.181   0.457  24.639  0.00  0.00    +0.101 C 
BRANCH  22  23
ATOM     23  C   UNL     1      -4.115  -0.354  24.503  0.00  0.00    +0.012 A 
ATOM     24  C   UNL     1      -4.350  -0.753  23.819  0.00  0.00    +0.073 A 
ATOM     25  N   UNL     1      -4.182  -1.554  23.921  0.00  0.00    -0.324 N 
ATOM     26  C   UNL     1      -4.328  -2.153  23.372  0.00  0.00    +0.130 C 
ATOM     27  C   UNL     1      -3.844  -1.651  24.666  0.00  0.00    +0.060 A 
ATOM     28  C   UNL     1      -3.802  -0.909  25.027  0.00  0.00    +0.015 A 
ATOM     29  C   UNL     1      -3.484  -0.837  25.785  0.00  0.00    +0.001 A 
ATOM     30  C   UNL     1      -3.208  -1.504  26.182  0.00  0.00    +0.000 A 
ATOM     31  C   UNL     1      -3.250  -2.246  25.823  0.00  0.00    +0.001 A 
ATOM     32  C   UNL     1      -3.567  -2.319  25.065  0.00  0.00    +0.017 A 
ENDBRANCH  22  23
ENDBRANCH  21  22
TORSDOF 6
ENDMDL
MODEL 3
REMARK VINA RESULT:     -12.2      2.407      4.498
REMARK  Name = 
REMARK  6 active torsions:
REMARK  status: ('A' for Active; 'I' for Inactive)
REMARK    1  A    between atoms: O_2  and  C_3
REMARK    2  A    between atoms: C_6  and  S_9
REMARK    3  A    between atoms: S_9  and  N_12
REMARK    4  A    between atoms: N_12  and  C_13
REMARK    5  A    between atoms: N_21  and  C_22
REMARK    6  A    between atoms: C_22  and  C_23
REMARK                            x       y       z     vdW  Elec       q    Type
REMARK                         _______ _______ _______ _____ _____    ______ ____
ROOT
ATOM     13  C   UNL     1      -1.686  -0.230  24.600  0.00  0.00    +0.147 A 
ATOM     14  C   UNL     1      -1.507  -1.033  24.543  0.00  0.00    +0.024 A 
ATOM     15  C   UNL     1      -2.110  -1.583  24.420  0.00  0.00    +0.014 A 
ATOM     16  C   UNL     1      -2.892  -1.329  24.355  0.00  0.00    +0.041 A 
ATOM     17  C   UNL     1      -3.741  -1.657  24.226  0.00  0.00    +0.054 C 
ATOM     18  C   UNL     1      -4.090  -2.259  24.128  0.00  0.00    +0.011 C 
ATOM     19  C   UNL     1      -4.263  -1.465  24.184  0.00  0.00    +0.039 C 
ATOM     20  C   UNL     1      -4.667  -0.564  24.225  0.00  0.00    +0.074 C 
ATOM     21  N   UNL     1      -3.979  -0.107  24.348  0.00  0.00    -0.269 NA
ATOM     33  C   UNL     1      -4.147  -0.794  24.262  0.00  0.00    +0.078 C 
ATOM     34  C   UNL     1      -3.380  -1.112  24.320  0.00  0.00    +0.110 C 
ATOM     35  N   UNL     1      -3.071  -0.525  24.412  0.00  0.00    -0.298 N 
ATOM     36  C   UNL     1      -2.468   0.024  24.534  0.00  0.00    +0.277 A 
ATOM     37  O   UNL     1      -2.647   0.828  24.591  0.00  0.00    -0.266 OA
ENDROOT
BRANCH  13  12
ATOM     12  N   UNL     1      -1.083   0.319  24.722  0.00  0.00    -0.092 NA
BRANCH  12   9
ATOM      9  S   UNL     1      -0.400   0.290  24.260  0.00  0.00    +0.093 S 
ATOM     10  O   UNL     1      -0.719   0.859  23.754  0.00  0.00    -0.148 OA
ATOM     11  O   UNL     1      -0.082  -0.279  24.765  0.00  0.00    -0.148 OA
BRANCH   9   6
ATOM      3  C   UNL     1       1.648   0.204  22.872  0.00  0.00    +0.139 A 
ATOM      4  C   UNL     1       1.078  -0.387  22.803  0.00  0.00    +0.038 A 
ATOM      5  C   UNL     1       0.395  -0.359  23.265  0.00  0.00    +0.023 A 
ATOM      6  C   UNL     1       0.283   0.262  23.797  0.00  0.00    +0.127 A 
ATOM      7  C   UNL     1       0.853   0.853  23.867  0.00  0.00    +0.023 A 
ATOM      8  C   UNL     1       1.536   0.825  23.404  0.00  0.00    +0.038 A 
BRANCH   3   2
ATOM      1  C   UNL     1       3.042   0.469  22.706  0.00  0.00    +0.252 C 
ATOM      2  O   UNL     1       2.331   0.176  22.410  0.00  0.00    -0.471 OA
ENDBRANCH   3   2
ENDBRANCH   9   6
ENDBRANCH  12   9
ENDBRANCH  13  12
BRANCH  21  22
ATOM     22  C   UNL     1      -3.510   0.562  24.466  0.00  0.00    +0.101 C 
BRANCH  22  23
ATOM     23  C   UNL     1      -3.863   1.290  24.627  0.00  0.00    +0.012 A 
ATOM     24  C   UNL     1      -4.265   1.492  25.320  0.00  0.00    +0.073 A 
ATOM     25  N   UNL     1      -4.527   2.271  25.244  0.00  0.00    -0.324 N 
ATOM     26  C   UNL     1      -4.954   2.695  25.808  0.00  0.00    +0.130 C 
ATOM     27  C   UNL     1      -4.288   2.549  24.506  0.00  0.00    +0.060 A 
ATOM     28  C   UNL     1      -3.877   1.944  24.124  0.00  0.00    +0.015 A 
ATOM     29  C   UNL     1      -3.570   2.066  23.368  0.00  0.00    +0.001 A 
ATOM     30  C   UNL     1      -3.673   2.794  22.994  0.00  0.00    +0.000 A 
ATOM     31  C   UNL     1      -4.083   3.400  23.375  0.00  0.00    +0.001 A 
ATOM     32  C   UNL     1      -4.390   3.277  24.131  0.00  0.00    +0.017 A 
ENDBRANCH  22  23
ENDBRANCH  21  22
TORSDOF 6
ENDMDL
MODEL 4
REMARK VINA RESULT:     -11.8      1.511      3.143
REMARK  Name = 
REMARK  6 active torsions:
REMARK  status: ('A' for Active; 'I' for Inactive)
REMARK    1  A    between atoms: O_2  and  C_3
REMARK    2  A    between atoms: C_6  and  S_9
REMARK    3  A    between atoms: S_9  and  N_12
REMARK    4  A    between atoms: N_12  and  C_13
REMARK    5  A    between atoms: N_21  and  C_22
REMARK    6  A    between atoms: C_22  and  C_23
REMARK                            x       y       z     vdW  Elec       q    Type
REMARK                         _______ _______ _______ _____ _____    ______ ____
ROOT
ATOM     13  C   UNL     1      -1.747   0.302  25.275  0.00  0.00    +0.147 A 
ATOM     14  C   UNL     1      -1.108  -0.191  25.100  0.00  0.00    +0.024 A 
ATOM     15  C   UNL     1      -0.422   0.125  24.770  0.00  0.00    +0.014 A 
ATOM     16  C   UNL     1      -0.373   0.934  24.615  0.00  0.00    +0.041 A 
ATOM     17  C   UNL     1       0.206   1.563  24.276  0.00  0.00    +0.054 C 
ATOM     18  C   UNL     1       0.850   1.628  24.005  0.00  0.00    +0.011 C 
ATOM     19  C   UNL     1       0.218   2.112  24.180  0.00  0.00    +0.039 C 
ATOM     20  C   UNL     1      -0.428   2.847  24.318  0.00  0.00    +0.074 C 
ATOM     21  N   UNL     1      -1.063   2.416  24.646  0.00  0.00    -0.269 NA
ATOM     33  C   UNL     1      -0.407   2.284  24.403  0.00  0.00    +0.078 C 
ATOM     34  C   UNL     1      -0.394   1.462  24.535  0.00  0.00    +0.110 C 
ATOM     35  N   UNL     1      -1.011   1.427  24.791  0.00  0.00    -0.298 N 
ATOM     36  C   UNL     1      -1.698   1.111  25.121  0.00  0.00    +0.277 A 
ATOM     37  O   UNL     1      -2.336   1.603  25.296  0.00  0.00    -0.266 OA
ENDROOT
BRANCH  13  12
ATOM     12  N   UNL     1      -2.433  -0.015  25.605  0.00  0.00    -0.092 NA
BRANCH  12   9
ATOM      9  S   UNL     1      -2.777  -0.687  25.273  0.00  0.00    +0.093 S 
ATOM     10  O   UNL     1      -3.246  -0.208  24.791  0.00  0.00    -0.148 OA
ATOM     11  O   UNL     1      -2.309  -1.166  25.755  0.00  0.00    -0.148 OA
BRANCH   9   6
ATOM      3  C   UNL     1      -3.812  -2.703  24.276  0.00  0.00    +0.139 A 
ATOM      4  C   UNL     1      -3.294  -2.778  24.914  0.00  0.00    +0.038 A 
ATOM      5  C   UNL     1      -2.950  -2.105  25.246  0.00  0.00    +0.023 A 
ATOM      6  C   UNL     1      -3.122  -1.359  24.941  0.00  0.00    +0.127 A 
ATOM      7  C   UNL     1      -3.639  -1.285  24.302  0.00  0.00    +0.023 A 
ATOM      8  C   UNL     1      -3.984  -1.957  23.970  0.00  0.00    +0.038 A 
BRANCH   3   2
ATOM      1  C   UNL     1      -4.710  -3.298  23.338  0.00  0.00    +0.252 C 
ATOM      2  O   UNL     1      -4.156  -3.375  23.944  0.00  0.00    -0.471 OA
ENDBRANCH   3   2
ENDBRANCH   9   6
ENDBRANCH  12   9
ENDBRANCH  13  12
BRANCH  21  22
ATOM     22  C   UNL     1      -1.808   2.270  24.971  0.00  0.00    +0.101 C 
BRANCH  22  23
ATOM     23  C   UNL     1      -2.299   2.900  25.176  0.00  0.00    +0.012 A 
ATOM     24  C   UNL     1      -2.224   3.377  25.846  0.00  0.00    +0.073 A 
ATOM     25  N   UNL     1      -2.830   3.936  25.831  0.00  0.00    -0.324 N 
ATOM     26  C   UNL     1      -2.963   4.522  26.396  0.00  0.00    +0.130 C 
ATOM     27  C   UNL     1      -3.280   3.805  25.152  0.00  0.00    +0.060 A 
ATOM     28  C   UNL     1      -2.952   3.166  24.747  0.00  0.00    +0.015 A 
ATOM     29  C   UNL     1      -3.290   2.908  24.040  0.00  0.00    +0.001 A 
ATOM     30  C   UNL     1      -3.956   3.289  23.738  0.00  0.00    +0.000 A 
ATOM     31  C   UNL     1      -4.284   3.929  24.142  0.00  0.00    +0.001 A 
ATOM     32  C   UNL     1      -3.946   4.187  24.849  0.00  0.00    +0.017 A 
ENDBRANCH  22  23
ENDBRANCH  21  22
TORSDOF 6
ENDMDL
MODEL 5
REMARK VINA RESULT:     -11.7      1.737      4.166
REMARK  Name = 
REMARK  6 active torsions:
REMARK  status: ('A' for Active; 'I' for Inactive)
REMARK    1  A    between atoms: O_2  and  C_3
REMARK    2  A    between atoms: C_6  and  S_9
REMARK    3  A    between atoms: S_9  and  N_12
REMARK    4  A    between atoms: N_12  and  C_13
REMARK    5  A    between atoms: N_21  and  C_22
REMARK    6  A    between atoms: C_22  and  C_23
REMARK                            x       y       z     vdW  Elec       q    Type
REMARK                         _______ _______ _______ _____ _____    ______ ____
ROOT
ATOM     13  C   UNL     1      -3.664   0.376  24.124  0.00  0.00    +0.147 A 
ATOM     14  C   UNL     1      -4.292  -0.144  24.248  0.00  0.00    +0.024 A 
ATOM     15  C   UNL     1      -4.151  -0.895  24.560  0.00  0.00    +0.014 A 
ATOM     16  C   UNL     1      -3.382  -1.125  24.747  0.00  0.00    +0.041 A 
ATOM     17  C   UNL     1      -2.913  -1.840  25.085  0.00  0.00    +0.054 C 
ATOM     18  C   UNL     1      -3.004  -2.492  25.329  0.00  0.00    +0.011 C 
ATOM     19  C   UNL     1      -2.386  -1.976  25.205  0.00  0.00    +0.039 C 
ATOM     20  C   UNL     1      -1.521  -1.504  25.129  0.00  0.00    +0.074 C 
ATOM     21  N   UNL     1      -1.785  -0.778  24.812  0.00  0.00    -0.269 NA
ATOM     33  C   UNL     1      -2.070  -1.397  25.018  0.00  0.00    +0.078 C 
ATOM     34  C   UNL     1      -2.867  -1.224  24.850  0.00  0.00    +0.110 C 
ATOM     35  N   UNL     1      -2.753  -0.605  24.622  0.00  0.00    -0.298 N 
ATOM     36  C   UNL     1      -2.894   0.146  24.311  0.00  0.00    +0.277 A 
ATOM     37  O   UNL     1      -2.266   0.666  24.187  0.00  0.00    -0.266 OA
ENDROOT
BRANCH  13  12
ATOM     12  N   UNL     1      -3.806   1.126  23.813  0.00  0.00    -0.092 NA
BRANCH  12   9
ATOM      9  S   UNL     1      -4.229   1.682  24.252  0.00  0.00    +0.093 S 
ATOM     10  O   UNL     1      -4.862   1.156  24.307  0.00  0.00    -0.148 OA
ATOM     11  O   UNL     1      -3.595   2.208  24.197  0.00  0.00    -0.148 OA
BRANCH   9   6
ATOM      3  C   UNL     1      -5.498   3.348  25.572  0.00  0.00    +0.139 A 
ATOM      4  C   UNL     1      -4.698   3.469  25.415  0.00  0.00    +0.038 A 
ATOM      5  C   UNL     1      -4.274   2.914  24.975  0.00  0.00    +0.023 A 
ATOM      6  C   UNL     1      -4.652   2.237  24.692  0.00  0.00    +0.127 A 
ATOM      7  C   UNL     1      -5.452   2.116  24.849  0.00  0.00    +0.023 A 
ATOM      8  C   UNL     1      -5.876   2.671  25.289  0.00  0.00    +0.038 A 
BRANCH   3   2
ATOM      1  C   UNL     1      -6.103   4.637  25.683  0.00  0.00    +0.252 C 
ATOM      2  O   UNL     1      -5.921   3.903  26.012  0.00  0.00    -0.471 OA
ENDBRANCH   3   2
ENDBRANCH   9   6
ENDBRANCH  12   9
ENDBRANCH  13  12
BRANCH  21  22
ATOM     22  C   UNL     1      -1.748  -0.008  24.515  0.00  0.00    +0.101 C 
BRANCH  22  23
ATOM     23  C   UNL     1      -1.017   0.332  24.344  0.00  0.00    +0.012 A 
ATOM     24  C   UNL     1      -0.525   0.133  23.711  0.00  0.00    +0.073 A 
ATOM     25  N   UNL     1       0.147   0.610  23.750  0.00  0.00    -0.324 N 
ATOM     26  C   UNL     1       0.783   0.595  23.225  0.00  0.00    +0.130 C 
ATOM     27  C   UNL     1       0.071   1.103  24.406  0.00  0.00    +0.060 A 
ATOM     28  C   UNL     1      -0.648   0.932  24.773  0.00  0.00    +0.015 A 
ATOM     29  C   UNL     1      -0.874   1.345  25.451  0.00  0.00    +0.001 A 
ATOM     30  C   UNL     1      -0.381   1.929  25.762  0.00  0.00    +0.000 A 
ATOM     31  C   UNL     1       0.338   2.100  25.396  0.00  0.00    +0.001 A 
ATOM     32  C   UNL     1       0.564   1.687  24.718  0.00  0.00    +0.017 A 
ENDBRANCH  22  23
ENDBRANCH  21  22
TORSDOF 6
ENDMDL
MODEL 6
REMARK VINA RESULT:     -10.9      2.815      5.006
REMARK  Name = 
REMARK  6 active torsions:
REMARK  status: ('A' for Active; 'I' for Inactive)
REMARK    1  A    between atoms: O_2  and  C_3
REMARK    2  A    between atoms: C_6  and  S_9
REMARK    3  A    between atoms: S_9  and  N_12
REMARK    4  A    between atoms: N_12  and  C_13
REMARK    5  A    between atoms: N_21  and  C_22
REMARK    6  A    between atoms: C_22  and  C_23
REMARK                            x       y       z     vdW  Elec       q    Type
REMARK                         _______ _______ _______ _____ _____    ______ ____
ROOT
ATOM     13  C   UNL     1      -0.911   0.831  24.070  0.00  0.00    +0.147 A 
ATOM     14  C   UNL     1      -0.779   1.570  23.728  0.00  0.00    +0.024 A 
ATOM     15  C   UNL     1      -1.418   2.049  23.520  0.00  0.00    +0.014 A 
ATOM     16  C   UNL     1      -2.189   1.788  23.655  0.00  0.00    +0.041 A 
ATOM     17  C   UNL     1      -3.062   2.057  23.548  0.00  0.00    +0.054 C 
ATOM     18  C   UNL     1      -3.448   2.592  23.310  0.00  0.00    +0.011 C 
ATOM     19  C   UNL     1      -3.575   1.862  23.648  0.00  0.00    +0.039 C 
ATOM     20  C   UNL     1      -3.928   1.026  24.039  0.00  0.00    +0.074 C 
ATOM     21  N   UNL     1      -3.208   0.634  24.205  0.00  0.00    -0.269 NA
ATOM     33  C   UNL     1      -3.418   1.254  23.924  0.00  0.00    +0.078 C 
ATOM     34  C   UNL     1      -2.666   1.573  23.763  0.00  0.00    +0.110 C 
ATOM     35  N   UNL     1      -2.321   1.049  23.997  0.00  0.00    -0.298 N 
ATOM     36  C   UNL     1      -1.682   0.571  24.205  0.00  0.00    +0.277 A 
ATOM     37  O   UNL     1      -1.814  -0.168  24.547  0.00  0.00    -0.266 OA
ENDROOT
BRANCH  13  12
ATOM     12  N   UNL     1      -0.272   0.353  24.278  0.00  0.00    -0.092 NA
BRANCH  12   9
ATOM      9  S   UNL     1       0.423   0.380  23.834  0.00  0.00    +0.093 S 
ATOM     10  O   UNL     1       0.183  -0.291  23.417  0.00  0.00    -0.148 OA
ATOM     11  O   UNL     1       0.663   1.050  24.251  0.00  0.00    -0.148 OA
BRANCH   9   6
ATOM      3  C   UNL     1       2.509   0.460  22.504  0.00  0.00    +0.139 A 
ATOM      4  C   UNL     1       1.925  -0.093  22.321  0.00  0.00    +0.038 A 
ATOM      5  C   UNL     1       1.229  -0.119  22.765  0.00  0.00    +0.023 A 
ATOM      6  C   UNL     1       1.118   0.407  23.391  0.00  0.00    +0.127 A 
ATOM      7  C   UNL     1       1.703   0.959  23.573  0.00  0.00    +0.023 A 
ATOM      8  C   UNL     1       2.398   0.986  23.129  0.00  0.00    +0.038 A 
BRANCH   3   2
ATOM      1  C   UNL     1       3.934   0.540  22.440  0.00  0.00    +0.252 C 
ATOM      2  O   UNL     1       3.204   0.486  22.060  0.00  0.00    -0.471 OA
ENDBRANCH   3   2
ENDBRANCH   9   6
ENDBRANCH  12   9
ENDBRANCH  13  12
BRANCH  21  22
ATOM     22  C   UNL     1      -2.697   0.042  24.468  0.00  0.00    +0.101 C 
BRANCH  22  23
ATOM     23  C   UNL     1      -2.987  -0.577  24.929  0.00  0.00    +0.012 A 
ATOM     24  C   UNL     1      -3.087  -0.566  25.749  0.00  0.00    +0.073 A 
ATOM     25  N   UNL     1      -3.389  -1.299  25.979  0.00  0.00    -0.324 N 
ATOM     26  C   UNL     1      -3.572  -1.527  26.750  0.00  0.00    +0.130 C 
ATOM     27  C   UNL     1      -3.476  -1.762  25.302  0.00  0.00    +0.060 A 
ATOM     28  C   UNL     1      -3.227  -1.317  24.653  0.00  0.00    +0.015 A 
ATOM     29  C   UNL     1      -3.252  -1.642  23.896  0.00  0.00    +0.001 A 
ATOM     30  C   UNL     1      -3.525  -2.413  23.787  0.00  0.00    +0.000 A 
ATOM     31  C   UNL     1      -3.774  -2.859  24.435  0.00  0.00    +0.001 A 
ATOM     32  C   UNL     1      -3.749  -2.533  25.193  0.00  0.00    +0.017 A 
ENDBRANCH  22  23
ENDBRANCH  21  22
TORSDOF 6
ENDMDL
MODEL 7
REMARK VINA RESULT:     -10.8      2.025      3.767
REMARK  Name = 
REMARK  6 active torsions:
REMARK  status: ('A' for Active; 'I' for Inactive)
REMARK    1  A    between atoms: O_2  and  C_3
REMARK    2  A    between atoms: C_6  and  S_9
REMARK    3  A    between atoms: S_9  and  N_12
REMARK    4  A    between atoms: N_12  and  C_13
REMARK    5  A    between atoms: N_21  and  C_22
REMARK    6  A    between atoms: C_22  and  C_23
REMARK                            x       y       z     vdW  Elec       q    Type
REMARK                         _______ _______ _______ _____ _____    ______ ____
ROOT
ATOM     13  C   UNL     1      -2.744   2.539  24.290  0.00  0.00    +0.147 A 
ATOM     14  C   UNL     1      -2.895   3.334  24.452  0.00  0.00    +0.024 A 
ATOM     15  C   UNL     1      -2.289   3.822  24.726  0.00  0.00    +0.014 A 
ATOM     16  C   UNL     1      -1.532   3.516  24.837  0.00  0.00    +0.041 A 
ATOM     17  C   UNL     1      -0.692   3.771  25.109  0.00  0.00    +0.054 C 
ATOM     18  C   UNL     1      -0.333   4.329  25.338  0.00  0.00    +0.011 C 
ATOM     19  C   UNL     1      -0.187   3.544  25.177  0.00  0.00    +0.039 C 
ATOM     20  C   UNL     1       0.182   2.637  25.041  0.00  0.00    +0.074 C 
ATOM     21  N   UNL     1      -0.505   2.245  24.772  0.00  0.00    -0.269 NA
ATOM     33  C   UNL     1      -0.320   2.900  24.982  0.00  0.00    +0.078 C 
ATOM     34  C   UNL     1      -1.061   3.268  24.891  0.00  0.00    +0.110 C 
ATOM     35  N   UNL     1      -1.380   2.721  24.674  0.00  0.00    -0.298 N 
ATOM     36  C   UNL     1      -1.986   2.233  24.401  0.00  0.00    +0.277 A 
ATOM     37  O   UNL     1      -1.835   1.438  24.239  0.00  0.00    -0.266 OA
ENDROOT
BRANCH  13  12
ATOM     12  N   UNL     1      -3.350   2.052  24.017  0.00  0.00    -0.092 NA
BRANCH  12   9
ATOM      9  S   UNL     1      -4.057   1.996  24.441  0.00  0.00    +0.093 S 
ATOM     10  O   UNL     1      -3.742   1.375  24.883  0.00  0.00    -0.148 OA
ATOM     11  O   UNL     1      -4.371   2.618  23.998  0.00  0.00    -0.148 OA
BRANCH   9   6
ATOM      3  C   UNL     1      -6.175   1.829  25.711  0.00  0.00    +0.139 A 
ATOM      4  C   UNL     1      -5.730   1.152  25.560  0.00  0.00    +0.038 A 
ATOM      5  C   UNL     1      -5.024   1.207  25.137  0.00  0.00    +0.023 A 
ATOM      6  C   UNL     1      -4.763   1.941  24.864  0.00  0.00    +0.127 A 
ATOM      7  C   UNL     1      -5.208   2.619  25.015  0.00  0.00    +0.023 A 
ATOM      8  C   UNL     1      -5.914   2.563  25.438  0.00  0.00    +0.038 A 
BRANCH   3   2
ATOM      1  C   UNL     1      -6.864   1.674  26.953  0.00  0.00    +0.252 C 
ATOM      2  O   UNL     1      -6.881   1.774  26.134  0.00  0.00    -0.471 OA
ENDBRANCH   3   2
ENDBRANCH   9   6
ENDBRANCH  12   9
ENDBRANCH  13  12
BRANCH  21  22
ATOM     22  C   UNL     1      -0.983   1.630  24.499  0.00  0.00    +0.101 C 
BRANCH  22  23
ATOM     23  C   UNL     1      -0.644   0.912  24.277  0.00  0.00    +0.012 A 
ATOM     24  C   UNL     1      -0.200   0.774  23.594  0.00  0.00    +0.073 A 
ATOM     25  N   UNL     1       0.028  -0.018  23.595  0.00  0.00    -0.324 N 
ATOM     26  C   UNL     1       0.480  -0.392  23.014  0.00  0.00    +0.130 C 
ATOM     27  C   UNL     1      -0.273  -0.370  24.276  0.00  0.00    +0.060 A 
ATOM     28  C   UNL     1      -0.689   0.204  24.699  0.00  0.00    +0.015 A 
ATOM     29  C   UNL     1      -1.055   0.008  25.412  0.00  0.00    +0.001 A 
ATOM     30  C   UNL     1      -1.004  -0.762  25.703  0.00  0.00    +0.000 A 
ATOM     31  C   UNL     1      -0.589  -1.337  25.281  0.00  0.00    +0.001 A 
ATOM     32  C   UNL     1      -0.223  -1.141  24.568  0.00  0.00    +0.017 A 
ENDBRANCH  22  23
ENDBRANCH  21  22
TORSDOF 6
ENDMDL
