MODEL 1
REMARK VINA RESULT:      -8.5      0.000      0.000
REMARK  Name = 
REMARK  3 active torsions:
REMARK  status: ('A' for Active; 'I' for Inactive)
REMARK    1  A    between atoms: N_2  and  C_4
REMARK    2  A    between atoms: C_7  and  C_8
REMARK    3  A    between atoms: C_8  and  N_9
REMARK                            x       y       z     vdW  Elec       q    Type
REMARK                         _______ _______ _______ _____ _____    ______ ____
ROOT
ATOM      4  C   UNL     1      -3.940  -0.000  24.525  0.00  0.00    +0.048 A 
ATOM      5  C   UNL     1      -3.362   0.350  24.053  0.00  0.00    +0.014 A 
ATOM      6  C   UNL     1      -3.373   1.164  23.923  0.00  0.00    -0.002 A 
ATOM      7  C   UNL     1      -3.963   1.629  24.264  0.00  0.00    -0.006 A 
ATOM     17  C   UNL     1      -4.541   1.278  24.736  0.00  0.00    -0.002 A 
ATOM     18  C   UNL     1      -4.530   0.465  24.866  0.00  0.00    +0.014 A 
ENDROOT
BRANCH   4   2
ATOM      1  C   UNL     1      -3.625  -1.115  25.361  0.00  0.00    +0.112 C 
ATOM      2  N   UNL     1      -3.929  -0.815  24.656  0.00  0.00    -0.304 N 
ATOM      3  C   UNL     1      -4.222  -1.328  24.082  0.00  0.00    +0.112 C 
ENDBRANCH   4   2
BRANCH   7   8
ATOM      8  C   UNL     1      -3.974   2.443  24.133  0.00  0.00    +0.099 C 
BRANCH   8   9
ATOM      9  N   UNL     1      -3.635   2.954  24.684  0.00  0.00    -0.265 NA
ATOM     10  C   UNL     1      -4.132   3.203  25.294  0.00  0.00    +0.105 C 
ATOM     11  C   UNL     1      -3.961   3.708  25.923  0.00  0.00    +0.160 C 
ATOM     12  O   UNL     1      -3.251   4.089  26.099  0.00  0.00    -0.350 OA
ATOM     13  C   UNL     1      -2.536   4.058  25.689  0.00  0.00    +0.176 C 
ATOM     14  C   UNL     1      -2.355   3.640  25.001  0.00  0.00    +0.197 C 
ATOM     15  O   UNL     1      -1.582   3.724  24.723  0.00  0.00    -0.219 OA
ATOM     16  C   UNL     1      -2.844   3.148  24.554  0.00  0.00    +0.108 C 
ENDBRANCH   8   9
ENDBRANCH   7   8
TORSDOF 3
ENDMDL
MODEL 2
REMARK VINA RESULT:      -8.4      0.769      1.608
REMARK  Name = 
REMARK  3 active torsions:
REMARK  status: ('A' for Active; 'I' for Inactive)
REMARK    1  A    between atoms: N_2  and  C_4
REMARK    2  A    between atoms: C_7  and  C_8
REMARK    3  A    between atoms: C_8  and  N_9
REMARK                            x       y       z     vdW  Elec       q    Type
REMARK                         _______ _______ _______ _____ _____    ______ ____
ROOT
ATOM      4  C   UNL     1      -3.696  -0.537  24.735  0.00  0.00    +0.048 A 
ATOM      5  C   UNL     1      -4.415  -0.147  24.839  0.00  0.00    +0.014 A 
ATOM      6  C   UNL     1      -4.497   0.638  24.601  0.00  0.00    -0.002 A 
ATOM      7  C   UNL     1      -3.859   1.034  24.258  0.00  0.00    -0.006 A 
ATOM     17  C   UNL     1      -3.140   0.643  24.154  0.00  0.00    -0.002 A 
ATOM     18  C   UNL     1      -3.059  -0.141  24.392  0.00  0.00    +0.014 A 
ENDROOT
BRANCH   4   2
ATOM      1  C   UNL     1      -3.768  -1.933  24.441  0.00  0.00    +0.112 C 
ATOM      2  N   UNL     1      -3.614  -1.323  24.973  0.00  0.00    -0.304 N 
ATOM      3  C   UNL     1      -3.379  -1.497  25.744  0.00  0.00    +0.112 C 
ENDBRANCH   4   2
BRANCH   7   8
ATOM      8  C   UNL     1      -3.941   1.819  24.020  0.00  0.00    +0.099 C 
BRANCH   8   9
ATOM      9  N   UNL     1      -3.836   2.429  24.565  0.00  0.00    -0.265 NA
ATOM     10  C   UNL     1      -3.053   2.626  24.735  0.00  0.00    +0.105 C 
ATOM     11  C   UNL     1      -2.769   3.204  25.251  0.00  0.00    +0.160 C 
ATOM     12  O   UNL     1      -3.197   3.727  25.724  0.00  0.00    -0.350 OA
ATOM     13  C   UNL     1      -4.015   3.802  25.798  0.00  0.00    +0.176 C 
ATOM     14  C   UNL     1      -4.607   3.372  25.417  0.00  0.00    +0.197 C 
ATOM     15  O   UNL     1      -5.382   3.581  25.612  0.00  0.00    -0.219 OA
ATOM     16  C   UNL     1      -4.527   2.761  24.869  0.00  0.00    +0.108 C 
ENDBRANCH   8   9
ENDBRANCH   7   8
TORSDOF 3
ENDMDL
MODEL 3
REMARK VINA RESULT:      -8.3      1.469      2.116
REMARK  Name = 
REMARK  3 active torsions:
REMARK  status: ('A' for Active; 'I' for Inactive)
REMARK    1  A    between atoms: N_2  and  C_4
REMARK    2  A    between atoms: C_7  and  C_8
REMARK    3  A    between atoms: C_8  and  N_9
REMARK                            x       y       z     vdW  Elec       q    Type
REMARK                         _______ _______ _______ _____ _____    ______ ____
ROOT
ATOM      4  C   UNL     1      -3.744  -1.544  24.662  0.00  0.00    +0.048 A 
ATOM      5  C   UNL     1      -3.949  -1.213  23.934  0.00  0.00    +0.014 A 
ATOM      6  C   UNL     1      -4.034  -0.397  23.861  0.00  0.00    -0.002 A 
ATOM      7  C   UNL     1      -3.915   0.091  24.515  0.00  0.00    -0.006 A 
ATOM     17  C   UNL     1      -3.711  -0.239  25.243  0.00  0.00    -0.002 A 
ATOM     18  C   UNL     1      -3.626  -1.056  25.316  0.00  0.00    +0.014 A 
ENDROOT
BRANCH   4   2
ATOM      1  C   UNL     1      -3.942  -2.860  24.143  0.00  0.00    +0.112 C 
ATOM      2  N   UNL     1      -3.659  -2.361  24.735  0.00  0.00    -0.304 N 
ATOM      3  C   UNL     1      -3.291  -2.679  25.401  0.00  0.00    +0.112 C 
ENDBRANCH   4   2
BRANCH   7   8
ATOM      8  C   UNL     1      -4.001   0.908  24.442  0.00  0.00    +0.099 C 
BRANCH   8   9
ATOM      9  N   UNL     1      -3.345   1.377  24.271  0.00  0.00    -0.265 NA
ATOM     10  C   UNL     1      -2.905   1.630  24.922  0.00  0.00    +0.105 C 
ATOM     11  C   UNL     1      -2.227   2.100  24.935  0.00  0.00    +0.160 C 
ATOM     12  O   UNL     1      -1.821   2.433  24.300  0.00  0.00    -0.350 OA
ATOM     13  C   UNL     1      -1.991   2.380  23.495  0.00  0.00    +0.176 C 
ATOM     14  C   UNL     1      -2.612   1.979  23.126  0.00  0.00    +0.197 C 
ATOM     15  O   UNL     1      -2.632   2.031  22.303  0.00  0.00    -0.219 OA
ATOM     16  C   UNL     1      -3.213   1.533  23.472  0.00  0.00    +0.108 C 
ENDBRANCH   8   9
ENDBRANCH   7   8
TORSDOF 3
ENDMDL
MODEL 4
REMARK VINA RESULT:      -8.2      1.949      2.949
REMARK  Name = 
REMARK  3 active torsions:
REMARK  status: ('A' for Active; 'I' for Inactive)
REMARK    1  A    between atoms: N_2  and  C_4
REMARK    2  A    between atoms: C_7  and  C_8
REMARK    3  A    between atoms: C_8  and  N_9
REMARK                            x       y       z     vdW  Elec       q    Type
REMARK                         _______ _______ _______ _____ _____    ______ ____
ROOT
ATOM      4  C   UNL     1      -4.617   2.216  24.678  0.00  0.00    +0.048 A 
ATOM      5  C   UNL     1      -4.295   1.457  24.656  0.00  0.00    +0.014 A 
ATOM      6  C   UNL     1      -3.617   1.310  24.212  0.00  0.00    -0.002 A 
ATOM      7  C   UNL     1      -3.259   1.921  23.790  0.00  0.00    -0.006 A 
ATOM     17  C   UNL     1      -3.581   2.680  23.812  0.00  0.00    -0.002 A 
ATOM     18  C   UNL     1      -4.259   2.828  24.255  0.00  0.00    +0.014 A 
ENDROOT
BRANCH   4   2
ATOM      1  C   UNL     1      -5.302   2.974  25.677  0.00  0.00    +0.112 C 
ATOM      2  N   UNL     1      -5.297   2.364  25.122  0.00  0.00    -0.304 N 
ATOM      3  C   UNL     1      -5.970   1.902  25.011  0.00  0.00    +0.112 C 
ENDBRANCH   4   2
BRANCH   7   8
ATOM      8  C   UNL     1      -2.579   1.774  23.345  0.00  0.00    +0.099 C 
BRANCH   8   9
ATOM      9  N   UNL     1      -1.838   1.797  23.706  0.00  0.00    -0.265 NA
ATOM     10  C   UNL     1      -1.540   2.551  23.862  0.00  0.00    +0.105 C 
ATOM     11  C   UNL     1      -0.822   2.757  24.214  0.00  0.00    +0.160 C 
ATOM     12  O   UNL     1      -0.227   2.262  24.496  0.00  0.00    -0.350 OA
ATOM     13  C   UNL     1      -0.199   1.438  24.496  0.00  0.00    +0.176 C 
ATOM     14  C   UNL     1      -0.763   0.905  24.214  0.00  0.00    +0.197 C 
ATOM     15  O   UNL     1      -0.572   0.106  24.295  0.00  0.00    -0.219 OA
ATOM     16  C   UNL     1      -1.492   1.065  23.863  0.00  0.00    +0.108 C 
ENDBRANCH   8   9
ENDBRANCH   7   8
TORSDOF 3
ENDMDL
