MODEL 1
REMARK VINA RESULT:     -11.1      0.000      0.000
REMARK  Name = 
REMARK  2 active torsions:
REMARK  status: ('A' for Active; 'I' for Inactive)
REMARK    1  A    between atoms: C_2  and  C_29
REMARK    2  A    between atoms: C_15  and  C_18
REMARK                            x       y       z     vdW  Elec       q    Type
REMARK                         _______ _______ _______ _____ _____    ______ ____
ROOT
ATOM      1  O   UNL     1      -4.698   3.689  24.170  0.00  0.00    -0.269 OA
ATOM      2  C   UNL     1      -4.507   2.951  24.488  0.00  0.00    +0.255 C 
ATOM      3  N   UNL     1      -3.782   2.600  24.310  0.00  0.00    -0.272 N 
ATOM      4  C   UNL     1      -3.247   2.986  23.814  0.00  0.00    +0.115 C 
ATOM      5  C   UNL     1      -2.523   2.636  23.636  0.00  0.00    +0.116 C 
ATOM      6  N   UNL     1      -2.332   1.898  23.954  0.00  0.00    -0.266 N 
ATOM      7  C   UNL     1      -2.866   1.513  24.450  0.00  0.00    +0.174 C 
ATOM      8  C   UNL     1      -3.591   1.863  24.628  0.00  0.00    +0.123 C 
ATOM      9  C   UNL     1      -2.786   0.781  24.822  0.00  0.00    +0.265 C 
ATOM     10  O   UNL     1      -3.424   0.544  25.288  0.00  0.00    -0.271 OA
ATOM     11  N   UNL     1      -2.152   0.254  24.791  0.00  0.00    -0.178 NA
ATOM     12  C   UNL     1      -1.441   0.330  24.379  0.00  0.00    +0.078 A 
ATOM     13  C   UNL     1      -1.189   0.950  23.897  0.00  0.00    +0.069 A 
ATOM     14  C   UNL     1      -0.449   0.915  23.533  0.00  0.00    +0.006 A 
ATOM     15  C   UNL     1       0.038   0.260  23.651  0.00  0.00    +0.000 A 
ATOM     16  C   UNL     1      -0.214  -0.360  24.132  0.00  0.00    +0.001 A 
ATOM     17  C   UNL     1      -0.953  -0.326  24.496  0.00  0.00    +0.017 A 
ATOM     27  C   UNL     1      -1.586   1.649  23.708  0.00  0.00    +0.251 C 
ATOM     28  O   UNL     1      -1.182   2.164  23.207  0.00  0.00    -0.270 OA
ENDROOT
BRANCH  15  18
ATOM     18  C   UNL     1       0.778   0.225  23.286  0.00  0.00    +0.003 A 
ATOM     19  C   UNL     1       1.384   0.726  23.536  0.00  0.00    +0.040 A 
ATOM     20  C   UNL     1       2.124   0.691  23.171  0.00  0.00    +0.176 A 
ATOM     21  C   UNL     1       2.257   0.156  22.558  0.00  0.00    +0.176 A 
ATOM     22  O   UNL     1       3.037   0.247  22.305  0.00  0.00    -0.435 OA
ATOM     23  C   UNL     1       3.385   0.837  22.762  0.00  0.00    +0.429 C 
ATOM     24  O   UNL     1       2.822   1.113  23.298  0.00  0.00    -0.435 OA
ATOM     25  C   UNL     1       1.650  -0.345  22.308  0.00  0.00    +0.040 A 
ATOM     26  C   UNL     1       0.911  -0.310  22.672  0.00  0.00    +0.003 A 
ENDBRANCH  15  18
BRANCH   2  29
ATOM     29  C   UNL     1      -5.042   2.565  24.984  0.00  0.00    +0.083 A 
ATOM     30  C   UNL     1      -5.555   1.958  24.765  0.00  0.00    +0.012 A 
ATOM     31  C   UNL     1      -5.987   1.737  25.432  0.00  0.00    +0.008 A 
ATOM     32  C   UNL     1      -5.741   2.207  26.063  0.00  0.00    +0.036 A 
ATOM     33  S   UNL     1      -5.156   2.719  25.786  0.00  0.00    -0.082 S 
ENDBRANCH   2  29
TORSDOF 2
ENDMDL
MODEL 2
REMARK VINA RESULT:     -10.6      2.667      4.649
REMARK  Name = 
REMARK  2 active torsions:
REMARK  status: ('A' for Active; 'I' for Inactive)
REMARK    1  A    between atoms: C_2  and  C_29
REMARK    2  A    between atoms: C_15  and  C_18
REMARK                            x       y       z     vdW  Elec       q    Type
REMARK                         _______ _______ _______ _____ _____    ______ ____
ROOT
ATOM      1  O   UNL     1       0.157   4.002  25.056  0.00  0.00    -0.269 OA
ATOM      2  C   UNL     1      -0.665   4.003  24.988  0.00  0.00    +0.255 C 
ATOM      3  N   UNL     1      -1.073   3.290  24.902  0.00  0.00    -0.272 N 
ATOM      4  C   UNL     1      -0.658   2.578  24.884  0.00  0.00    +0.115 C 
ATOM      5  C   UNL     1      -1.065   1.866  24.798  0.00  0.00    +0.116 C 
ATOM      6  N   UNL     1      -1.888   1.867  24.729  0.00  0.00    -0.266 N 
ATOM      7  C   UNL     1      -2.302   2.579  24.747  0.00  0.00    +0.174 C 
ATOM      8  C   UNL     1      -1.895   3.291  24.833  0.00  0.00    +0.123 C 
ATOM      9  C   UNL     1      -3.115   2.703  24.688  0.00  0.00    +0.265 C 
ATOM     10  O   UNL     1      -3.362   3.489  24.726  0.00  0.00    -0.271 OA
ATOM     11  N   UNL     1      -3.715   2.144  24.597  0.00  0.00    -0.178 NA
ATOM     12  C   UNL     1      -3.649   1.323  24.543  0.00  0.00    +0.078 A 
ATOM     13  C   UNL     1      -2.969   0.860  24.565  0.00  0.00    +0.069 A 
ATOM     14  C   UNL     1      -3.026   0.039  24.500  0.00  0.00    +0.006 A 
ATOM     15  C   UNL     1      -3.765  -0.317  24.412  0.00  0.00    +0.000 A 
ATOM     16  C   UNL     1      -4.446   0.147  24.390  0.00  0.00    +0.001 A 
ATOM     17  C   UNL     1      -4.389   0.967  24.455  0.00  0.00    +0.017 A 
ATOM     27  C   UNL     1      -2.184   1.101  24.648  0.00  0.00    +0.251 C 
ATOM     28  O   UNL     1      -1.622   0.497  24.651  0.00  0.00    -0.270 OA
ENDROOT
BRANCH  15  18
ATOM     18  C   UNL     1      -3.822  -1.138  24.347  0.00  0.00    +0.003 A 
ATOM     19  C   UNL     1      -3.476  -1.622  24.919  0.00  0.00    +0.040 A 
ATOM     20  C   UNL     1      -3.533  -2.443  24.854  0.00  0.00    +0.176 A 
ATOM     21  C   UNL     1      -3.936  -2.779  24.218  0.00  0.00    +0.176 A 
ATOM     22  O   UNL     1      -3.902  -3.600  24.299  0.00  0.00    -0.435 OA
ATOM     23  C   UNL     1      -3.478  -3.770  24.985  0.00  0.00    +0.429 C 
ATOM     24  O   UNL     1      -3.249  -3.055  25.329  0.00  0.00    -0.435 OA
ATOM     25  C   UNL     1      -4.283  -2.295  23.646  0.00  0.00    +0.040 A 
ATOM     26  C   UNL     1      -4.225  -1.475  23.711  0.00  0.00    +0.003 A 
ENDBRANCH  15  18
BRANCH   2  29
ATOM     29  C   UNL     1      -1.080   4.716  25.006  0.00  0.00    +0.083 A 
ATOM     30  C   UNL     1      -1.613   4.952  25.589  0.00  0.00    +0.012 A 
ATOM     31  C   UNL     1      -1.896   5.700  25.387  0.00  0.00    +0.008 A 
ATOM     32  C   UNL     1      -1.538   5.926  24.679  0.00  0.00    +0.036 A 
ATOM     33  S   UNL     1      -1.033   5.317  24.444  0.00  0.00    -0.082 S 
ENDBRANCH   2  29
TORSDOF 2
ENDMDL
MODEL 3
REMARK VINA RESULT:     -10.4      2.990      4.449
REMARK  Name = 
REMARK  2 active torsions:
REMARK  status: ('A' for Active; 'I' for Inactive)
REMARK    1  A    between atoms: C_2  and  C_29
REMARK    2  A    between atoms: C_15  and  C_18
REMARK                            x       y       z     vdW  Elec       q    Type
REMARK                         _______ _______ _______ _____ _____    ______ ____
ROOT
ATOM      1  O   UNL     1      -4.736  -1.679  23.800  0.00  0.00    -0.269 OA
ATOM      2  C   UNL     1      -4.007  -1.643  24.186  0.00  0.00    +0.255 C 
ATOM      3  N   UNL     1      -3.630  -0.916  24.289  0.00  0.00    -0.272 N 
ATOM      4  C   UNL     1      -3.982  -0.225  24.005  0.00  0.00    +0.115 C 
ATOM      5  C   UNL     1      -3.606   0.501  24.108  0.00  0.00    +0.116 C 
ATOM      6  N   UNL     1      -2.877   0.538  24.494  0.00  0.00    -0.266 N 
ATOM      7  C   UNL     1      -2.525  -0.153  24.777  0.00  0.00    +0.174 C 
ATOM      8  C   UNL     1      -2.902  -0.879  24.675  0.00  0.00    +0.123 C 
ATOM      9  C   UNL     1      -1.808  -0.239  25.174  0.00  0.00    +0.265 C 
ATOM     10  O   UNL     1      -1.607  -1.009  25.387  0.00  0.00    -0.271 OA
ATOM     11  N   UNL     1      -1.264   0.344  25.386  0.00  0.00    -0.178 NA
ATOM     12  C   UNL     1      -1.304   1.158  25.252  0.00  0.00    +0.078 A 
ATOM     13  C   UNL     1      -1.897   1.588  24.875  0.00  0.00    +0.069 A 
ATOM     14  C   UNL     1      -1.828   2.407  24.800  0.00  0.00    +0.006 A 
ATOM     15  C   UNL     1      -1.166   2.794  25.102  0.00  0.00    +0.000 A 
ATOM     16  C   UNL     1      -0.573   2.364  25.479  0.00  0.00    +0.001 A 
ATOM     17  C   UNL     1      -0.641   1.546  25.555  0.00  0.00    +0.017 A 
ATOM     27  C   UNL     1      -2.598   1.312  24.537  0.00  0.00    +0.251 C 
ATOM     28  O   UNL     1      -3.082   1.888  24.198  0.00  0.00    -0.270 OA
ENDROOT
BRANCH  15  18
ATOM     18  C   UNL     1      -1.097   3.614  25.027  0.00  0.00    +0.003 A 
ATOM     19  C   UNL     1      -1.697   4.105  25.307  0.00  0.00    +0.040 A 
ATOM     20  C   UNL     1      -1.629   4.924  25.232  0.00  0.00    +0.176 A 
ATOM     21  C   UNL     1      -0.960   5.251  24.876  0.00  0.00    +0.176 A 
ATOM     22  O   UNL     1      -1.045   6.072  24.879  0.00  0.00    -0.435 OA
ATOM     23  C   UNL     1      -1.766   6.252  25.236  0.00  0.00    +0.429 C 
ATOM     24  O   UNL     1      -2.127   5.543  25.455  0.00  0.00    -0.435 OA
ATOM     25  C   UNL     1      -0.359   4.759  24.596  0.00  0.00    +0.040 A 
ATOM     26  C   UNL     1      -0.428   3.941  24.671  0.00  0.00    +0.003 A 
ENDBRANCH  15  18
BRANCH   2  29
ATOM     29  C   UNL     1      -3.656  -2.333  24.469  0.00  0.00    +0.083 A 
ATOM     30  C   UNL     1      -3.645  -2.585  25.255  0.00  0.00    +0.012 A 
ATOM     31  C   UNL     1      -3.235  -3.301  25.287  0.00  0.00    +0.008 A 
ATOM     32  C   UNL     1      -2.993  -3.491  24.522  0.00  0.00    +0.036 A 
ATOM     33  S   UNL     1      -3.253  -2.893  24.016  0.00  0.00    -0.082 S 
ENDBRANCH   2  29
TORSDOF 2
ENDMDL
MODEL 4
REMARK VINA RESULT:      -8.7      1.459      2.327
REMARK  Name = 
REMARK  2 active torsions:
REMARK  status: ('A' for Active; 'I' for Inactive)
REMARK    1  A    between atoms: C_2  and  C_29
REMARK    2  A    between atoms: C_15  and  C_18
REMARK                            x       y       z     vdW  Elec       q    Type
REMARK                         _______ _______ _______ _____ _____    ______ ____
ROOT
ATOM      1  O   UNL     1      -2.400   3.400  25.447  0.00  0.00    -0.269 OA
ATOM      2  C   UNL     1      -2.368   2.714  24.988  0.00  0.00    +0.255 C 
ATOM      3  N   UNL     1      -1.639   2.421  24.735  0.00  0.00    -0.272 N 
ATOM      4  C   UNL     1      -0.943   2.812  24.941  0.00  0.00    +0.115 C 
ATOM      5  C   UNL     1      -0.215   2.519  24.689  0.00  0.00    +0.116 C 
ATOM      6  N   UNL     1      -0.183   1.834  24.230  0.00  0.00    -0.266 N 
ATOM      7  C   UNL     1      -0.879   1.443  24.024  0.00  0.00    +0.174 C 
ATOM      8  C   UNL     1      -1.607   1.736  24.276  0.00  0.00    +0.123 C 
ATOM      9  C   UNL     1      -0.970   0.757  23.575  0.00  0.00    +0.265 C 
ATOM     10  O   UNL     1      -1.746   0.501  23.465  0.00  0.00    -0.271 OA
ATOM     11  N   UNL     1      -0.387   0.293  23.220  0.00  0.00    -0.178 NA
ATOM     12  C   UNL     1       0.431   0.401  23.228  0.00  0.00    +0.078 A 
ATOM     13  C   UNL     1       0.868   0.998  23.591  0.00  0.00    +0.069 A 
ATOM     14  C   UNL     1       1.691   1.004  23.530  0.00  0.00    +0.006 A 
ATOM     15  C   UNL     1       2.076   0.411  23.105  0.00  0.00    +0.000 A 
ATOM     16  C   UNL     1       1.640  -0.186  22.742  0.00  0.00    +0.001 A 
ATOM     17  C   UNL     1       0.817  -0.192  22.802  0.00  0.00    +0.017 A 
ATOM     27  C   UNL     1       0.595   1.637  24.038  0.00  0.00    +0.251 C 
ATOM     28  O   UNL     1       1.176   2.143  24.330  0.00  0.00    -0.270 OA
ENDROOT
BRANCH  15  18
ATOM     18  C   UNL     1       2.900   0.416  23.044  0.00  0.00    +0.003 A 
ATOM     19  C   UNL     1       3.347  -0.140  23.458  0.00  0.00    +0.040 A 
ATOM     20  C   UNL     1       4.170  -0.134  23.397  0.00  0.00    +0.176 A 
ATOM     21  C   UNL     1       4.545   0.426  22.922  0.00  0.00    +0.176 A 
ATOM     22  O   UNL     1       5.359   0.297  22.969  0.00  0.00    -0.435 OA
ATOM     23  C   UNL     1       5.486  -0.343  23.473  0.00  0.00    +0.429 C 
ATOM     24  O   UNL     1       4.752  -0.610  23.738  0.00  0.00    -0.435 OA
ATOM     25  C   UNL     1       4.097   0.983  22.508  0.00  0.00    +0.040 A 
ATOM     26  C   UNL     1       3.275   0.977  22.569  0.00  0.00    +0.003 A 
ENDBRANCH  15  18
BRANCH   2  29
ATOM     29  C   UNL     1      -3.064   2.323  24.782  0.00  0.00    +0.083 A 
ATOM     30  C   UNL     1      -3.388   1.672  25.172  0.00  0.00    +0.012 A 
ATOM     31  C   UNL     1      -4.083   1.461  24.780  0.00  0.00    +0.008 A 
ATOM     32  C   UNL     1      -4.189   1.981  24.149  0.00  0.00    +0.036 A 
ATOM     33  S   UNL     1      -3.558   2.514  24.150  0.00  0.00    -0.082 S 
ENDBRANCH   2  29
TORSDOF 2
ENDMDL
MODEL 5
REMARK VINA RESULT:      -8.3      1.828      6.204
REMARK  Name = 
REMARK  2 active torsions:
REMARK  status: ('A' for Active; 'I' for Inactive)
REMARK    1  A    between atoms: C_2  and  C_29
REMARK    2  A    between atoms: C_15  and  C_18
REMARK                            x       y       z     vdW  Elec       q    Type
REMARK                         _______ _______ _______ _____ _____    ______ ____
ROOT
ATOM      1  O   UNL     1       0.802  -1.262  24.264  0.00  0.00    -0.269 OA
ATOM      2  C   UNL     1       0.575  -0.608  23.814  0.00  0.00    +0.255 C 
ATOM      3  N   UNL     1      -0.114  -0.195  24.006  0.00  0.00    -0.272 N 
ATOM      4  C   UNL     1      -0.575  -0.436  24.645  0.00  0.00    +0.115 C 
ATOM      5  C   UNL     1      -1.263  -0.023  24.837  0.00  0.00    +0.116 C 
ATOM      6  N   UNL     1      -1.490   0.631  24.387  0.00  0.00    -0.266 N 
ATOM      7  C   UNL     1      -1.029   0.871  23.747  0.00  0.00    +0.174 C 
ATOM      8  C   UNL     1      -0.341   0.459  23.556  0.00  0.00    +0.123 C 
ATOM      9  C   UNL     1      -1.154   1.503  23.232  0.00  0.00    +0.265 C 
ATOM     10  O   UNL     1      -0.587   1.601  22.641  0.00  0.00    -0.271 OA
ATOM     11  N   UNL     1      -1.772   2.050  23.229  0.00  0.00    -0.178 NA
ATOM     12  C   UNL     1      -2.417   2.099  23.741  0.00  0.00    +0.078 A 
ATOM     13  C   UNL     1      -2.603   1.616  24.382  0.00  0.00    +0.069 A 
ATOM     14  C   UNL     1      -3.282   1.764  24.827  0.00  0.00    +0.006 A 
ATOM     15  C   UNL     1      -3.774   2.396  24.630  0.00  0.00    +0.000 A 
ATOM     16  C   UNL     1      -3.588   2.879  23.990  0.00  0.00    +0.001 A 
ATOM     17  C   UNL     1      -2.910   2.732  23.544  0.00  0.00    +0.017 A 
ATOM     27  C   UNL     1      -2.191   0.961  24.670  0.00  0.00    +0.251 C 
ATOM     28  O   UNL     1      -2.523   0.590  25.327  0.00  0.00    -0.270 OA
ENDROOT
BRANCH  15  18
ATOM     18  C   UNL     1      -4.454   2.543  25.076  0.00  0.00    +0.003 A 
ATOM     19  C   UNL     1      -4.959   1.922  25.275  0.00  0.00    +0.040 A 
ATOM     20  C   UNL     1      -5.638   2.070  25.720  0.00  0.00    +0.176 A 
ATOM     21  C   UNL     1      -5.811   2.838  25.966  0.00  0.00    +0.176 A 
ATOM     22  O   UNL     1      -6.516   2.816  26.396  0.00  0.00    -0.435 OA
ATOM     23  C   UNL     1      -6.777   2.035  26.415  0.00  0.00    +0.429 C 
ATOM     24  O   UNL     1      -6.235   1.573  25.998  0.00  0.00    -0.435 OA
ATOM     25  C   UNL     1      -5.306   3.460  25.766  0.00  0.00    +0.040 A 
ATOM     26  C   UNL     1      -4.627   3.312  25.321  0.00  0.00    +0.003 A 
ENDBRANCH  15  18
BRANCH   2  29
ATOM     29  C   UNL     1       1.036  -0.367  23.174  0.00  0.00    +0.083 A 
ATOM     30  C   UNL     1       0.915  -0.573  22.384  0.00  0.00    +0.012 A 
ATOM     31  C   UNL     1       1.504  -0.211  21.934  0.00  0.00    +0.008 A 
ATOM     32  C   UNL     1       1.989   0.218  22.445  0.00  0.00    +0.036 A 
ATOM     33  S   UNL     1       1.699   0.122  23.212  0.00  0.00    -0.082 S 
ENDBRANCH   2  29
TORSDOF 2
ENDMDL
MODEL 6
REMARK VINA RESULT:      -8.3      2.092      6.151
REMARK  Name = 
REMARK  2 active torsions:
REMARK  status: ('A' for Active; 'I' for Inactive)
REMARK    1  A    between atoms: C_2  and  C_29
REMARK    2  A    between atoms: C_15  and  C_18
REMARK                            x       y       z     vdW  Elec       q    Type
REMARK                         _______ _______ _______ _____ _____    ______ ____
ROOT
ATOM      1  O   UNL     1       1.471  -0.798  22.042  0.00  0.00    -0.269 OA
ATOM      2  C   UNL     1       1.574  -0.160  22.556  0.00  0.00    +0.255 C 
ATOM      3  N   UNL     1       0.916   0.214  22.886  0.00  0.00    -0.272 N 
ATOM      4  C   UNL     1       0.156  -0.050  22.702  0.00  0.00    +0.115 C 
ATOM      5  C   UNL     1      -0.501   0.324  23.031  0.00  0.00    +0.116 C 
ATOM      6  N   UNL     1      -0.399   0.961  23.545  0.00  0.00    -0.266 N 
ATOM      7  C   UNL     1       0.361   1.224  23.730  0.00  0.00    +0.174 C 
ATOM      8  C   UNL     1       1.018   0.851  23.400  0.00  0.00    +0.123 C 
ATOM      9  C   UNL     1       0.584   1.845  24.225  0.00  0.00    +0.265 C 
ATOM     10  O   UNL     1       1.396   1.972  24.297  0.00  0.00    -0.271 OA
ATOM     11  N   UNL     1       0.103   2.355  24.659  0.00  0.00    -0.178 NA
ATOM     12  C   UNL     1      -0.721   2.371  24.704  0.00  0.00    +0.078 A 
ATOM     13  C   UNL     1      -1.266   1.881  24.327  0.00  0.00    +0.069 A 
ATOM     14  C   UNL     1      -2.075   1.992  24.449  0.00  0.00    +0.006 A 
ATOM     15  C   UNL     1      -2.337   2.594  24.949  0.00  0.00    +0.000 A 
ATOM     16  C   UNL     1      -1.792   3.084  25.326  0.00  0.00    +0.001 A 
ATOM     17  C   UNL     1      -0.984   2.973  25.204  0.00  0.00    +0.017 A 
ATOM     27  C   UNL     1      -1.123   1.253  23.811  0.00  0.00    +0.251 C 
ATOM     28  O   UNL     1      -1.792   0.867  23.523  0.00  0.00    -0.270 OA
ENDROOT
BRANCH  15  18
ATOM     18  C   UNL     1      -3.146   2.705  25.071  0.00  0.00    +0.003 A 
ATOM     19  C   UNL     1      -3.636   2.054  25.198  0.00  0.00    +0.040 A 
ATOM     20  C   UNL     1      -4.445   2.165  25.320  0.00  0.00    +0.176 A 
ATOM     21  C   UNL     1      -4.763   2.926  25.315  0.00  0.00    +0.176 A 
ATOM     22  O   UNL     1      -5.575   2.865  25.450  0.00  0.00    -0.435 OA
ATOM     23  C   UNL     1      -5.758   2.067  25.539  0.00  0.00    +0.429 C 
ATOM     24  O   UNL     1      -5.061   1.633  25.458  0.00  0.00    -0.435 OA
ATOM     25  C   UNL     1      -4.271   3.578  25.188  0.00  0.00    +0.040 A 
ATOM     26  C   UNL     1      -3.463   3.466  25.066  0.00  0.00    +0.003 A 
ENDBRANCH  15  18
BRANCH   2  29
ATOM     29  C   UNL     1       2.333   0.103  22.741  0.00  0.00    +0.083 A 
ATOM     30  C   UNL     1       2.718   0.750  22.402  0.00  0.00    +0.012 A 
ATOM     31  C   UNL     1       3.464   0.812  22.748  0.00  0.00    +0.008 A 
ATOM     32  C   UNL     1       3.541   0.204  23.301  0.00  0.00    +0.036 A 
ATOM     33  S   UNL     1       2.842  -0.234  23.296  0.00  0.00    -0.082 S 
ENDBRANCH   2  29
TORSDOF 2
ENDMDL
