MODEL 1
REMARK VINA RESULT:     -11.7      0.000      0.000
REMARK  Name = 
REMARK  6 active torsions:
REMARK  status: ('A' for Active; 'I' for Inactive)
REMARK    1  A    between atoms: C_2  and  C_3
REMARK    2  A    between atoms: C_2  and  C_18
REMARK    3  A    between atoms: N_9  and  C_10
REMARK    4  A    between atoms: C_10  and  C_11
REMARK    5  A    between atoms: C_21  and  N_22
REMARK    6  A    between atoms: N_25  and  C_26
REMARK                            x       y       z     vdW  Elec       q    Type
REMARK                         _______ _______ _______ _____ _____    ______ ____
ROOT
ATOM      1  O   UNL     1      -3.580   3.653  23.682  0.00  0.00    -0.216 OA
ATOM      2  C   UNL     1      -3.725   3.151  24.321  0.00  0.00    +0.195 C 
ENDROOT
BRANCH   2   3
ATOM      3  C   UNL     1      -3.744   3.455  25.087  0.00  0.00    +0.140 C 
ATOM      4  C   UNL     1      -4.468   3.606  25.454  0.00  0.00    +0.165 C 
ATOM      5  O   UNL     1      -4.487   3.910  26.220  0.00  0.00    -0.343 OA
ATOM      6  C   UNL     1      -3.783   4.063  26.621  0.00  0.00    +0.227 C 
ATOM      7  C   UNL     1      -3.058   3.912  26.254  0.00  0.00    +0.256 C 
ATOM      8  O   UNL     1      -2.354   4.065  26.656  0.00  0.00    -0.272 OA
ATOM      9  N   UNL     1      -3.039   3.608  25.489  0.00  0.00    -0.270 N 
BRANCH   9  10
ATOM     10  C   UNL     1      -2.316   3.457  25.122  0.00  0.00    +0.123 C 
BRANCH  10  11
ATOM     11  C   UNL     1      -1.762   4.064  25.037  0.00  0.00    +0.025 A 
ATOM     12  C   UNL     1      -2.006   4.851  25.063  0.00  0.00    -0.000 A 
ATOM     13  C   UNL     1      -1.453   5.457  24.978  0.00  0.00    -0.000 A 
ATOM     14  C   UNL     1      -0.655   5.275  24.867  0.00  0.00    +0.002 A 
ATOM     15  C   UNL     1      -0.412   4.489  24.841  0.00  0.00    +0.029 A 
ATOM     16  C   UNL     1      -0.965   3.882  24.926  0.00  0.00    +0.138 A 
ATOM     17  F   UNL     1      -0.721   3.094  24.900  0.00  0.00    -0.204 F 
ENDBRANCH  10  11
ENDBRANCH   9  10
ENDBRANCH   2   3
BRANCH   2  18
ATOM     18  C   UNL     1      -3.851   2.347  24.193  0.00  0.00    +0.010 A 
ATOM     19  C   UNL     1      -3.377   1.935  23.656  0.00  0.00    -0.000 A 
ATOM     20  C   UNL     1      -3.503   1.129  23.529  0.00  0.00    +0.016 A 
ATOM     21  C   UNL     1      -4.102   0.736  23.937  0.00  0.00    +0.075 A 
ATOM     32  C   UNL     1      -4.576   1.148  24.473  0.00  0.00    +0.016 A 
ATOM     33  C   UNL     1      -4.450   1.952  24.601  0.00  0.00    -0.000 A 
BRANCH  21  22
ATOM     22  N   UNL     1      -4.228  -0.070  23.809  0.00  0.00    -0.161 NA
ATOM     23  C   UNL     1      -3.748  -0.627  24.181  0.00  0.00    +0.348 C 
ATOM     24  O   UNL     1      -3.140  -0.379  24.682  0.00  0.00    -0.248 OA
ATOM     25  N   UNL     1      -3.874  -1.433  24.054  0.00  0.00    -0.161 NA
BRANCH  25  26
ATOM     26  C   UNL     1      -3.394  -1.990  24.426  0.00  0.00    +0.075 A 
ATOM     27  C   UNL     1      -2.673  -2.203  24.090  0.00  0.00    +0.017 A 
ATOM     28  C   UNL     1      -2.192  -2.761  24.462  0.00  0.00    +0.001 A 
ATOM     29  C   UNL     1      -2.434  -3.106  25.172  0.00  0.00    +0.000 A 
ATOM     30  C   UNL     1      -3.157  -2.892  25.508  0.00  0.00    +0.001 A 
ATOM     31  C   UNL     1      -3.637  -2.335  25.136  0.00  0.00    +0.017 A 
ENDBRANCH  25  26
ENDBRANCH  21  22
ENDBRANCH   2  18
TORSDOF 6
ENDMDL
MODEL 2
REMARK VINA RESULT:     -11.1      3.847      5.630
REMARK  Name = 
REMARK  6 active torsions:
REMARK  status: ('A' for Active; 'I' for Inactive)
REMARK    1  A    between atoms: C_2  and  C_3
REMARK    2  A    between atoms: C_2  and  C_18
REMARK    3  A    between atoms: N_9  and  C_10
REMARK    4  A    between atoms: C_10  and  C_11
REMARK    5  A    between atoms: C_21  and  N_22
REMARK    6  A    between atoms: N_25  and  C_26
REMARK                            x       y       z     vdW  Elec       q    Type
REMARK                         _______ _______ _______ _____ _____    ______ ____
ROOT
ATOM      1  O   UNL     1      -1.395   0.113  25.710  0.00  0.00    -0.216 OA
ATOM      2  C   UNL     1      -1.474   0.383  24.934  0.00  0.00    +0.195 C 
ENDROOT
BRANCH   2   3
ATOM      3  C   UNL     1      -2.169   0.758  24.698  0.00  0.00    +0.140 C 
ATOM      4  C   UNL     1      -2.134   1.478  24.297  0.00  0.00    +0.165 C 
ATOM      5  O   UNL     1      -2.828   1.854  24.060  0.00  0.00    -0.343 OA
ATOM      6  C   UNL     1      -3.560   1.510  24.225  0.00  0.00    +0.227 C 
ATOM      7  C   UNL     1      -3.596   0.789  24.627  0.00  0.00    +0.256 C 
ATOM      8  O   UNL     1      -4.328   0.446  24.791  0.00  0.00    -0.272 OA
ATOM      9  N   UNL     1      -2.902   0.414  24.863  0.00  0.00    -0.270 N 
BRANCH   9  10
ATOM     10  C   UNL     1      -2.937  -0.306  25.264  0.00  0.00    +0.123 C 
BRANCH  10  11
ATOM     11  C   UNL     1      -3.305  -0.956  24.912  0.00  0.00    +0.025 A 
ATOM     12  C   UNL     1      -3.535  -0.921  24.122  0.00  0.00    -0.000 A 
ATOM     13  C   UNL     1      -3.902  -1.571  23.770  0.00  0.00    -0.000 A 
ATOM     14  C   UNL     1      -4.039  -2.256  24.211  0.00  0.00    +0.002 A 
ATOM     15  C   UNL     1      -3.808  -2.290  25.001  0.00  0.00    +0.029 A 
ATOM     16  C   UNL     1      -3.441  -1.640  25.353  0.00  0.00    +0.138 A 
ATOM     17  F   UNL     1      -3.210  -1.675  26.144  0.00  0.00    -0.204 F 
ENDBRANCH  10  11
ENDBRANCH   9  10
ENDBRANCH   2   3
BRANCH   2  18
ATOM     18  C   UNL     1      -0.859   0.277  24.396  0.00  0.00    +0.010 A 
ATOM     19  C   UNL     1      -0.558  -0.479  24.256  0.00  0.00    -0.000 A 
ATOM     20  C   UNL     1       0.058  -0.584  23.717  0.00  0.00    +0.016 A 
ATOM     21  C   UNL     1       0.373   0.065  23.318  0.00  0.00    +0.075 A 
ATOM     32  C   UNL     1       0.072   0.821  23.458  0.00  0.00    +0.016 A 
ATOM     33  C   UNL     1      -0.544   0.927  23.996  0.00  0.00    -0.000 A 
BRANCH  21  22
ATOM     22  N   UNL     1       0.988  -0.040  22.778  0.00  0.00    -0.161 NA
ATOM     23  C   UNL     1       1.764   0.131  22.999  0.00  0.00    +0.348 C 
ATOM     24  O   UNL     1       1.925   0.408  23.760  0.00  0.00    -0.248 OA
ATOM     25  N   UNL     1       2.380   0.026  22.459  0.00  0.00    -0.161 NA
BRANCH  25  26
ATOM     26  C   UNL     1       3.155   0.198  22.680  0.00  0.00    +0.075 A 
ATOM     27  C   UNL     1       3.478   0.937  22.512  0.00  0.00    +0.017 A 
ATOM     28  C   UNL     1       4.255   1.109  22.733  0.00  0.00    +0.001 A 
ATOM     29  C   UNL     1       4.709   0.539  23.122  0.00  0.00    +0.000 A 
ATOM     30  C   UNL     1       4.385  -0.201  23.289  0.00  0.00    +0.001 A 
ATOM     31  C   UNL     1       3.609  -0.372  23.069  0.00  0.00    +0.017 A 
ENDBRANCH  25  26
ENDBRANCH  21  22
ENDBRANCH   2  18
TORSDOF 6
ENDMDL
MODEL 3
REMARK VINA RESULT:     -10.9      1.828      2.934
REMARK  Name = 
REMARK  6 active torsions:
REMARK  status: ('A' for Active; 'I' for Inactive)
REMARK    1  A    between atoms: C_2  and  C_3
REMARK    2  A    between atoms: C_2  and  C_18
REMARK    3  A    between atoms: N_9  and  C_10
REMARK    4  A    between atoms: C_10  and  C_11
REMARK    5  A    between atoms: C_21  and  N_22
REMARK    6  A    between atoms: N_25  and  C_26
REMARK                            x       y       z     vdW  Elec       q    Type
REMARK                         _______ _______ _______ _____ _____    ______ ____
ROOT
ATOM      1  O   UNL     1      -0.515   2.656  26.548  0.00  0.00    -0.216 OA
ATOM      2  C   UNL     1      -0.612   2.513  25.742  0.00  0.00    +0.195 C 
ENDROOT
BRANCH   2   3
ATOM      3  C   UNL     1      -0.597   3.142  25.207  0.00  0.00    +0.140 C 
ATOM      4  C   UNL     1      -0.039   3.154  24.600  0.00  0.00    +0.165 C 
ATOM      5  O   UNL     1      -0.024   3.781  24.066  0.00  0.00    -0.343 OA
ATOM      6  C   UNL     1      -0.568   4.398  24.138  0.00  0.00    +0.227 C 
ATOM      7  C   UNL     1      -1.126   4.386  24.746  0.00  0.00    +0.256 C 
ATOM      8  O   UNL     1      -1.670   5.003  24.818  0.00  0.00    -0.272 OA
ATOM      9  N   UNL     1      -1.141   3.759  25.280  0.00  0.00    -0.270 N 
BRANCH   9  10
ATOM     10  C   UNL     1      -1.699   3.746  25.887  0.00  0.00    +0.123 C 
BRANCH  10  11
ATOM     11  C   UNL     1      -2.505   3.765  25.707  0.00  0.00    +0.025 A 
ATOM     12  C   UNL     1      -2.761   3.592  24.943  0.00  0.00    -0.000 A 
ATOM     13  C   UNL     1      -3.565   3.610  24.762  0.00  0.00    -0.000 A 
ATOM     14  C   UNL     1      -4.115   3.803  25.348  0.00  0.00    +0.002 A 
ATOM     15  C   UNL     1      -3.859   3.976  26.112  0.00  0.00    +0.029 A 
ATOM     16  C   UNL     1      -3.053   3.957  26.292  0.00  0.00    +0.138 A 
ATOM     17  F   UNL     1      -2.798   4.131  27.057  0.00  0.00    -0.204 F 
ENDBRANCH  10  11
ENDBRANCH   9  10
ENDBRANCH   2   3
BRANCH   2  18
ATOM     18  C   UNL     1      -0.725   1.743  25.469  0.00  0.00    +0.010 A 
ATOM     19  C   UNL     1      -0.999   1.159  25.985  0.00  0.00    -0.000 A 
ATOM     20  C   UNL     1      -1.112   0.389  25.712  0.00  0.00    +0.016 A 
ATOM     21  C   UNL     1      -0.951   0.201  24.926  0.00  0.00    +0.075 A 
ATOM     32  C   UNL     1      -0.677   0.786  24.410  0.00  0.00    +0.016 A 
ATOM     33  C   UNL     1      -0.564   1.556  24.682  0.00  0.00    -0.000 A 
BRANCH  21  22
ATOM     22  N   UNL     1      -1.063  -0.569  24.653  0.00  0.00    -0.161 NA
ATOM     23  C   UNL     1      -1.823  -0.886  24.613  0.00  0.00    +0.348 C 
ATOM     24  O   UNL     1      -2.473  -0.433  24.847  0.00  0.00    -0.248 OA
ATOM     25  N   UNL     1      -1.936  -1.657  24.340  0.00  0.00    -0.161 NA
BRANCH  25  26
ATOM     26  C   UNL     1      -2.695  -1.974  24.301  0.00  0.00    +0.075 A 
ATOM     27  C   UNL     1      -2.886  -2.645  24.740  0.00  0.00    +0.017 A 
ATOM     28  C   UNL     1      -3.646  -2.963  24.701  0.00  0.00    +0.001 A 
ATOM     29  C   UNL     1      -4.217  -2.608  24.220  0.00  0.00    +0.000 A 
ATOM     30  C   UNL     1      -4.026  -1.937  23.780  0.00  0.00    +0.001 A 
ATOM     31  C   UNL     1      -3.266  -1.620  23.820  0.00  0.00    +0.017 A 
ENDBRANCH  25  26
ENDBRANCH  21  22
ENDBRANCH   2  18
TORSDOF 6
ENDMDL
MODEL 4
REMARK VINA RESULT:     -10.7      3.713      4.946
REMARK  Name = 
REMARK  6 active torsions:
REMARK  status: ('A' for Active; 'I' for Inactive)
REMARK    1  A    between atoms: C_2  and  C_3
REMARK    2  A    between atoms: C_2  and  C_18
REMARK    3  A    between atoms: N_9  and  C_10
REMARK    4  A    between atoms: C_10  and  C_11
REMARK    5  A    between atoms: C_21  and  N_22
REMARK    6  A    between atoms: N_25  and  C_26
REMARK                            x       y       z     vdW  Elec       q    Type
REMARK                         _______ _______ _______ _____ _____    ______ ____
ROOT
ATOM      1  O   UNL     1      -1.431   1.228  25.486  0.00  0.00    -0.216 OA
ATOM      2  C   UNL     1      -1.560   0.699  24.866  0.00  0.00    +0.195 C 
ENDROOT
BRANCH   2   3
ATOM      3  C   UNL     1      -2.310   0.377  24.748  0.00  0.00    +0.140 C 
ATOM      4  C   UNL     1      -2.390  -0.410  24.514  0.00  0.00    +0.165 C 
ATOM      5  O   UNL     1      -3.140  -0.731  24.396  0.00  0.00    -0.343 OA
ATOM      6  C   UNL     1      -3.811  -0.266  24.511  0.00  0.00    +0.227 C 
ATOM      7  C   UNL     1      -3.732   0.522  24.745  0.00  0.00    +0.256 C 
ATOM      8  O   UNL     1      -4.403   0.987  24.860  0.00  0.00    -0.272 OA
ATOM      9  N   UNL     1      -2.982   0.843  24.863  0.00  0.00    -0.270 N 
BRANCH   9  10
ATOM     10  C   UNL     1      -2.902   1.630  25.097  0.00  0.00    +0.123 C 
BRANCH  10  11
ATOM     11  C   UNL     1      -3.251   2.230  24.650  0.00  0.00    +0.025 A 
ATOM     12  C   UNL     1      -3.392   2.117  23.846  0.00  0.00    -0.000 A 
ATOM     13  C   UNL     1      -3.741   2.716  23.399  0.00  0.00    -0.000 A 
ATOM     14  C   UNL     1      -3.949   3.430  23.758  0.00  0.00    +0.002 A 
ATOM     15  C   UNL     1      -3.809   3.543  24.562  0.00  0.00    +0.029 A 
ATOM     16  C   UNL     1      -3.460   2.943  25.009  0.00  0.00    +0.138 A 
ATOM     17  F   UNL     1      -3.319   3.056  25.814  0.00  0.00    -0.204 F 
ENDBRANCH  10  11
ENDBRANCH   9  10
ENDBRANCH   2   3
BRANCH   2  18
ATOM     18  C   UNL     1      -0.939   0.491  24.365  0.00  0.00    +0.010 A 
ATOM     19  C   UNL     1      -0.552  -0.231  24.464  0.00  0.00    -0.000 A 
ATOM     20  C   UNL     1       0.069  -0.439  23.963  0.00  0.00    +0.016 A 
ATOM     21  C   UNL     1       0.304   0.075  23.362  0.00  0.00    +0.075 A 
ATOM     32  C   UNL     1      -0.083   0.798  23.263  0.00  0.00    +0.016 A 
ATOM     33  C   UNL     1      -0.704   1.005  23.764  0.00  0.00    -0.000 A 
BRANCH  21  22
ATOM     22  N   UNL     1       0.926  -0.132  22.860  0.00  0.00    -0.161 NA
ATOM     23  C   UNL     1       1.695   0.106  23.035  0.00  0.00    +0.348 C 
ATOM     24  O   UNL     1       1.844   0.553  23.714  0.00  0.00    -0.248 OA
ATOM     25  N   UNL     1       2.316  -0.101  22.534  0.00  0.00    -0.161 NA
BRANCH  25  26
ATOM     26  C   UNL     1       3.086   0.138  22.709  0.00  0.00    +0.075 A 
ATOM     27  C   UNL     1       3.594  -0.372  23.110  0.00  0.00    +0.017 A 
ATOM     28  C   UNL     1       4.365  -0.133  23.286  0.00  0.00    +0.001 A 
ATOM     29  C   UNL     1       4.626   0.617  23.059  0.00  0.00    +0.000 A 
ATOM     30  C   UNL     1       4.117   1.126  22.657  0.00  0.00    +0.001 A 
ATOM     31  C   UNL     1       3.347   0.888  22.482  0.00  0.00    +0.017 A 
ENDBRANCH  25  26
ENDBRANCH  21  22
ENDBRANCH   2  18
TORSDOF 6
ENDMDL
MODEL 5
REMARK VINA RESULT:     -10.5      3.706      4.712
REMARK  Name = 
REMARK  6 active torsions:
REMARK  status: ('A' for Active; 'I' for Inactive)
REMARK    1  A    between atoms: C_2  and  C_3
REMARK    2  A    between atoms: C_2  and  C_18
REMARK    3  A    between atoms: N_9  and  C_10
REMARK    4  A    between atoms: C_10  and  C_11
REMARK    5  A    between atoms: C_21  and  N_22
REMARK    6  A    between atoms: N_25  and  C_26
REMARK                            x       y       z     vdW  Elec       q    Type
REMARK                         _______ _______ _______ _____ _____    ______ ____
ROOT
ATOM      1  O   UNL     1      -2.326   0.800  24.841  0.00  0.00    -0.216 OA
ATOM      2  C   UNL     1      -1.614   1.210  24.759  0.00  0.00    +0.195 C 
ENDROOT
BRANCH   2   3
ATOM      3  C   UNL     1      -1.518   1.944  25.122  0.00  0.00    +0.140 C 
ATOM      4  C   UNL     1      -0.932   2.049  25.693  0.00  0.00    +0.165 C 
ATOM      5  O   UNL     1      -0.836   2.782  26.056  0.00  0.00    -0.343 OA
ATOM      6  C   UNL     1      -1.325   3.413  25.848  0.00  0.00    +0.227 C 
ATOM      7  C   UNL     1      -1.911   3.309  25.276  0.00  0.00    +0.256 C 
ATOM      8  O   UNL     1      -2.401   3.940  25.068  0.00  0.00    -0.272 OA
ATOM      9  N   UNL     1      -2.008   2.575  24.913  0.00  0.00    -0.270 N 
BRANCH   9  10
ATOM     10  C   UNL     1      -2.593   2.471  24.342  0.00  0.00    +0.123 C 
BRANCH  10  11
ATOM     11  C   UNL     1      -3.383   2.627  24.527  0.00  0.00    +0.025 A 
ATOM     12  C   UNL     1      -3.645   2.558  25.305  0.00  0.00    -0.000 A 
ATOM     13  C   UNL     1      -4.433   2.715  25.491  0.00  0.00    -0.000 A 
ATOM     14  C   UNL     1      -4.960   2.941  24.896  0.00  0.00    +0.002 A 
ATOM     15  C   UNL     1      -4.697   3.010  24.118  0.00  0.00    +0.029 A 
ATOM     16  C   UNL     1      -3.908   2.853  23.933  0.00  0.00    +0.138 A 
ATOM     17  F   UNL     1      -3.646   2.922  23.154  0.00  0.00    -0.204 F 
ENDBRANCH  10  11
ENDBRANCH   9  10
ENDBRANCH   2   3
BRANCH   2  18
ATOM     18  C   UNL     1      -1.000   0.886  24.314  0.00  0.00    +0.010 A 
ATOM     19  C   UNL     1      -0.593   0.224  24.593  0.00  0.00    -0.000 A 
ATOM     20  C   UNL     1       0.022  -0.100  24.148  0.00  0.00    +0.016 A 
ATOM     21  C   UNL     1       0.230   0.237  23.425  0.00  0.00    +0.075 A 
ATOM     32  C   UNL     1      -0.178   0.899  23.146  0.00  0.00    +0.016 A 
ATOM     33  C   UNL     1      -0.792   1.223  23.590  0.00  0.00    -0.000 A 
BRANCH  21  22
ATOM     22  N   UNL     1       0.844  -0.087  22.979  0.00  0.00    -0.161 NA
ATOM     23  C   UNL     1       1.619   0.169  23.098  0.00  0.00    +0.348 C 
ATOM     24  O   UNL     1       1.780   0.749  23.663  0.00  0.00    -0.248 OA
ATOM     25  N   UNL     1       2.234  -0.155  22.652  0.00  0.00    -0.161 NA
BRANCH  25  26
ATOM     26  C   UNL     1       3.008   0.101  22.771  0.00  0.00    +0.075 A 
ATOM     27  C   UNL     1       3.251   0.831  22.476  0.00  0.00    +0.017 A 
ATOM     28  C   UNL     1       4.027   1.088  22.595  0.00  0.00    +0.001 A 
ATOM     29  C   UNL     1       4.560   0.611  23.009  0.00  0.00    +0.000 A 
ATOM     30  C   UNL     1       4.316  -0.120  23.304  0.00  0.00    +0.001 A 
ATOM     31  C   UNL     1       3.541  -0.375  23.185  0.00  0.00    +0.017 A 
ENDBRANCH  25  26
ENDBRANCH  21  22
ENDBRANCH   2  18
TORSDOF 6
ENDMDL
MODEL 6
REMARK VINA RESULT:     -10.3      1.466      2.052
REMARK  Name = 
REMARK  6 active torsions:
REMARK  status: ('A' for Active; 'I' for Inactive)
REMARK    1  A    between atoms: C_2  and  C_3
REMARK    2  A    between atoms: C_2  and  C_18
REMARK    3  A    between atoms: N_9  and  C_10
REMARK    4  A    between atoms: C_10  and  C_11
REMARK    5  A    between atoms: C_21  and  N_22
REMARK    6  A    between atoms: N_25  and  C_26
REMARK                            x       y       z     vdW  Elec       q    Type
REMARK                         _______ _______ _______ _____ _____    ______ ____
ROOT
ATOM      1  O   UNL     1      -2.043   3.213  23.466  0.00  0.00    -0.216 OA
ATOM      2  C   UNL     1      -1.876   2.533  23.903  0.00  0.00    +0.195 C 
ENDROOT
BRANCH   2   3
ATOM      3  C   UNL     1      -1.164   2.474  24.317  0.00  0.00    +0.140 C 
ATOM      4  C   UNL     1      -0.598   1.919  24.088  0.00  0.00    +0.165 C 
ATOM      5  O   UNL     1       0.112   1.860  24.501  0.00  0.00    -0.343 OA
ATOM      6  C   UNL     1       0.259   2.357  25.144  0.00  0.00    +0.227 C 
ATOM      7  C   UNL     1      -0.307   2.912  25.373  0.00  0.00    +0.256 C 
ATOM      8  O   UNL     1      -0.161   3.408  26.016  0.00  0.00    -0.272 OA
ATOM      9  N   UNL     1      -1.018   2.971  24.960  0.00  0.00    -0.270 N 
BRANCH   9  10
ATOM     10  C   UNL     1      -1.584   3.526  25.189  0.00  0.00    +0.123 C 
BRANCH  10  11
ATOM     11  C   UNL     1      -1.428   4.333  25.104  0.00  0.00    +0.025 A 
ATOM     12  C   UNL     1      -0.762   4.582  24.688  0.00  0.00    -0.000 A 
ATOM     13  C   UNL     1      -0.605   5.388  24.604  0.00  0.00    -0.000 A 
ATOM     14  C   UNL     1      -1.116   5.944  24.937  0.00  0.00    +0.002 A 
ATOM     15  C   UNL     1      -1.782   5.694  25.353  0.00  0.00    +0.029 A 
ATOM     16  C   UNL     1      -1.938   4.888  25.438  0.00  0.00    +0.138 A 
ATOM     17  F   UNL     1      -2.605   4.638  25.854  0.00  0.00    -0.204 F 
ENDBRANCH  10  11
ENDBRANCH   9  10
ENDBRANCH   2   3
BRANCH   2  18
ATOM     18  C   UNL     1      -2.419   1.913  23.928  0.00  0.00    +0.010 A 
ATOM     19  C   UNL     1      -2.548   1.451  23.255  0.00  0.00    -0.000 A 
ATOM     20  C   UNL     1      -3.091   0.831  23.280  0.00  0.00    +0.016 A 
ATOM     21  C   UNL     1      -3.506   0.672  23.975  0.00  0.00    +0.075 A 
ATOM     32  C   UNL     1      -3.377   1.135  24.647  0.00  0.00    +0.016 A 
ATOM     33  C   UNL     1      -2.834   1.754  24.623  0.00  0.00    -0.000 A 
BRANCH  21  22
ATOM     22  N   UNL     1      -4.050   0.052  23.999  0.00  0.00    -0.161 NA
ATOM     23  C   UNL     1      -3.789  -0.721  24.117  0.00  0.00    +0.348 C 
ATOM     24  O   UNL     1      -2.983  -0.875  24.211  0.00  0.00    -0.248 OA
ATOM     25  N   UNL     1      -4.333  -1.341  24.142  0.00  0.00    -0.161 NA
BRANCH  25  26
ATOM     26  C   UNL     1      -4.072  -2.114  24.260  0.00  0.00    +0.075 A 
ATOM     27  C   UNL     1      -4.168  -2.677  23.665  0.00  0.00    +0.017 A 
ATOM     28  C   UNL     1      -3.907  -3.451  23.783  0.00  0.00    +0.001 A 
ATOM     29  C   UNL     1      -3.550  -3.662  24.497  0.00  0.00    +0.000 A 
ATOM     30  C   UNL     1      -3.454  -3.098  25.092  0.00  0.00    +0.001 A 
ATOM     31  C   UNL     1      -3.715  -2.325  24.974  0.00  0.00    +0.017 A 
ENDBRANCH  25  26
ENDBRANCH  21  22
ENDBRANCH   2  18
TORSDOF 6
ENDMDL
