MODEL 1
REMARK VINA RESULT:     -11.9      0.000      0.000
REMARK  Name = 
REMARK  3 active torsions:
REMARK  status: ('A' for Active; 'I' for Inactive)
REMARK    1  A    between atoms: C_2  and  N_4
REMARK    2  A    between atoms: N_13  and  C_14
REMARK    3  A    between atoms: C_14  and  C_15
REMARK                            x       y       z     vdW  Elec       q    Type
REMARK                         _______ _______ _______ _____ _____    ______ ____
ROOT
ATOM      4  N   UNL     1      -2.005   4.133  25.120  0.00  0.00    -0.190 NA
ATOM      5  C   UNL     1      -1.976   3.355  24.849  0.00  0.00    +0.323 C 
ATOM      6  O   UNL     1      -1.277   3.054  24.531  0.00  0.00    -0.251 OA
ATOM      7  N   UNL     1      -2.647   2.876  24.897  0.00  0.00    -0.259 N 
ATOM      8  C   UNL     1      -3.346   3.176  25.216  0.00  0.00    +0.117 C 
ATOM      9  C   UNL     1      -4.016   2.698  25.263  0.00  0.00    +0.117 C 
ATOM     10  N   UNL     1      -3.988   1.919  24.993  0.00  0.00    -0.261 N 
ATOM     11  C   UNL     1      -3.289   1.619  24.674  0.00  0.00    +0.117 C 
ATOM     12  C   UNL     1      -3.425   0.836  24.453  0.00  0.00    +0.117 C 
ATOM     13  N   UNL     1      -4.208   0.653  24.635  0.00  0.00    -0.258 N 
ATOM     22  C   UNL     1      -4.556   1.322  24.968  0.00  0.00    +0.308 C 
ATOM     23  O   UNL     1      -5.335   1.384  25.232  0.00  0.00    -0.252 OA
ATOM     24  C   UNL     1      -2.618   2.097  24.626  0.00  0.00    +0.117 C 
ENDROOT
BRANCH   4   2
ATOM      1  C   UNL     1      -1.416   5.425  24.964  0.00  0.00    +0.023 C 
ATOM      2  C   UNL     1      -1.334   4.612  25.073  0.00  0.00    +0.097 C 
ATOM      3  C   UNL     1      -0.583   4.276  25.134  0.00  0.00    +0.023 C 
ENDBRANCH   4   2
BRANCH  13  14
ATOM     14  C   UNL     1      -4.579  -0.073  24.506  0.00  0.00    +0.122 C 
BRANCH  14  15
ATOM     15  C   UNL     1      -4.164  -0.776  24.626  0.00  0.00    -0.002 A 
ATOM     16  C   UNL     1      -3.915  -0.984  25.384  0.00  0.00    -0.000 A 
ATOM     17  C   UNL     1      -3.500  -1.688  25.503  0.00  0.00    +0.029 A 
ATOM     18  C   UNL     1      -3.334  -2.182  24.864  0.00  0.00    +0.140 A 
ATOM     19  F   UNL     1      -2.918  -2.885  24.983  0.00  0.00    -0.204 F 
ATOM     20  C   UNL     1      -3.582  -1.973  24.106  0.00  0.00    +0.029 A 
ATOM     21  C   UNL     1      -3.997  -1.270  23.986  0.00  0.00    -0.000 A 
ENDBRANCH  14  15
ENDBRANCH  13  14
TORSDOF 3
ENDMDL
MODEL 2
REMARK VINA RESULT:     -11.8      2.070      4.898
REMARK  Name = 
REMARK  3 active torsions:
REMARK  status: ('A' for Active; 'I' for Inactive)
REMARK    1  A    between atoms: C_2  and  N_4
REMARK    2  A    between atoms: N_13  and  C_14
REMARK    3  A    between atoms: C_14  and  C_15
REMARK                            x       y       z     vdW  Elec       q    Type
REMARK                         _______ _______ _______ _____ _____    ______ ____
ROOT
ATOM      4  N   UNL     1      -4.072  -1.382  24.671  0.00  0.00    -0.190 NA
ATOM      5  C   UNL     1      -3.622  -0.707  24.522  0.00  0.00    +0.323 C 
ATOM      6  O   UNL     1      -2.871  -0.777  24.189  0.00  0.00    -0.251 OA
ATOM      7  N   UNL     1      -3.924   0.039  24.707  0.00  0.00    -0.259 N 
ATOM      8  C   UNL     1      -4.675   0.109  25.041  0.00  0.00    +0.117 C 
ATOM      9  C   UNL     1      -4.976   0.853  25.225  0.00  0.00    +0.117 C 
ATOM     10  N   UNL     1      -4.527   1.529  25.077  0.00  0.00    -0.261 N 
ATOM     11  C   UNL     1      -3.775   1.459  24.743  0.00  0.00    +0.117 C 
ATOM     12  C   UNL     1      -3.462   2.217  24.660  0.00  0.00    +0.117 C 
ATOM     13  N   UNL     1      -4.019   2.756  24.942  0.00  0.00    -0.258 N 
ATOM     22  C   UNL     1      -4.677   2.330  25.199  0.00  0.00    +0.308 C 
ATOM     23  O   UNL     1      -5.365   2.651  25.523  0.00  0.00    -0.252 OA
ATOM     24  C   UNL     1      -3.474   0.713  24.558  0.00  0.00    +0.117 C 
ENDROOT
BRANCH   4   2
ATOM      1  C   UNL     1      -4.004  -2.506  23.791  0.00  0.00    +0.023 C 
ATOM      2  C   UNL     1      -3.770  -2.128  24.486  0.00  0.00    +0.097 C 
ATOM      3  C   UNL     1      -3.235  -2.495  24.995  0.00  0.00    +0.023 C 
ENDBRANCH   4   2
BRANCH  13  14
ATOM     14  C   UNL     1      -3.933   3.576  24.963  0.00  0.00    +0.122 C 
BRANCH  14  15
ATOM     15  C   UNL     1      -3.190   3.911  25.088  0.00  0.00    -0.002 A 
ATOM     16  C   UNL     1      -2.904   4.007  25.856  0.00  0.00    -0.000 A 
ATOM     17  C   UNL     1      -2.160   4.341  25.980  0.00  0.00    +0.029 A 
ATOM     18  C   UNL     1      -1.702   4.580  25.338  0.00  0.00    +0.140 A 
ATOM     19  F   UNL     1      -0.958   4.915  25.462  0.00  0.00    -0.204 F 
ATOM     20  C   UNL     1      -1.988   4.484  24.570  0.00  0.00    +0.029 A 
ATOM     21  C   UNL     1      -2.731   4.150  24.444  0.00  0.00    -0.000 A 
ENDBRANCH  14  15
ENDBRANCH  13  14
TORSDOF 3
ENDMDL
MODEL 3
REMARK VINA RESULT:     -11.6      2.439      5.427
REMARK  Name = 
REMARK  3 active torsions:
REMARK  status: ('A' for Active; 'I' for Inactive)
REMARK    1  A    between atoms: C_2  and  N_4
REMARK    2  A    between atoms: N_13  and  C_14
REMARK    3  A    between atoms: C_14  and  C_15
REMARK                            x       y       z     vdW  Elec       q    Type
REMARK                         _______ _______ _______ _____ _____    ______ ____
ROOT
ATOM      4  N   UNL     1      -2.862  -1.534  24.366  0.00  0.00    -0.190 NA
ATOM      5  C   UNL     1      -2.909  -0.815  24.767  0.00  0.00    +0.323 C 
ATOM      6  O   UNL     1      -3.606  -0.601  25.152  0.00  0.00    -0.251 OA
ATOM      7  N   UNL     1      -2.257  -0.308  24.783  0.00  0.00    -0.259 N 
ATOM      8  C   UNL     1      -1.559  -0.522  24.398  0.00  0.00    +0.117 C 
ATOM      9  C   UNL     1      -0.908  -0.016  24.414  0.00  0.00    +0.117 C 
ATOM     10  N   UNL     1      -0.954   0.704  24.815  0.00  0.00    -0.261 N 
ATOM     11  C   UNL     1      -1.652   0.917  25.200  0.00  0.00    +0.117 C 
ATOM     12  C   UNL     1      -1.535   1.656  25.547  0.00  0.00    +0.117 C 
ATOM     13  N   UNL     1      -0.766   1.899  25.377  0.00  0.00    -0.258 N 
ATOM     22  C   UNL     1      -0.407   1.311  24.925  0.00  0.00    +0.308 C 
ATOM     23  O   UNL     1       0.365   1.326  24.633  0.00  0.00    -0.252 OA
ATOM     24  C   UNL     1      -2.304   0.411  25.184  0.00  0.00    +0.117 C 
ENDROOT
BRANCH   4   2
ATOM      1  C   UNL     1      -3.525  -2.712  24.830  0.00  0.00    +0.023 C 
ATOM      2  C   UNL     1      -3.514  -2.040  24.351  0.00  0.00    +0.097 C 
ATOM      3  C   UNL     1      -4.153  -1.875  23.856  0.00  0.00    +0.023 C 
ENDBRANCH   4   2
BRANCH  13  14
ATOM     14  C   UNL     1      -0.417   2.607  25.618  0.00  0.00    +0.122 C 
BRANCH  14  15
ATOM     15  C   UNL     1      -0.792   3.325  25.466  0.00  0.00    -0.002 A 
ATOM     16  C   UNL     1      -1.434   3.561  25.927  0.00  0.00    -0.000 A 
ATOM     17  C   UNL     1      -1.809   4.280  25.775  0.00  0.00    +0.029 A 
ATOM     18  C   UNL     1      -1.543   4.763  25.162  0.00  0.00    +0.140 A 
ATOM     19  F   UNL     1      -1.918   5.482  25.009  0.00  0.00    -0.204 F 
ATOM     20  C   UNL     1      -0.901   4.527  24.701  0.00  0.00    +0.029 A 
ATOM     21  C   UNL     1      -0.525   3.809  24.852  0.00  0.00    -0.000 A 
ENDBRANCH  14  15
ENDBRANCH  13  14
TORSDOF 3
ENDMDL
MODEL 4
REMARK VINA RESULT:     -11.1      1.675      2.132
REMARK  Name = 
REMARK  3 active torsions:
REMARK  status: ('A' for Active; 'I' for Inactive)
REMARK    1  A    between atoms: C_2  and  N_4
REMARK    2  A    between atoms: N_13  and  C_14
REMARK    3  A    between atoms: C_14  and  C_15
REMARK                            x       y       z     vdW  Elec       q    Type
REMARK                         _______ _______ _______ _____ _____    ______ ____
ROOT
ATOM      4  N   UNL     1      -0.767   3.227  24.887  0.00  0.00    -0.190 NA
ATOM      5  C   UNL     1      -1.462   2.786  24.838  0.00  0.00    +0.323 C 
ATOM      6  O   UNL     1      -2.153   3.134  24.554  0.00  0.00    -0.251 OA
ATOM      7  N   UNL     1      -1.464   1.995  25.074  0.00  0.00    -0.259 N 
ATOM      8  C   UNL     1      -0.773   1.646  25.358  0.00  0.00    +0.117 C 
ATOM      9  C   UNL     1      -0.776   0.856  25.594  0.00  0.00    +0.117 C 
ATOM     10  N   UNL     1      -1.470   0.413  25.546  0.00  0.00    -0.261 N 
ATOM     11  C   UNL     1      -2.162   0.762  25.262  0.00  0.00    +0.117 C 
ATOM     12  C   UNL     1      -2.759   0.193  25.277  0.00  0.00    +0.117 C 
ATOM     13  N   UNL     1      -2.436  -0.507  25.570  0.00  0.00    -0.258 N 
ATOM     22  C   UNL     1      -1.640  -0.370  25.736  0.00  0.00    +0.308 C 
ATOM     23  O   UNL     1      -1.107  -0.922  26.040  0.00  0.00    -0.252 OA
ATOM     24  C   UNL     1      -2.159   1.553  25.026  0.00  0.00    +0.117 C 
ENDROOT
BRANCH   4   2
ATOM      1  C   UNL     1      -0.437   4.230  23.923  0.00  0.00    +0.023 C 
ATOM      2  C   UNL     1      -0.764   4.019  24.651  0.00  0.00    +0.097 C 
ATOM      3  C   UNL     1      -1.087   4.597  25.142  0.00  0.00    +0.023 C 
ENDBRANCH   4   2
BRANCH  13  14
ATOM     14  C   UNL     1      -2.839  -1.219  25.678  0.00  0.00    +0.122 C 
BRANCH  14  15
ATOM     15  C   UNL     1      -3.268  -1.550  25.056  0.00  0.00    -0.002 A 
ATOM     16  C   UNL     1      -3.964  -1.191  24.797  0.00  0.00    -0.000 A 
ATOM     17  C   UNL     1      -4.391  -1.523  24.174  0.00  0.00    +0.029 A 
ATOM     18  C   UNL     1      -4.123  -2.213  23.811  0.00  0.00    +0.140 A 
ATOM     19  F   UNL     1      -4.551  -2.545  23.188  0.00  0.00    -0.204 F 
ATOM     20  C   UNL     1      -3.427  -2.572  24.070  0.00  0.00    +0.029 A 
ATOM     21  C   UNL     1      -2.999  -2.241  24.693  0.00  0.00    -0.000 A 
ENDBRANCH  14  15
ENDBRANCH  13  14
TORSDOF 3
ENDMDL
