MODEL 1
REMARK VINA RESULT:     -11.1      0.000      0.000
REMARK  Name = 
REMARK  7 active torsions:
REMARK  status: ('A' for Active; 'I' for Inactive)
REMARK    1  A    between atoms: C_2  and  C_5
REMARK    2  A    between atoms: N_11  and  C_12
REMARK    3  A    between atoms: N_11  and  C_19
REMARK    4  A    between atoms: C_12  and  C_13
REMARK    5  A    between atoms: C_23  and  O_27
REMARK    6  A    between atoms: O_27  and  C_28
REMARK    7  A    between atoms: C_28  and  C_29
REMARK                            x       y       z     vdW  Elec       q    Type
REMARK                         _______ _______ _______ _____ _____    ______ ____
ROOT
ATOM      5  C   UNL     1      -4.846   2.291  24.979  0.00  0.00    +0.063 A 
ATOM      6  C   UNL     1      -4.691   2.898  24.442  0.00  0.00    +0.035 A 
ATOM      7  C   UNL     1      -4.016   2.869  23.969  0.00  0.00    +0.103 A 
ATOM      8  N   UNL     1      -3.495   2.232  24.033  0.00  0.00    -0.212 NA
ATOM      9  C   UNL     1      -3.650   1.625  24.570  0.00  0.00    +0.220 A 
ATOM     10  N   UNL     1      -4.325   1.655  25.043  0.00  0.00    -0.218 NA
ATOM     11  N   UNL     1      -3.129   0.988  24.634  0.00  0.00    -0.271 N 
ENDROOT
BRANCH  11  19
ATOM     19  C   UNL     1      -2.453   0.959  24.161  0.00  0.00    +0.135 C 
ATOM     20  C   UNL     1      -2.439   0.861  23.342  0.00  0.00    +0.164 C 
ATOM     21  O   UNL     1      -1.651   0.863  23.100  0.00  0.00    -0.349 OA
ATOM     22  C   UNL     1      -1.178   0.963  23.767  0.00  0.00    +0.173 C 
ATOM     23  C   UNL     1      -0.399   1.026  24.032  0.00  0.00    +0.175 C 
ATOM     24  C   UNL     1      -0.413   1.123  24.850  0.00  0.00    +0.174 C 
ATOM     25  O   UNL     1      -1.201   1.121  25.093  0.00  0.00    -0.349 OA
ATOM     26  C   UNL     1      -1.674   1.021  24.424  0.00  0.00    +0.165 C 
BRANCH  23  27
ATOM     27  O   UNL     1       0.277   0.996  23.559  0.00  0.00    -0.346 OA
BRANCH  27  28
ATOM     28  C   UNL     1       0.896   0.488  23.756  0.00  0.00    +0.169 C 
BRANCH  28  29
ATOM     29  C   UNL     1       1.546   0.415  23.252  0.00  0.00    +0.007 A 
ATOM     30  C   UNL     1       1.521  -0.118  22.622  0.00  0.00    -0.002 A 
ATOM     31  C   UNL     1       2.170  -0.192  22.118  0.00  0.00    -0.000 A 
ATOM     32  C   UNL     1       2.844   0.268  22.244  0.00  0.00    -0.000 A 
ATOM     33  C   UNL     1       2.868   0.799  22.874  0.00  0.00    -0.000 A 
ATOM     34  C   UNL     1       2.219   0.874  23.378  0.00  0.00    -0.002 A 
ENDBRANCH  28  29
ENDBRANCH  27  28
ENDBRANCH  23  27
ENDBRANCH  11  19
BRANCH   5   2
ATOM      1  C   UNL     1      -6.197   2.351  25.925  0.00  0.00    +0.006 C 
ATOM      2  C   UNL     1      -5.521   2.321  25.451  0.00  0.00    +0.036 C 
ATOM      3  C   UNL     1      -5.093   2.712  26.038  0.00  0.00    +0.006 C 
ATOM      4  C   UNL     1      -5.950   1.930  24.864  0.00  0.00    +0.006 C 
ENDBRANCH   5   2
BRANCH  11  12
ATOM     12  C   UNL     1      -3.284   0.381  25.171  0.00  0.00    +0.120 C 
BRANCH  12  13
ATOM     13  C   UNL     1      -3.528  -0.358  24.899  0.00  0.00    -0.002 A 
ATOM     14  C   UNL     1      -3.297  -1.041  25.301  0.00  0.00    -0.003 A 
ATOM     15  C   UNL     1      -3.542  -1.782  25.029  0.00  0.00    -0.000 A 
ATOM     16  C   UNL     1      -4.016  -1.838  24.355  0.00  0.00    -0.000 A 
ATOM     17  C   UNL     1      -4.245  -1.155  23.955  0.00  0.00    -0.000 A 
ATOM     18  C   UNL     1      -4.002  -0.415  24.226  0.00  0.00    -0.003 A 
ENDBRANCH  12  13
ENDBRANCH  11  12
TORSDOF 7
ENDMDL
MODEL 2
REMARK VINA RESULT:     -10.1      1.703      3.222
REMARK  Name = 
REMARK  7 active torsions:
REMARK  status: ('A' for Active; 'I' for Inactive)
REMARK    1  A    between atoms: C_2  and  C_5
REMARK    2  A    between atoms: N_11  and  C_12
REMARK    3  A    between atoms: N_11  and  C_19
REMARK    4  A    between atoms: C_12  and  C_13
REMARK    5  A    between atoms: C_23  and  O_27
REMARK    6  A    between atoms: O_27  and  C_28
REMARK    7  A    between atoms: C_28  and  C_29
REMARK                            x       y       z     vdW  Elec       q    Type
REMARK                         _______ _______ _______ _____ _____    ______ ____
ROOT
ATOM      5  C   UNL     1      -2.698  -0.857  24.991  0.00  0.00    +0.063 A 
ATOM      6  C   UNL     1      -2.203  -1.206  25.551  0.00  0.00    +0.035 A 
ATOM      7  C   UNL     1      -1.402  -1.007  25.575  0.00  0.00    +0.103 A 
ATOM      8  N   UNL     1      -1.097  -0.458  25.039  0.00  0.00    -0.212 NA
ATOM      9  C   UNL     1      -1.593  -0.110  24.479  0.00  0.00    +0.220 A 
ATOM     10  N   UNL     1      -2.393  -0.309  24.455  0.00  0.00    -0.218 NA
ATOM     11  N   UNL     1      -1.288   0.438  23.943  0.00  0.00    -0.271 N 
ENDROOT
BRANCH  11  19
ATOM     19  C   UNL     1      -0.487   0.638  23.967  0.00  0.00    +0.135 C 
ATOM     20  C   UNL     1      -0.129   1.141  24.513  0.00  0.00    +0.164 C 
ATOM     21  O   UNL     1       0.675   1.182  24.332  0.00  0.00    -0.349 OA
ATOM     22  C   UNL     1       0.813   0.705  23.674  0.00  0.00    +0.173 C 
ATOM     23  C   UNL     1       1.395   0.435  23.155  0.00  0.00    +0.175 C 
ATOM     24  C   UNL     1       1.037  -0.068  22.609  0.00  0.00    +0.174 C 
ATOM     25  O   UNL     1       0.233  -0.109  22.790  0.00  0.00    -0.349 OA
ATOM     26  C   UNL     1       0.095   0.369  23.448  0.00  0.00    +0.165 C 
BRANCH  23  27
ATOM     27  O   UNL     1       2.196   0.635  23.179  0.00  0.00    -0.346 OA
BRANCH  27  28
ATOM     28  C   UNL     1       2.747   0.175  22.773  0.00  0.00    +0.169 C 
BRANCH  28  29
ATOM     29  C   UNL     1       3.549   0.231  22.960  0.00  0.00    +0.007 A 
ATOM     30  C   UNL     1       3.937  -0.407  23.311  0.00  0.00    -0.002 A 
ATOM     31  C   UNL     1       4.739  -0.351  23.498  0.00  0.00    -0.000 A 
ATOM     32  C   UNL     1       5.152   0.345  23.334  0.00  0.00    -0.000 A 
ATOM     33  C   UNL     1       4.764   0.982  22.983  0.00  0.00    -0.000 A 
ATOM     34  C   UNL     1       3.962   0.926  22.796  0.00  0.00    -0.002 A 
ENDBRANCH  28  29
ENDBRANCH  27  28
ENDBRANCH  23  27
ENDBRANCH  11  19
BRANCH   5   2
ATOM      1  C   UNL     1      -4.298  -1.255  24.944  0.00  0.00    +0.006 C 
ATOM      2  C   UNL     1      -3.498  -1.056  24.968  0.00  0.00    +0.036 C 
ATOM      3  C   UNL     1      -3.634  -0.586  25.631  0.00  0.00    +0.006 C 
ATOM      4  C   UNL     1      -3.361  -1.526  24.303  0.00  0.00    +0.006 C 
ENDBRANCH   5   2
BRANCH  11  12
ATOM     12  C   UNL     1      -1.783   0.787  23.383  0.00  0.00    +0.120 C 
BRANCH  12  13
ATOM     13  C   UNL     1      -2.142   1.513  23.544  0.00  0.00    -0.002 A 
ATOM     14  C   UNL     1      -2.725   1.804  23.039  0.00  0.00    -0.003 A 
ATOM     15  C   UNL     1      -3.085   2.530  23.199  0.00  0.00    -0.000 A 
ATOM     16  C   UNL     1      -2.860   2.963  23.865  0.00  0.00    -0.000 A 
ATOM     17  C   UNL     1      -2.277   2.671  24.369  0.00  0.00    -0.000 A 
ATOM     18  C   UNL     1      -1.918   1.946  24.209  0.00  0.00    -0.003 A 
ENDBRANCH  12  13
ENDBRANCH  11  12
TORSDOF 7
ENDMDL
MODEL 3
REMARK VINA RESULT:      -9.5      1.408      2.589
REMARK  Name = 
REMARK  7 active torsions:
REMARK  status: ('A' for Active; 'I' for Inactive)
REMARK    1  A    between atoms: C_2  and  C_5
REMARK    2  A    between atoms: N_11  and  C_12
REMARK    3  A    between atoms: N_11  and  C_19
REMARK    4  A    between atoms: C_12  and  C_13
REMARK    5  A    between atoms: C_23  and  O_27
REMARK    6  A    between atoms: O_27  and  C_28
REMARK    7  A    between atoms: C_28  and  C_29
REMARK                            x       y       z     vdW  Elec       q    Type
REMARK                         _______ _______ _______ _____ _____    ______ ____
ROOT
ATOM      5  C   UNL     1      -4.719   2.164  25.062  0.00  0.00    +0.063 A 
ATOM      6  C   UNL     1      -4.953   1.735  24.397  0.00  0.00    +0.035 A 
ATOM      7  C   UNL     1      -4.387   1.472  23.856  0.00  0.00    +0.103 A 
ATOM      8  N   UNL     1      -3.589   1.638  23.980  0.00  0.00    -0.212 NA
ATOM      9  C   UNL     1      -3.356   2.068  24.645  0.00  0.00    +0.220 A 
ATOM     10  N   UNL     1      -3.921   2.330  25.186  0.00  0.00    -0.218 NA
ATOM     11  N   UNL     1      -2.557   2.235  24.769  0.00  0.00    -0.271 N 
ENDROOT
BRANCH  11  19
ATOM     19  C   UNL     1      -1.992   1.972  24.228  0.00  0.00    +0.135 C 
ATOM     20  C   UNL     1      -1.862   2.281  23.475  0.00  0.00    +0.164 C 
ATOM     21  O   UNL     1      -1.248   1.854  23.128  0.00  0.00    -0.349 OA
ATOM     22  C   UNL     1      -0.998   1.282  23.665  0.00  0.00    +0.173 C 
ATOM     23  C   UNL     1      -0.464   0.664  23.785  0.00  0.00    +0.175 C 
ATOM     24  C   UNL     1      -0.595   0.355  24.538  0.00  0.00    +0.174 C 
ATOM     25  O   UNL     1      -1.209   0.782  24.885  0.00  0.00    -0.349 OA
ATOM     26  C   UNL     1      -1.458   1.355  24.346  0.00  0.00    +0.165 C 
BRANCH  23  27
ATOM     27  O   UNL     1       0.101   0.401  23.244  0.00  0.00    -0.346 OA
BRANCH  27  28
ATOM     28  C   UNL     1       0.825   0.112  23.512  0.00  0.00    +0.169 C 
BRANCH  28  29
ATOM     29  C   UNL     1       1.476   0.092  23.004  0.00  0.00    +0.007 A 
ATOM     30  C   UNL     1       1.424  -0.305  22.283  0.00  0.00    -0.002 A 
ATOM     31  C   UNL     1       2.073  -0.325  21.775  0.00  0.00    -0.000 A 
ATOM     32  C   UNL     1       2.776   0.053  21.989  0.00  0.00    -0.000 A 
ATOM     33  C   UNL     1       2.827   0.450  22.710  0.00  0.00    -0.000 A 
ATOM     34  C   UNL     1       2.177   0.470  23.218  0.00  0.00    -0.002 A 
ENDBRANCH  28  29
ENDBRANCH  27  28
ENDBRANCH  23  27
ENDBRANCH  11  19
BRANCH   5   2
ATOM      1  C   UNL     1      -5.850   2.689  26.143  0.00  0.00    +0.006 C 
ATOM      2  C   UNL     1      -5.284   2.426  25.602  0.00  0.00    +0.036 C 
ATOM      3  C   UNL     1      -5.224   1.713  26.011  0.00  0.00    +0.006 C 
ATOM      4  C   UNL     1      -5.345   3.140  25.192  0.00  0.00    +0.006 C 
ENDBRANCH   5   2
BRANCH  11  12
ATOM     12  C   UNL     1      -2.324   2.664  25.434  0.00  0.00    +0.120 C 
BRANCH  12  13
ATOM     13  C   UNL     1      -2.041   3.434  25.350  0.00  0.00    -0.002 A 
ATOM     14  C   UNL     1      -1.280   3.623  25.604  0.00  0.00    -0.003 A 
ATOM     15  C   UNL     1      -0.996   4.394  25.520  0.00  0.00    -0.000 A 
ATOM     16  C   UNL     1      -1.475   4.975  25.181  0.00  0.00    -0.000 A 
ATOM     17  C   UNL     1      -2.236   4.785  24.927  0.00  0.00    -0.000 A 
ATOM     18  C   UNL     1      -2.520   4.015  25.011  0.00  0.00    -0.003 A 
ENDBRANCH  12  13
ENDBRANCH  11  12
TORSDOF 7
ENDMDL
MODEL 4
REMARK VINA RESULT:      -9.3      2.491      4.686
REMARK  Name = 
REMARK  7 active torsions:
REMARK  status: ('A' for Active; 'I' for Inactive)
REMARK    1  A    between atoms: C_2  and  C_5
REMARK    2  A    between atoms: N_11  and  C_12
REMARK    3  A    between atoms: N_11  and  C_19
REMARK    4  A    between atoms: C_12  and  C_13
REMARK    5  A    between atoms: C_23  and  O_27
REMARK    6  A    between atoms: O_27  and  C_28
REMARK    7  A    between atoms: C_28  and  C_29
REMARK                            x       y       z     vdW  Elec       q    Type
REMARK                         _______ _______ _______ _____ _____    ______ ____
ROOT
ATOM      5  C   UNL     1      -1.162   4.070  24.946  0.00  0.00    +0.063 A 
ATOM      6  C   UNL     1      -0.610   3.535  25.244  0.00  0.00    +0.035 A 
ATOM      7  C   UNL     1      -0.822   2.746  25.363  0.00  0.00    +0.103 A 
ATOM      8  N   UNL     1      -1.587   2.493  25.183  0.00  0.00    -0.212 NA
ATOM      9  C   UNL     1      -2.139   3.029  24.886  0.00  0.00    +0.220 A 
ATOM     10  N   UNL     1      -1.927   3.817  24.767  0.00  0.00    -0.218 NA
ATOM     11  N   UNL     1      -2.904   2.776  24.706  0.00  0.00    -0.271 N 
ENDROOT
BRANCH  11  19
ATOM     19  C   UNL     1      -3.116   1.987  24.825  0.00  0.00    +0.135 C 
ATOM     20  C   UNL     1      -3.254   1.627  25.554  0.00  0.00    +0.164 C 
ATOM     21  O   UNL     1      -3.451   0.838  25.414  0.00  0.00    -0.349 OA
ATOM     22  C   UNL     1      -3.434   0.710  24.600  0.00  0.00    +0.173 C 
ATOM     23  C   UNL     1      -3.544   0.145  24.010  0.00  0.00    +0.175 C 
ATOM     24  C   UNL     1      -3.406   0.505  23.281  0.00  0.00    +0.174 C 
ATOM     25  O   UNL     1      -3.209   1.294  23.421  0.00  0.00    -0.349 OA
ATOM     26  C   UNL     1      -3.227   1.421  24.236  0.00  0.00    +0.165 C 
BRANCH  23  27
ATOM     27  O   UNL     1      -3.756  -0.644  24.129  0.00  0.00    -0.346 OA
BRANCH  27  28
ATOM     28  C   UNL     1      -3.292  -1.248  23.813  0.00  0.00    +0.169 C 
BRANCH  28  29
ATOM     29  C   UNL     1      -3.407  -2.028  24.057  0.00  0.00    +0.007 A 
ATOM     30  C   UNL     1      -2.851  -2.393  24.545  0.00  0.00    -0.002 A 
ATOM     31  C   UNL     1      -2.965  -3.173  24.790  0.00  0.00    -0.000 A 
ATOM     32  C   UNL     1      -3.637  -3.587  24.546  0.00  0.00    -0.000 A 
ATOM     33  C   UNL     1      -4.192  -3.221  24.059  0.00  0.00    -0.000 A 
ATOM     34  C   UNL     1      -4.078  -2.441  23.814  0.00  0.00    -0.002 A 
ENDBRANCH  28  29
ENDBRANCH  27  28
ENDBRANCH  23  27
ENDBRANCH  11  19
BRANCH   5   2
ATOM      1  C   UNL     1      -0.737   5.647  24.709  0.00  0.00    +0.006 C 
ATOM      2  C   UNL     1      -0.950   4.858  24.828  0.00  0.00    +0.036 C 
ATOM      3  C   UNL     1      -0.560   4.648  24.132  0.00  0.00    +0.006 C 
ATOM      4  C   UNL     1      -1.340   5.068  25.524  0.00  0.00    +0.006 C 
ENDBRANCH   5   2
BRANCH  11  12
ATOM     12  C   UNL     1      -3.456   3.311  24.409  0.00  0.00    +0.120 C 
BRANCH  12  13
ATOM     13  C   UNL     1      -4.107   3.530  24.866  0.00  0.00    -0.002 A 
ATOM     14  C   UNL     1      -4.860   3.541  24.530  0.00  0.00    -0.003 A 
ATOM     15  C   UNL     1      -5.513   3.760  24.987  0.00  0.00    -0.000 A 
ATOM     16  C   UNL     1      -5.409   3.968  25.780  0.00  0.00    -0.000 A 
ATOM     17  C   UNL     1      -4.656   3.957  26.114  0.00  0.00    -0.000 A 
ATOM     18  C   UNL     1      -4.004   3.738  25.658  0.00  0.00    -0.003 A 
ENDBRANCH  12  13
ENDBRANCH  11  12
TORSDOF 7
ENDMDL
