MODEL 1
REMARK VINA RESULT:     -11.0      0.000      0.000
REMARK  Name = 
REMARK  7 active torsions:
REMARK  status: ('A' for Active; 'I' for Inactive)
REMARK    1  A    between atoms: O_2  and  C_3
REMARK    2  A    between atoms: C_6  and  C_7
REMARK    3  A    between atoms: C_7  and  N_8
REMARK    4  A    between atoms: N_8  and  C_9
REMARK    5  A    between atoms: C_9  and  C_10
REMARK    6  A    between atoms: C_10  and  C_11
REMARK    7  A    between atoms: C_14  and  C_16
REMARK                            x       y       z     vdW  Elec       q    Type
REMARK                         _______ _______ _______ _____ _____    ______ ____
ROOT
ATOM      9  C   UNL     1      -5.087   1.967  25.083  0.00  0.00    +0.120 C 
ATOM     24  C   UNL     1      -5.470   2.466  25.618  0.00  0.00    +0.161 C 
ATOM     25  O   UNL     1      -6.179   2.065  25.483  0.00  0.00    -0.351 OA
ATOM     26  C   UNL     1      -5.796   1.567  24.949  0.00  0.00    +0.161 C 
ENDROOT
BRANCH   9   8
ATOM      8  N   UNL     1      -4.378   2.368  25.218  0.00  0.00    -0.211 NA
BRANCH   8   7
ATOM      7  C   UNL     1      -4.360   3.192  25.192  0.00  0.00    +0.115 C 
BRANCH   7   6
ATOM      3  C   UNL     1      -2.198   4.386  25.356  0.00  0.00    +0.139 A 
ATOM      4  C   UNL     1      -2.598   4.162  26.042  0.00  0.00    +0.037 A 
ATOM      5  C   UNL     1      -3.319   3.764  25.987  0.00  0.00    +0.000 A 
ATOM      6  C   UNL     1      -3.639   3.590  25.247  0.00  0.00    -0.005 A 
ATOM     27  C   UNL     1      -3.239   3.815  24.561  0.00  0.00    +0.000 A 
ATOM     28  C   UNL     1      -2.519   4.212  24.616  0.00  0.00    +0.037 A 
BRANCH   3   2
ATOM      1  C   UNL     1      -0.812   4.487  25.024  0.00  0.00    +0.252 C 
ATOM      2  O   UNL     1      -1.478   4.784  25.411  0.00  0.00    -0.471 OA
ENDBRANCH   3   2
ENDBRANCH   7   6
ENDBRANCH   8   7
ENDBRANCH   9   8
BRANCH   9  10
ATOM     10  C   UNL     1      -4.704   1.469  24.549  0.00  0.00    +0.070 C 
BRANCH  10  11
ATOM     11  C   UNL     1      -4.486   0.707  24.780  0.00  0.00    +0.102 A 
ATOM     12  N   UNL     1      -4.529   0.401  25.544  0.00  0.00    -0.081 NA
ATOM     13  O   UNL     1      -4.257  -0.377  25.523  0.00  0.00    -0.349 OA
ATOM     14  C   UNL     1      -4.045  -0.552  24.745  0.00  0.00    +0.230 A 
ATOM     15  C   UNL     1      -4.186   0.118  24.285  0.00  0.00    +0.063 A 
BRANCH  14  16
ATOM     16  C   UNL     1      -3.744  -1.271  24.473  0.00  0.00    +0.286 C 
ATOM     17  O   UNL     1      -4.229  -1.789  24.052  0.00  0.00    -0.266 OA
ATOM     18  N   UNL     1      -2.958  -1.471  24.623  0.00  0.00    -0.274 N 
ATOM     19  C   UNL     1      -2.473  -0.953  25.044  0.00  0.00    +0.094 C 
ATOM     20  C   UNL     1      -1.687  -1.154  25.193  0.00  0.00    +0.022 C 
ATOM     21  C   UNL     1      -1.385  -1.873  24.922  0.00  0.00    +0.004 C 
ATOM     22  C   UNL     1      -1.870  -2.391  24.501  0.00  0.00    +0.022 C 
ATOM     23  C   UNL     1      -2.656  -2.189  24.352  0.00  0.00    +0.094 C 
ENDBRANCH  14  16
ENDBRANCH  10  11
ENDBRANCH   9  10
TORSDOF 7
ENDMDL
MODEL 2
REMARK VINA RESULT:     -10.8      1.261      4.413
REMARK  Name = 
REMARK  7 active torsions:
REMARK  status: ('A' for Active; 'I' for Inactive)
REMARK    1  A    between atoms: O_2  and  C_3
REMARK    2  A    between atoms: C_6  and  C_7
REMARK    3  A    between atoms: C_7  and  N_8
REMARK    4  A    between atoms: N_8  and  C_9
REMARK    5  A    between atoms: C_9  and  C_10
REMARK    6  A    between atoms: C_10  and  C_11
REMARK    7  A    between atoms: C_14  and  C_16
REMARK                            x       y       z     vdW  Elec       q    Type
REMARK                         _______ _______ _______ _____ _____    ______ ____
ROOT
ATOM      9  C   UNL     1      -5.011   1.749  24.974  0.00  0.00    +0.120 C 
ATOM     24  C   UNL     1      -5.557   1.327  25.428  0.00  0.00    +0.161 C 
ATOM     25  O   UNL     1      -6.062   1.979  25.425  0.00  0.00    -0.351 OA
ATOM     26  C   UNL     1      -5.517   2.400  24.972  0.00  0.00    +0.161 C 
ENDROOT
BRANCH   9   8
ATOM      8  N   UNL     1      -4.506   1.096  24.977  0.00  0.00    -0.211 NA
BRANCH   8   7
ATOM      7  C   UNL     1      -4.813   0.337  24.875  0.00  0.00    +0.115 C 
BRANCH   7   6
ATOM      3  C   UNL     1      -3.284  -1.601  24.700  0.00  0.00    +0.139 A 
ATOM      4  C   UNL     1      -3.373  -1.210  25.421  0.00  0.00    +0.037 A 
ATOM      5  C   UNL     1      -3.883  -0.565  25.479  0.00  0.00    +0.000 A 
ATOM      6  C   UNL     1      -4.303  -0.309  24.817  0.00  0.00    -0.005 A 
ATOM     27  C   UNL     1      -4.214  -0.699  24.096  0.00  0.00    +0.000 A 
ATOM     28  C   UNL     1      -3.704  -1.345  24.037  0.00  0.00    +0.037 A 
BRANCH   3   2
ATOM      1  C   UNL     1      -1.958  -2.127  24.631  0.00  0.00    +0.252 C 
ATOM      2  O   UNL     1      -2.774  -2.247  24.642  0.00  0.00    -0.471 OA
ENDBRANCH   3   2
ENDBRANCH   7   6
ENDBRANCH   8   7
ENDBRANCH   9   8
BRANCH   9  10
ATOM     10  C   UNL     1      -4.466   2.170  24.521  0.00  0.00    +0.070 C 
BRANCH  10  11
ATOM     11  C   UNL     1      -3.928   2.677  24.889  0.00  0.00    +0.102 A 
ATOM     12  N   UNL     1      -4.033   3.048  25.618  0.00  0.00    -0.081 NA
ATOM     13  O   UNL     1      -3.361   3.501  25.772  0.00  0.00    -0.349 OA
ATOM     14  C   UNL     1      -2.840   3.409  25.138  0.00  0.00    +0.230 A 
ATOM     15  C   UNL     1      -3.191   2.900  24.592  0.00  0.00    +0.063 A 
BRANCH  14  16
ATOM     16  C   UNL     1      -2.100   3.765  25.062  0.00  0.00    +0.286 C 
ATOM     17  O   UNL     1      -2.035   4.518  24.731  0.00  0.00    -0.266 OA
ATOM     18  N   UNL     1      -1.424   3.367  25.318  0.00  0.00    -0.274 N 
ATOM     19  C   UNL     1      -1.489   2.614  25.649  0.00  0.00    +0.094 C 
ATOM     20  C   UNL     1      -0.813   2.217  25.905  0.00  0.00    +0.022 C 
ATOM     21  C   UNL     1      -0.071   2.572  25.830  0.00  0.00    +0.004 C 
ATOM     22  C   UNL     1      -0.006   3.324  25.499  0.00  0.00    +0.022 C 
ATOM     23  C   UNL     1      -0.683   3.722  25.243  0.00  0.00    +0.094 C 
ENDBRANCH  14  16
ENDBRANCH  10  11
ENDBRANCH   9  10
TORSDOF 7
ENDMDL
MODEL 3
REMARK VINA RESULT:     -10.7      1.810      3.244
REMARK  Name = 
REMARK  7 active torsions:
REMARK  status: ('A' for Active; 'I' for Inactive)
REMARK    1  A    between atoms: O_2  and  C_3
REMARK    2  A    between atoms: C_6  and  C_7
REMARK    3  A    between atoms: C_7  and  N_8
REMARK    4  A    between atoms: N_8  and  C_9
REMARK    5  A    between atoms: C_9  and  C_10
REMARK    6  A    between atoms: C_10  and  C_11
REMARK    7  A    between atoms: C_14  and  C_16
REMARK                            x       y       z     vdW  Elec       q    Type
REMARK                         _______ _______ _______ _____ _____    ______ ____
ROOT
ATOM      9  C   UNL     1      -0.747   2.134  24.839  0.00  0.00    +0.120 C 
ATOM     24  C   UNL     1      -0.608   2.793  24.361  0.00  0.00    +0.161 C 
ATOM     25  O   UNL     1       0.195   2.607  24.339  0.00  0.00    -0.351 OA
ATOM     26  C   UNL     1       0.057   1.948  24.816  0.00  0.00    +0.161 C 
ENDROOT
BRANCH   9   8
ATOM      8  N   UNL     1      -1.551   2.320  24.861  0.00  0.00    -0.211 NA
BRANCH   8   7
ATOM      7  C   UNL     1      -1.789   3.106  24.937  0.00  0.00    +0.115 C 
BRANCH   7   6
ATOM      3  C   UNL     1      -4.182   3.646  25.268  0.00  0.00    +0.139 A 
ATOM      4  C   UNL     1      -3.926   3.330  24.550  0.00  0.00    +0.037 A 
ATOM      5  C   UNL     1      -3.129   3.151  24.440  0.00  0.00    +0.000 A 
ATOM      6  C   UNL     1      -2.587   3.286  25.047  0.00  0.00    -0.005 A 
ATOM     27  C   UNL     1      -2.843   3.601  25.765  0.00  0.00    +0.000 A 
ATOM     28  C   UNL     1      -3.640   3.781  25.876  0.00  0.00    +0.037 A 
BRANCH   3   2
ATOM      1  C   UNL     1      -5.504   3.237  25.624  0.00  0.00    +0.252 C 
ATOM      2  O   UNL     1      -4.980   3.825  25.378  0.00  0.00    -0.471 OA
ENDBRANCH   3   2
ENDBRANCH   7   6
ENDBRANCH   8   7
ENDBRANCH   9   8
BRANCH   9  10
ATOM     10  C   UNL     1      -0.886   1.475  25.315  0.00  0.00    +0.070 C 
BRANCH  10  11
ATOM     11  C   UNL     1      -0.995   0.733  24.971  0.00  0.00    +0.102 A 
ATOM     12  N   UNL     1      -0.753   0.509  24.216  0.00  0.00    -0.081 NA
ATOM     13  O   UNL     1      -0.974  -0.278  24.100  0.00  0.00    -0.349 OA
ATOM     14  C   UNL     1      -1.353  -0.539  24.785  0.00  0.00    +0.230 A 
ATOM     15  C   UNL     1      -1.366   0.086  25.324  0.00  0.00    +0.063 A 
BRANCH  14  16
ATOM     16  C   UNL     1      -1.665  -1.293  24.910  0.00  0.00    +0.286 C 
ATOM     17  O   UNL     1      -1.198  -1.881  25.253  0.00  0.00    -0.266 OA
ATOM     18  N   UNL     1      -2.443  -1.459  24.693  0.00  0.00    -0.274 N 
ATOM     19  C   UNL     1      -2.909  -0.871  24.350  0.00  0.00    +0.094 C 
ATOM     20  C   UNL     1      -3.687  -1.037  24.132  0.00  0.00    +0.022 C 
ATOM     21  C   UNL     1      -4.000  -1.790  24.257  0.00  0.00    +0.004 C 
ATOM     22  C   UNL     1      -3.533  -2.378  24.600  0.00  0.00    +0.022 C 
ATOM     23  C   UNL     1      -2.755  -2.212  24.817  0.00  0.00    +0.094 C 
ENDBRANCH  14  16
ENDBRANCH  10  11
ENDBRANCH   9  10
TORSDOF 7
ENDMDL
MODEL 4
REMARK VINA RESULT:      -9.9      1.812      5.392
REMARK  Name = 
REMARK  7 active torsions:
REMARK  status: ('A' for Active; 'I' for Inactive)
REMARK    1  A    between atoms: O_2  and  C_3
REMARK    2  A    between atoms: C_6  and  C_7
REMARK    3  A    between atoms: C_7  and  N_8
REMARK    4  A    between atoms: N_8  and  C_9
REMARK    5  A    between atoms: C_9  and  C_10
REMARK    6  A    between atoms: C_10  and  C_11
REMARK    7  A    between atoms: C_14  and  C_16
REMARK                            x       y       z     vdW  Elec       q    Type
REMARK                         _______ _______ _______ _____ _____    ______ ____
ROOT
ATOM      9  C   UNL     1      -0.686   0.921  24.601  0.00  0.00    +0.120 C 
ATOM     24  C   UNL     1      -0.296   0.468  24.031  0.00  0.00    +0.161 C 
ATOM     25  O   UNL     1       0.292   1.044  23.976  0.00  0.00    -0.351 OA
ATOM     26  C   UNL     1      -0.097   1.497  24.545  0.00  0.00    +0.161 C 
ENDROOT
BRANCH   9   8
ATOM      8  N   UNL     1      -1.273   0.345  24.657  0.00  0.00    -0.211 NA
BRANCH   8   7
ATOM      7  C   UNL     1      -1.092  -0.401  24.961  0.00  0.00    +0.115 C 
BRANCH   7   6
ATOM      3  C   UNL     1      -2.803  -2.189  24.952  0.00  0.00    +0.139 A 
ATOM      4  C   UNL     1      -2.898  -1.529  25.438  0.00  0.00    +0.037 A 
ATOM      5  C   UNL     1      -2.328  -0.933  25.441  0.00  0.00    +0.000 A 
ATOM      6  C   UNL     1      -1.663  -0.997  24.958  0.00  0.00    -0.005 A 
ATOM     27  C   UNL     1      -1.567  -1.657  24.472  0.00  0.00    +0.000 A 
ATOM     28  C   UNL     1      -2.137  -2.252  24.469  0.00  0.00    +0.037 A 
BRANCH   3   2
ATOM      1  C   UNL     1      -3.882  -2.865  24.305  0.00  0.00    +0.252 C 
ATOM      2  O   UNL     1      -3.373  -2.785  24.950  0.00  0.00    -0.471 OA
ENDBRANCH   3   2
ENDBRANCH   7   6
ENDBRANCH   8   7
ENDBRANCH   9   8
BRANCH   9  10
ATOM     10  C   UNL     1      -1.075   1.374  25.170  0.00  0.00    +0.070 C 
BRANCH  10  11
ATOM     11  C   UNL     1      -1.614   1.953  24.938  0.00  0.00    +0.102 A 
ATOM     12  N   UNL     1      -1.716   2.241  24.172  0.00  0.00    -0.081 NA
ATOM     13  O   UNL     1      -2.310   2.813  24.191  0.00  0.00    -0.349 OA
ATOM     14  C   UNL     1      -2.576   2.878  24.970  0.00  0.00    +0.230 A 
ATOM     15  C   UNL     1      -2.145   2.346  25.432  0.00  0.00    +0.063 A 
BRANCH  14  16
ATOM     16  C   UNL     1      -3.168   3.385  25.240  0.00  0.00    +0.286 C 
ATOM     17  O   UNL     1      -2.972   4.135  25.521  0.00  0.00    -0.266 OA
ATOM     18  N   UNL     1      -3.956   3.141  25.229  0.00  0.00    -0.274 N 
ATOM     19  C   UNL     1      -4.152   2.391  24.948  0.00  0.00    +0.094 C 
ATOM     20  C   UNL     1      -4.940   2.147  24.937  0.00  0.00    +0.022 C 
ATOM     21  C   UNL     1      -5.533   2.653  25.207  0.00  0.00    +0.004 C 
ATOM     22  C   UNL     1      -5.337   3.404  25.488  0.00  0.00    +0.022 C 
ATOM     23  C   UNL     1      -4.548   3.647  25.499  0.00  0.00    +0.094 C 
ENDBRANCH  14  16
ENDBRANCH  10  11
ENDBRANCH   9  10
TORSDOF 7
ENDMDL
