REMARK  Name = 
REMARK  5 active torsions:
REMARK  status: ('A' for Active; 'I' for Inactive)
REMARK    1  A    between atoms: N_2  and  C_4
REMARK    2  A    between atoms: C_4  and  C_5
REMARK    3  A    between atoms: C_7  and  C_8
REMARK    4  A    between atoms: C_8  and  C_9
REMARK    5  A    between atoms: C_12  and  C_14
REMARK                            x       y       z     vdW  Elec       q    Type
REMARK                         _______ _______ _______ _____ _____    ______ ____
ROOT
ATOM      8  C   UNL     1       0.715  -0.412   0.000  0.00  0.00    +0.079 C 
ENDROOT
BRANCH   8   7
ATOM      5  C   UNL     1       2.858   0.000   0.000  0.00  0.00    +0.161 C 
ATOM      6  O   UNL     1       2.143  -0.412   0.000  0.00  0.00    -0.354 OA
ATOM      7  C   UNL     1       1.429   0.000   0.000  0.00  0.00    +0.121 C 
ATOM     21  C   UNL     1       1.429   0.825   0.000  0.00  0.00    +0.033 C 
ATOM     22  C   UNL     1       2.143   1.238   0.000  0.00  0.00    +0.038 C 
ATOM     23  C   UNL     1       2.858   0.825   0.000  0.00  0.00    +0.180 C 
ATOM     24  O   UNL     1       3.572   1.238   0.000  0.00  0.00    -0.220 OA
BRANCH   5   4
ATOM      4  C   UNL     1       3.572  -0.412   0.000  0.00  0.00    +0.105 C 
BRANCH   4   2
ATOM      1  C   UNL     1       5.001  -0.412   0.000  0.00  0.00    +0.090 C 
ATOM      2  N   UNL     1       4.287   0.000   0.000  0.00  0.00    -0.268 NA
ATOM      3  C   UNL     1       4.287   0.825   0.000  0.00  0.00    +0.090 C 
ENDBRANCH   4   2
ENDBRANCH   5   4
ENDBRANCH   8   7
BRANCH   8   9
ATOM      9  C   UNL     1       0.715  -1.238   0.000  0.00  0.00    +0.103 A 
ATOM     10  N   UNL     1       1.382  -1.722   0.000  0.00  0.00    -0.081 NA
ATOM     11  O   UNL     1       1.127  -2.507   0.000  0.00  0.00    -0.354 OA
ATOM     12  C   UNL     1       0.302  -2.507   0.000  0.00  0.00    +0.177 A 
ATOM     13  C   UNL     1       0.047  -1.722   0.000  0.00  0.00    +0.058 A 
BRANCH  12  14
ATOM     14  C   UNL     1      -0.183  -3.175   0.000  0.00  0.00    +0.040 A 
ATOM     15  C   UNL     1       0.153  -3.928   0.000  0.00  0.00    +0.045 A 
ATOM     16  C   UNL     1      -0.332  -4.596   0.000  0.00  0.00    +0.196 A 
ATOM     17  O   UNL     1       0.003  -5.349   0.000  0.00  0.00    -0.287 OA
ATOM     18  C   UNL     1      -1.153  -4.509   0.000  0.00  0.00    +0.042 A 
ATOM     19  C   UNL     1      -1.488  -3.756   0.000  0.00  0.00    +0.003 A 
ATOM     20  C   UNL     1      -1.003  -3.088   0.000  0.00  0.00    +0.003 A 
ENDBRANCH  12  14
ENDBRANCH   8   9
TORSDOF 5
