MODEL 1
REMARK VINA RESULT:     -10.1      0.000      0.000
REMARK  Name = 
REMARK  6 active torsions:
REMARK  status: ('A' for Active; 'I' for Inactive)
REMARK    1  A    between atoms: N_4  and  C_5
REMARK    2  A    between atoms: C_5  and  C_6
REMARK    3  A    between atoms: C_6  and  C_7
REMARK    4  A    between atoms: C_11  and  C_12
REMARK    5  A    between atoms: C_14  and  N_15
REMARK    6  A    between atoms: N_18  and  C_19
REMARK                            x       y       z     vdW  Elec       q    Type
REMARK                         _______ _______ _______ _____ _____    ______ ____
ROOT
ATOM     12  C   UNL     1      -4.282   2.305  24.955  0.00  0.00    +0.048 C 
ATOM     13  C   UNL     1      -4.107   1.594  25.336  0.00  0.00    +0.035 C 
ATOM     14  C   UNL     1      -4.645   1.026  25.077  0.00  0.00    +0.119 C 
ATOM     26  C   UNL     1      -5.154   1.385  24.536  0.00  0.00    -0.009 C 
ATOM     27  C   UNL     1      -4.929   2.175  24.460  0.00  0.00    -0.025 C 
ENDROOT
BRANCH  12  11
ATOM      1  C   UNL     1      -4.762   3.646  26.047  0.00  0.00    +0.054 C 
ATOM      2  C   UNL     1      -4.102   3.636  25.554  0.00  0.00    +0.076 A 
ATOM      3  N   UNL     1      -3.546   4.240  25.474  0.00  0.00    -0.174 NA
ATOM      4  N   UNL     1      -2.982   3.997  24.923  0.00  0.00    -0.254 N 
ATOM      9  C   UNL     1      -3.189   3.242  24.662  0.00  0.00    +0.053 A 
ATOM     10  C   UNL     1      -2.776   2.791  24.108  0.00  0.00    +0.051 C 
ATOM     11  C   UNL     1      -3.882   3.019  25.052  0.00  0.00    +0.010 A 
BRANCH   4   5
ATOM      5  C   UNL     1      -2.325   4.432  24.677  0.00  0.00    +0.143 C 
BRANCH   5   6
ATOM      6  C   UNL     1      -1.857   4.822  25.233  0.00  0.00    +0.132 C 
BRANCH   6   7
ATOM      7  C   UNL     1      -1.144   5.166  25.002  0.00  0.00    +0.075 C 
ATOM      8  N   UNL     1      -0.431   5.511  24.772  0.00  0.00    -0.196 NA
ENDBRANCH   6   7
ENDBRANCH   5   6
ENDBRANCH   4   5
ENDBRANCH  12  11
BRANCH  14  15
ATOM     15  N   UNL     1      -4.671   0.237  25.317  0.00  0.00    -0.184 NA
ATOM     16  C   UNL     1      -4.132  -0.306  25.009  0.00  0.00    +0.344 C 
ATOM     17  O   UNL     1      -3.566  -0.061  24.462  0.00  0.00    -0.249 OA
ATOM     18  N   UNL     1      -4.159  -1.096  25.249  0.00  0.00    -0.161 NA
BRANCH  18  19
ATOM     19  C   UNL     1      -3.620  -1.639  24.942  0.00  0.00    +0.075 A 
ATOM     20  C   UNL     1      -3.848  -2.147  24.334  0.00  0.00    +0.018 A 
ATOM     21  C   UNL     1      -3.309  -2.690  24.026  0.00  0.00    +0.013 A 
ATOM     22  C   UNL     1      -2.542  -2.726  24.327  0.00  0.00    +0.058 A 
ATOM     23 CL   UNL     1      -2.003  -3.269  24.019  0.00  0.00    -0.082 Cl
ATOM     24  C   UNL     1      -2.313  -2.217  24.935  0.00  0.00    +0.013 A 
ATOM     25  C   UNL     1      -2.852  -1.674  25.243  0.00  0.00    +0.018 A 
ENDBRANCH  18  19
ENDBRANCH  14  15
TORSDOF 6
ENDMDL
MODEL 2
REMARK VINA RESULT:      -9.6      2.942      5.010
REMARK  Name = 
REMARK  6 active torsions:
REMARK  status: ('A' for Active; 'I' for Inactive)
REMARK    1  A    between atoms: N_4  and  C_5
REMARK    2  A    between atoms: C_5  and  C_6
REMARK    3  A    between atoms: C_6  and  C_7
REMARK    4  A    between atoms: C_11  and  C_12
REMARK    5  A    between atoms: C_14  and  N_15
REMARK    6  A    between atoms: N_18  and  C_19
REMARK                            x       y       z     vdW  Elec       q    Type
REMARK                         _______ _______ _______ _____ _____    ______ ____
ROOT
ATOM     12  C   UNL     1      -2.186  -0.782  24.931  0.00  0.00    +0.048 C 
ATOM     13  C   UNL     1      -2.835  -0.422  24.571  0.00  0.00    +0.035 C 
ATOM     14  C   UNL     1      -3.456  -0.414  25.113  0.00  0.00    +0.119 C 
ATOM     26  C   UNL     1      -3.191  -0.769  25.809  0.00  0.00    -0.009 C 
ATOM     27  C   UNL     1      -2.406  -0.996  25.697  0.00  0.00    -0.025 C 
ENDROOT
BRANCH  12  11
ATOM      1  C   UNL     1      -1.529  -2.358  24.377  0.00  0.00    +0.054 C 
ATOM      2  C   UNL     1      -1.145  -1.630  24.333  0.00  0.00    +0.076 A 
ATOM      3  N   UNL     1      -0.390  -1.498  24.026  0.00  0.00    -0.174 NA
ATOM      4  N   UNL     1      -0.226  -0.692  24.091  0.00  0.00    -0.254 N 
ATOM      9  C   UNL     1      -0.879  -0.326  24.438  0.00  0.00    +0.053 A 
ATOM     10  C   UNL     1      -0.951   0.480  24.606  0.00  0.00    +0.051 C 
ATOM     11  C   UNL     1      -1.447  -0.905  24.588  0.00  0.00    +0.010 A 
BRANCH   4   5
ATOM      5  C   UNL     1       0.469  -0.317  23.851  0.00  0.00    +0.143 C 
BRANCH   5   6
ATOM      6  C   UNL     1       0.743  -0.414  23.079  0.00  0.00    +0.132 C 
BRANCH   6   7
ATOM      7  C   UNL     1       1.486  -0.123  22.867  0.00  0.00    +0.075 C 
ATOM      8  N   UNL     1       2.228   0.167  22.654  0.00  0.00    -0.196 NA
ENDBRANCH   6   7
ENDBRANCH   5   6
ENDBRANCH   4   5
ENDBRANCH  12  11
BRANCH  14  15
ATOM     15  N   UNL     1      -4.210  -0.106  24.983  0.00  0.00    -0.184 NA
ATOM     16  C   UNL     1      -4.363   0.691  25.134  0.00  0.00    +0.344 C 
ATOM     17  O   UNL     1      -3.760   1.180  25.414  0.00  0.00    -0.249 OA
ATOM     18  N   UNL     1      -5.118   0.999  25.004  0.00  0.00    -0.161 NA
BRANCH  18  19
ATOM     19  C   UNL     1      -5.270   1.795  25.154  0.00  0.00    +0.075 A 
ATOM     20  C   UNL     1      -5.712   2.012  25.815  0.00  0.00    +0.018 A 
ATOM     21  C   UNL     1      -5.865   2.809  25.966  0.00  0.00    +0.013 A 
ATOM     22  C   UNL     1      -5.574   3.389  25.456  0.00  0.00    +0.058 A 
ATOM     23 CL   UNL     1      -5.727   4.185  25.606  0.00  0.00    -0.082 Cl
ATOM     24  C   UNL     1      -5.132   3.171  24.794  0.00  0.00    +0.013 A 
ATOM     25  C   UNL     1      -4.979   2.374  24.643  0.00  0.00    +0.018 A 
ENDBRANCH  18  19
ENDBRANCH  14  15
TORSDOF 6
ENDMDL
MODEL 3
REMARK VINA RESULT:      -9.3      2.793      6.237
REMARK  Name = 
REMARK  6 active torsions:
REMARK  status: ('A' for Active; 'I' for Inactive)
REMARK    1  A    between atoms: N_4  and  C_5
REMARK    2  A    between atoms: C_5  and  C_6
REMARK    3  A    between atoms: C_6  and  C_7
REMARK    4  A    between atoms: C_11  and  C_12
REMARK    5  A    between atoms: C_14  and  N_15
REMARK    6  A    between atoms: N_18  and  C_19
REMARK                            x       y       z     vdW  Elec       q    Type
REMARK                         _______ _______ _______ _____ _____    ______ ____
ROOT
ATOM     12  C   UNL     1      -1.050  -0.152  24.786  0.00  0.00    +0.048 C 
ATOM     13  C   UNL     1      -1.029   0.445  25.356  0.00  0.00    +0.035 C 
ATOM     14  C   UNL     1      -0.502   1.024  25.101  0.00  0.00    +0.119 C 
ATOM     26  C   UNL     1      -0.195   0.786  24.372  0.00  0.00    -0.009 C 
ATOM     27  C   UNL     1      -0.534   0.060  24.178  0.00  0.00    -0.025 C 
ENDROOT
BRANCH  12  11
ATOM      1  C   UNL     1      -0.460  -1.792  25.212  0.00  0.00    +0.054 C 
ATOM      2  C   UNL     1      -1.234  -1.593  25.014  0.00  0.00    +0.076 A 
ATOM      3  N   UNL     1      -1.874  -2.111  24.976  0.00  0.00    -0.174 NA
ATOM      4  N   UNL     1      -2.542  -1.678  24.757  0.00  0.00    -0.254 N 
ATOM      9  C   UNL     1      -2.314  -0.891  24.659  0.00  0.00    +0.053 A 
ATOM     10  C   UNL     1      -2.808  -0.267  24.441  0.00  0.00    +0.051 C 
ATOM     11  C   UNL     1      -1.505  -0.838  24.818  0.00  0.00    +0.010 A 
BRANCH   4   5
ATOM      5  C   UNL     1      -3.303  -1.979  24.654  0.00  0.00    +0.143 C 
BRANCH   5   6
ATOM      6  C   UNL     1      -3.409  -2.729  24.329  0.00  0.00    +0.132 C 
BRANCH   6   7
ATOM      7  C   UNL     1      -4.120  -2.921  23.956  0.00  0.00    +0.075 C 
ATOM      8  N   UNL     1      -4.830  -3.112  23.584  0.00  0.00    -0.196 NA
ENDBRANCH   6   7
ENDBRANCH   5   6
ENDBRANCH   4   5
ENDBRANCH  12  11
BRANCH  14  15
ATOM     15  N   UNL     1      -0.312   1.720  25.502  0.00  0.00    -0.184 NA
ATOM     16  C   UNL     1      -0.686   2.427  25.302  0.00  0.00    +0.344 C 
ATOM     17  O   UNL     1      -1.251   2.439  24.701  0.00  0.00    -0.249 OA
ATOM     18  N   UNL     1      -0.496   3.122  25.704  0.00  0.00    -0.161 NA
BRANCH  18  19
ATOM     19  C   UNL     1      -0.871   3.830  25.504  0.00  0.00    +0.075 A 
ATOM     20  C   UNL     1      -0.488   4.376  25.019  0.00  0.00    +0.018 A 
ATOM     21  C   UNL     1      -0.862   5.083  24.819  0.00  0.00    +0.013 A 
ATOM     22  C   UNL     1      -1.619   5.245  25.105  0.00  0.00    +0.058 A 
ATOM     23 CL   UNL     1      -1.994   5.952  24.905  0.00  0.00    -0.082 Cl
ATOM     24  C   UNL     1      -2.002   4.698  25.590  0.00  0.00    +0.013 A 
ATOM     25  C   UNL     1      -1.628   3.991  25.790  0.00  0.00    +0.018 A 
ENDBRANCH  18  19
ENDBRANCH  14  15
TORSDOF 6
ENDMDL
MODEL 4
REMARK VINA RESULT:      -9.2      2.187      2.780
REMARK  Name = 
REMARK  6 active torsions:
REMARK  status: ('A' for Active; 'I' for Inactive)
REMARK    1  A    between atoms: N_4  and  C_5
REMARK    2  A    between atoms: C_5  and  C_6
REMARK    3  A    between atoms: C_6  and  C_7
REMARK    4  A    between atoms: C_11  and  C_12
REMARK    5  A    between atoms: C_14  and  N_15
REMARK    6  A    between atoms: N_18  and  C_19
REMARK                            x       y       z     vdW  Elec       q    Type
REMARK                         _______ _______ _______ _____ _____    ______ ____
ROOT
ATOM     12  C   UNL     1      -0.662   1.370  25.205  0.00  0.00    +0.048 C 
ATOM     13  C   UNL     1      -1.212   0.879  25.575  0.00  0.00    +0.035 C 
ATOM     14  C   UNL     1      -1.052   0.102  25.352  0.00  0.00    +0.119 C 
ATOM     26  C   UNL     1      -0.401   0.111  24.844  0.00  0.00    -0.009 C 
ATOM     27  C   UNL     1      -0.160   0.895  24.754  0.00  0.00    -0.025 C 
ENDROOT
BRANCH  12  11
ATOM      1  C   UNL     1       0.211   2.279  26.483  0.00  0.00    +0.054 C 
ATOM      2  C   UNL     1      -0.218   2.608  25.862  0.00  0.00    +0.076 A 
ATOM      3  N   UNL     1      -0.322   3.414  25.718  0.00  0.00    -0.174 NA
ATOM      4  N   UNL     1      -0.787   3.494  25.041  0.00  0.00    -0.254 N 
ATOM      9  C   UNL     1      -0.971   2.738  24.767  0.00  0.00    +0.053 A 
ATOM     10  C   UNL     1      -1.427   2.561  24.102  0.00  0.00    +0.051 C 
ATOM     11  C   UNL     1      -0.619   2.190  25.274  0.00  0.00    +0.010 A 
BRANCH   4   5
ATOM      5  C   UNL     1      -1.027   4.206  24.699  0.00  0.00    +0.143 C 
BRANCH   5   6
ATOM      6  C   UNL     1      -0.870   4.920  25.081  0.00  0.00    +0.132 C 
BRANCH   6   7
ATOM      7  C   UNL     1      -1.377   5.563  24.976  0.00  0.00    +0.075 C 
ATOM      8  N   UNL     1      -1.884   6.205  24.871  0.00  0.00    -0.196 NA
ENDBRANCH   6   7
ENDBRANCH   5   6
ENDBRANCH   4   5
ENDBRANCH  12  11
BRANCH  14  15
ATOM     15  N   UNL     1      -1.467  -0.569  25.594  0.00  0.00    -0.184 NA
ATOM     16  C   UNL     1      -2.056  -0.886  25.111  0.00  0.00    +0.344 C 
ATOM     17  O   UNL     1      -2.230  -0.533  24.386  0.00  0.00    -0.249 OA
ATOM     18  N   UNL     1      -2.472  -1.557  25.354  0.00  0.00    -0.161 NA
BRANCH  18  19
ATOM     19  C   UNL     1      -3.060  -1.874  24.872  0.00  0.00    +0.075 A 
ATOM     20  C   UNL     1      -2.967  -2.627  24.547  0.00  0.00    +0.018 A 
ATOM     21  C   UNL     1      -3.556  -2.944  24.065  0.00  0.00    +0.013 A 
ATOM     22  C   UNL     1      -4.238  -2.509  23.906  0.00  0.00    +0.058 A 
ATOM     23 CL   UNL     1      -4.827  -2.827  23.424  0.00  0.00    -0.082 Cl
ATOM     24  C   UNL     1      -4.332  -1.756  24.231  0.00  0.00    +0.013 A 
ATOM     25  C   UNL     1      -3.743  -1.439  24.714  0.00  0.00    +0.018 A 
ENDBRANCH  18  19
ENDBRANCH  14  15
TORSDOF 6
ENDMDL
MODEL 5
REMARK VINA RESULT:      -9.1      3.772      4.959
REMARK  Name = 
REMARK  6 active torsions:
REMARK  status: ('A' for Active; 'I' for Inactive)
REMARK    1  A    between atoms: N_4  and  C_5
REMARK    2  A    between atoms: C_5  and  C_6
REMARK    3  A    between atoms: C_6  and  C_7
REMARK    4  A    between atoms: C_11  and  C_12
REMARK    5  A    between atoms: C_14  and  N_15
REMARK    6  A    between atoms: N_18  and  C_19
REMARK                            x       y       z     vdW  Elec       q    Type
REMARK                         _______ _______ _______ _____ _____    ______ ____
ROOT
ATOM     12  C   UNL     1      -0.670   0.592  24.238  0.00  0.00    +0.048 C 
ATOM     13  C   UNL     1      -1.367   0.794  23.846  0.00  0.00    +0.035 C 
ATOM     14  C   UNL     1      -1.999   0.467  24.262  0.00  0.00    +0.119 C 
ATOM     26  C   UNL     1      -1.693   0.062  24.913  0.00  0.00    -0.009 C 
ATOM     27  C   UNL     1      -0.872   0.140  24.898  0.00  0.00    -0.025 C 
ENDROOT
BRANCH  12  11
ATOM      1  C   UNL     1       0.173   2.118  24.667  0.00  0.00    +0.054 C 
ATOM      2  C   UNL     1       0.481   1.506  24.209  0.00  0.00    +0.076 A 
ATOM      3  N   UNL     1       1.231   1.487  23.867  0.00  0.00    -0.174 NA
ATOM      4  N   UNL     1       1.308   0.774  23.458  0.00  0.00    -0.254 N 
ATOM      9  C   UNL     1       0.605   0.352  23.548  0.00  0.00    +0.053 A 
ATOM     10  C   UNL     1       0.441  -0.392  23.229  0.00  0.00    +0.051 C 
ATOM     11  C   UNL     1       0.093   0.805  24.012  0.00  0.00    +0.010 A 
BRANCH   4   5
ATOM      5  C   UNL     1       1.972   0.526  23.034  0.00  0.00    +0.143 C 
BRANCH   5   6
ATOM      6  C   UNL     1       2.666   0.970  23.062  0.00  0.00    +0.132 C 
BRANCH   6   7
ATOM      7  C   UNL     1       3.348   0.691  22.689  0.00  0.00    +0.075 C 
ATOM      8  N   UNL     1       4.029   0.412  22.317  0.00  0.00    -0.196 NA
ENDBRANCH   6   7
ENDBRANCH   5   6
ENDBRANCH   4   5
ENDBRANCH  12  11
BRANCH  14  15
ATOM     15  N   UNL     1      -2.797   0.532  24.064  0.00  0.00    -0.184 NA
ATOM     16  C   UNL     1      -3.274   1.086  24.446  0.00  0.00    +0.344 C 
ATOM     17  O   UNL     1      -2.952   1.576  25.027  0.00  0.00    -0.249 OA
ATOM     18  N   UNL     1      -4.073   1.150  24.248  0.00  0.00    -0.161 NA
BRANCH  18  19
ATOM     19  C   UNL     1      -4.549   1.704  24.630  0.00  0.00    +0.075 A 
ATOM     20  C   UNL     1      -5.094   1.457  25.198  0.00  0.00    +0.018 A 
ATOM     21  C   UNL     1      -5.571   2.012  25.580  0.00  0.00    +0.013 A 
ATOM     22  C   UNL     1      -5.503   2.812  25.394  0.00  0.00    +0.058 A 
ATOM     23 CL   UNL     1      -5.980   3.367  25.776  0.00  0.00    -0.082 Cl
ATOM     24  C   UNL     1      -4.958   3.059  24.826  0.00  0.00    +0.013 A 
ATOM     25  C   UNL     1      -4.481   2.505  24.443  0.00  0.00    +0.018 A 
ENDBRANCH  18  19
ENDBRANCH  14  15
TORSDOF 6
ENDMDL
MODEL 6
REMARK VINA RESULT:      -8.8      3.091      4.699
REMARK  Name = 
REMARK  6 active torsions:
REMARK  status: ('A' for Active; 'I' for Inactive)
REMARK    1  A    between atoms: N_4  and  C_5
REMARK    2  A    between atoms: C_5  and  C_6
REMARK    3  A    between atoms: C_6  and  C_7
REMARK    4  A    between atoms: C_11  and  C_12
REMARK    5  A    between atoms: C_14  and  N_15
REMARK    6  A    between atoms: N_18  and  C_19
REMARK                            x       y       z     vdW  Elec       q    Type
REMARK                         _______ _______ _______ _____ _____    ______ ____
ROOT
ATOM     12  C   UNL     1      -1.033   3.401  25.220  0.00  0.00    +0.048 C 
ATOM     13  C   UNL     1      -1.808   3.261  25.466  0.00  0.00    +0.035 C 
ATOM     14  C   UNL     1      -2.185   3.988  25.549  0.00  0.00    +0.119 C 
ATOM     26  C   UNL     1      -1.644   4.580  25.354  0.00  0.00    -0.009 C 
ATOM     27  C   UNL     1      -0.932   4.217  25.151  0.00  0.00    -0.025 C 
ENDROOT
BRANCH  12  11
ATOM      1  C   UNL     1       0.007   2.599  26.443  0.00  0.00    +0.054 C 
ATOM      2  C   UNL     1       0.018   2.459  25.631  0.00  0.00    +0.076 A 
ATOM      3  N   UNL     1       0.510   1.926  25.238  0.00  0.00    -0.174 NA
ATOM      4  N   UNL     1       0.335   1.965  24.432  0.00  0.00    -0.254 N 
ATOM      9  C   UNL     1      -0.264   2.522  24.328  0.00  0.00    +0.053 A 
ATOM     10  C   UNL     1      -0.607   2.736  23.608  0.00  0.00    +0.051 C 
ATOM     11  C   UNL     1      -0.460   2.828  25.069  0.00  0.00    +0.010 A 
BRANCH   4   5
ATOM      5  C   UNL     1       0.697   1.523  23.836  0.00  0.00    +0.143 C 
BRANCH   5   6
ATOM      6  C   UNL     1       0.685   0.699  23.869  0.00  0.00    +0.132 C 
BRANCH   6   7
ATOM      7  C   UNL     1       1.045   0.258  23.271  0.00  0.00    +0.075 C 
ATOM      8  N   UNL     1       1.405  -0.182  22.674  0.00  0.00    -0.196 NA
ENDBRANCH   6   7
ENDBRANCH   5   6
ENDBRANCH   4   5
ENDBRANCH  12  11
BRANCH  14  15
ATOM     15  N   UNL     1      -2.967   4.106  25.786  0.00  0.00    -0.184 NA
ATOM     16  C   UNL     1      -3.549   3.561  25.574  0.00  0.00    +0.344 C 
ATOM     17  O   UNL     1      -3.350   2.898  25.126  0.00  0.00    -0.249 OA
ATOM     18  N   UNL     1      -4.331   3.680  25.811  0.00  0.00    -0.161 NA
BRANCH  18  19
ATOM     19  C   UNL     1      -4.913   3.135  25.600  0.00  0.00    +0.075 A 
ATOM     20  C   UNL     1      -5.333   2.733  26.185  0.00  0.00    +0.018 A 
ATOM     21  C   UNL     1      -5.915   2.188  25.973  0.00  0.00    +0.013 A 
ATOM     22  C   UNL     1      -6.078   2.045  25.177  0.00  0.00    +0.058 A 
ATOM     23 CL   UNL     1      -6.660   1.500  24.966  0.00  0.00    -0.082 Cl
ATOM     24  C   UNL     1      -5.658   2.448  24.592  0.00  0.00    +0.013 A 
ATOM     25  C   UNL     1      -5.075   2.993  24.803  0.00  0.00    +0.018 A 
ENDBRANCH  18  19
ENDBRANCH  14  15
TORSDOF 6
ENDMDL
MODEL 7
REMARK VINA RESULT:      -8.4      4.465      5.283
REMARK  Name = 
REMARK  6 active torsions:
REMARK  status: ('A' for Active; 'I' for Inactive)
REMARK    1  A    between atoms: N_4  and  C_5
REMARK    2  A    between atoms: C_5  and  C_6
REMARK    3  A    between atoms: C_6  and  C_7
REMARK    4  A    between atoms: C_11  and  C_12
REMARK    5  A    between atoms: C_14  and  N_15
REMARK    6  A    between atoms: N_18  and  C_19
REMARK                            x       y       z     vdW  Elec       q    Type
REMARK                         _______ _______ _______ _____ _____    ______ ____
ROOT
ATOM     12  C   UNL     1      -0.817   0.857  24.312  0.00  0.00    +0.048 C 
ATOM     13  C   UNL     1      -0.307   0.958  23.672  0.00  0.00    +0.035 C 
ATOM     14  C   UNL     1       0.094   0.248  23.549  0.00  0.00    +0.119 C 
ATOM     26  C   UNL     1      -0.168  -0.293  24.114  0.00  0.00    -0.009 C 
ATOM     27  C   UNL     1      -0.731   0.083  24.586  0.00  0.00    -0.025 C 
ENDROOT
BRANCH  12  11
ATOM      1  C   UNL     1      -0.437   1.985  25.655  0.00  0.00    +0.054 C 
ATOM      2  C   UNL     1      -1.149   1.946  25.242  0.00  0.00    +0.076 A 
ATOM      3  N   UNL     1      -1.812   2.418  25.373  0.00  0.00    -0.174 NA
ATOM      4  N   UNL     1      -2.397   2.192  24.836  0.00  0.00    -0.254 N 
ATOM      9  C   UNL     1      -2.095   1.579  24.374  0.00  0.00    +0.053 A 
ATOM     10  C   UNL     1      -2.494   1.187  23.767  0.00  0.00    +0.051 C 
ATOM     11  C   UNL     1      -1.323   1.427  24.624  0.00  0.00    +0.010 A 
BRANCH   4   5
ATOM      5  C   UNL     1      -3.152   2.520  24.773  0.00  0.00    +0.143 C 
BRANCH   5   6
ATOM      6  C   UNL     1      -3.352   3.180  25.225  0.00  0.00    +0.132 C 
BRANCH   6   7
ATOM      7  C   UNL     1      -4.137   3.432  25.260  0.00  0.00    +0.075 C 
ATOM      8  N   UNL     1      -4.922   3.684  25.296  0.00  0.00    -0.196 NA
ENDBRANCH   6   7
ENDBRANCH   5   6
ENDBRANCH   4   5
ENDBRANCH  12  11
BRANCH  14  15
ATOM     15  N   UNL     1       0.659   0.103  22.965  0.00  0.00    -0.184 NA
ATOM     16  C   UNL     1       1.461   0.202  23.131  0.00  0.00    +0.344 C 
ATOM     17  O   UNL     1       1.699   0.446  23.883  0.00  0.00    -0.249 OA
ATOM     18  N   UNL     1       2.024   0.057  22.546  0.00  0.00    -0.161 NA
BRANCH  18  19
ATOM     19  C   UNL     1       2.826   0.156  22.713  0.00  0.00    +0.075 A 
ATOM     20  C   UNL     1       3.190   0.881  22.569  0.00  0.00    +0.018 A 
ATOM     21  C   UNL     1       3.992   0.980  22.735  0.00  0.00    +0.013 A 
ATOM     22  C   UNL     1       4.430   0.354  23.045  0.00  0.00    +0.058 A 
ATOM     23 CL   UNL     1       5.232   0.453  23.212  0.00  0.00    -0.082 Cl
ATOM     24  C   UNL     1       4.065  -0.373  23.189  0.00  0.00    +0.013 A 
ATOM     25  C   UNL     1       3.263  -0.472  23.023  0.00  0.00    +0.018 A 
ENDBRANCH  18  19
ENDBRANCH  14  15
TORSDOF 6
ENDMDL
MODEL 8
REMARK VINA RESULT:      -8.3      1.489      2.570
REMARK  Name = 
REMARK  6 active torsions:
REMARK  status: ('A' for Active; 'I' for Inactive)
REMARK    1  A    between atoms: N_4  and  C_5
REMARK    2  A    between atoms: C_5  and  C_6
REMARK    3  A    between atoms: C_6  and  C_7
REMARK    4  A    between atoms: C_11  and  C_12
REMARK    5  A    between atoms: C_14  and  N_15
REMARK    6  A    between atoms: N_18  and  C_19
REMARK                            x       y       z     vdW  Elec       q    Type
REMARK                         _______ _______ _______ _____ _____    ______ ____
ROOT
ATOM     12  C   UNL     1      -1.917   2.221  24.670  0.00  0.00    +0.048 C 
ATOM     13  C   UNL     1      -1.881   1.491  25.053  0.00  0.00    +0.035 C 
ATOM     14  C   UNL     1      -1.352   1.012  24.641  0.00  0.00    +0.119 C 
ATOM     26  C   UNL     1      -1.061   1.446  24.002  0.00  0.00    -0.009 C 
ATOM     27  C   UNL     1      -1.410   2.193  24.020  0.00  0.00    -0.025 C 
ENDROOT
BRANCH  12  11
ATOM      1  C   UNL     1      -1.364   3.627  25.639  0.00  0.00    +0.054 C 
ATOM      2  C   UNL     1      -2.124   3.513  25.342  0.00  0.00    +0.076 A 
ATOM      3  N   UNL     1      -2.765   4.024  25.437  0.00  0.00    -0.174 NA
ATOM      4  N   UNL     1      -3.415   3.693  25.051  0.00  0.00    -0.254 N 
ATOM      9  C   UNL     1      -3.176   2.978  24.717  0.00  0.00    +0.053 A 
ATOM     10  C   UNL     1      -3.652   2.464  24.279  0.00  0.00    +0.051 C 
ATOM     11  C   UNL     1      -2.378   2.866  24.896  0.00  0.00    +0.010 A 
BRANCH   4   5
ATOM      5  C   UNL     1      -4.171   4.021  25.007  0.00  0.00    +0.143 C 
BRANCH   5   6
ATOM      6  C   UNL     1      -4.627   4.098  25.690  0.00  0.00    +0.132 C 
BRANCH   6   7
ATOM      7  C   UNL     1      -5.420   4.320  25.633  0.00  0.00    +0.075 C 
ATOM      8  N   UNL     1      -6.212   4.541  25.576  0.00  0.00    -0.196 NA
ENDBRANCH   6   7
ENDBRANCH   5   6
ENDBRANCH   4   5
ENDBRANCH  12  11
BRANCH  14  15
ATOM     15  N   UNL     1      -1.149   0.236  24.832  0.00  0.00    -0.184 NA
ATOM     16  C   UNL     1      -1.694  -0.374  24.721  0.00  0.00    +0.344 C 
ATOM     17  O   UNL     1      -2.443  -0.206  24.418  0.00  0.00    -0.249 OA
ATOM     18  N   UNL     1      -1.490  -1.150  24.912  0.00  0.00    -0.161 NA
BRANCH  18  19
ATOM     19  C   UNL     1      -2.035  -1.759  24.801  0.00  0.00    +0.075 A 
ATOM     20  C   UNL     1      -2.716  -1.793  25.264  0.00  0.00    +0.018 A 
ATOM     21  C   UNL     1      -3.261  -2.402  25.153  0.00  0.00    +0.013 A 
ATOM     22  C   UNL     1      -3.125  -2.977  24.578  0.00  0.00    +0.058 A 
ATOM     23 CL   UNL     1      -3.670  -3.587  24.466  0.00  0.00    -0.082 Cl
ATOM     24  C   UNL     1      -2.443  -2.944  24.114  0.00  0.00    +0.013 A 
ATOM     25  C   UNL     1      -1.898  -2.335  24.225  0.00  0.00    +0.018 A 
ENDBRANCH  18  19
ENDBRANCH  14  15
TORSDOF 6
ENDMDL
MODEL 9
REMARK VINA RESULT:      -8.2      2.141      5.406
REMARK  Name = 
REMARK  6 active torsions:
REMARK  status: ('A' for Active; 'I' for Inactive)
REMARK    1  A    between atoms: N_4  and  C_5
REMARK    2  A    between atoms: C_5  and  C_6
REMARK    3  A    between atoms: C_6  and  C_7
REMARK    4  A    between atoms: C_11  and  C_12
REMARK    5  A    between atoms: C_14  and  N_15
REMARK    6  A    between atoms: N_18  and  C_19
REMARK                            x       y       z     vdW  Elec       q    Type
REMARK                         _______ _______ _______ _____ _____    ______ ____
ROOT
ATOM     12  C   UNL     1      -4.049  -0.094  24.874  0.00  0.00    +0.048 C 
ATOM     13  C   UNL     1      -3.864   0.636  24.537  0.00  0.00    +0.035 C 
ATOM     14  C   UNL     1      -4.417   1.187  24.800  0.00  0.00    +0.119 C 
ATOM     26  C   UNL     1      -4.946   0.799  25.301  0.00  0.00    -0.009 C 
ATOM     27  C   UNL     1      -4.718   0.007  25.347  0.00  0.00    -0.025 C 
ENDROOT
BRANCH  12  11
ATOM      1  C   UNL     1      -4.422  -1.344  23.642  0.00  0.00    +0.054 C 
ATOM      2  C   UNL     1      -3.811  -1.375  24.194  0.00  0.00    +0.076 A 
ATOM      3  N   UNL     1      -3.262  -1.985  24.277  0.00  0.00    -0.174 NA
ATOM      4  N   UNL     1      -2.752  -1.788  24.895  0.00  0.00    -0.254 N 
ATOM      9  C   UNL     1      -2.985  -1.055  25.194  0.00  0.00    +0.053 A 
ATOM     10  C   UNL     1      -2.626  -0.650  25.816  0.00  0.00    +0.051 C 
ATOM     11  C   UNL     1      -3.639  -0.800  24.760  0.00  0.00    +0.010 A 
BRANCH   4   5
ATOM      5  C   UNL     1      -2.120  -2.244  25.166  0.00  0.00    +0.143 C 
BRANCH   5   6
ATOM      6  C   UNL     1      -1.492  -2.419  24.661  0.00  0.00    +0.132 C 
BRANCH   6   7
ATOM      7  C   UNL     1      -0.738  -2.548  24.971  0.00  0.00    +0.075 C 
ATOM      8  N   UNL     1       0.016  -2.677  25.280  0.00  0.00    -0.196 NA
ENDBRANCH   6   7
ENDBRANCH   5   6
ENDBRANCH   4   5
ENDBRANCH  12  11
BRANCH  14  15
ATOM     15  N   UNL     1      -4.440   1.987  24.599  0.00  0.00    -0.184 NA
ATOM     16  C   UNL     1      -3.807   2.480  24.792  0.00  0.00    +0.344 C 
ATOM     17  O   UNL     1      -3.150   2.173  25.186  0.00  0.00    -0.249 OA
ATOM     18  N   UNL     1      -3.830   3.280  24.590  0.00  0.00    -0.161 NA
BRANCH  18  19
ATOM     19  C   UNL     1      -3.197   3.773  24.783  0.00  0.00    +0.075 A 
ATOM     20  C   UNL     1      -2.597   3.906  24.234  0.00  0.00    +0.018 A 
ATOM     21  C   UNL     1      -1.964   4.398  24.427  0.00  0.00    +0.013 A 
ATOM     22  C   UNL     1      -1.932   4.758  25.169  0.00  0.00    +0.058 A 
ATOM     23 CL   UNL     1      -1.299   5.251  25.362  0.00  0.00    -0.082 Cl
ATOM     24  C   UNL     1      -2.533   4.625  25.718  0.00  0.00    +0.013 A 
ATOM     25  C   UNL     1      -3.166   4.132  25.525  0.00  0.00    +0.018 A 
ENDBRANCH  18  19
ENDBRANCH  14  15
TORSDOF 6
ENDMDL
