MODEL 1
REMARK VINA RESULT:     -10.0      0.000      0.000
REMARK  Name = 
REMARK  8 active torsions:
REMARK  status: ('A' for Active; 'I' for Inactive)
REMARK    1  A    between atoms: N_4  and  C_5
REMARK    2  A    between atoms: C_8  and  C_9
REMARK    3  A    between atoms: C_9  and  N_10
REMARK    4  A    between atoms: N_10  and  C_11
REMARK    5  A    between atoms: C_14  and  C_15
REMARK    6  A    between atoms: C_15  and  N_16
REMARK    7  A    between atoms: C_17  and  C_19
REMARK    8  A    between atoms: C_19  and  C_20
REMARK                            x       y       z     vdW  Elec       q    Type
REMARK                         _______ _______ _______ _____ _____    ______ ____
ROOT
ATOM     11  C   UNL     1      -4.525   1.575  24.736  0.00  0.00    +0.135 C 
ATOM     12  C   UNL     1      -4.946   1.917  25.357  0.00  0.00    +0.162 C 
ATOM     13  O   UNL     1      -4.698   2.700  25.434  0.00  0.00    -0.350 OA
ATOM     14  C   UNL     1      -4.122   2.842  24.860  0.00  0.00    +0.169 C 
ATOM     24  C   UNL     1      -4.015   2.147  24.428  0.00  0.00    +0.199 C 
ATOM     25  O   UNL     1      -3.491   2.042  23.800  0.00  0.00    -0.219 OA
ENDROOT
BRANCH  11  10
ATOM     10  N   UNL     1      -4.599   0.798  24.468  0.00  0.00    -0.209 NA
BRANCH  10   9
ATOM      9  C   UNL     1      -4.690   0.183  25.009  0.00  0.00    +0.115 C 
BRANCH   9   8
ATOM      5  C   UNL     1      -3.462  -1.942  24.683  0.00  0.00    +0.073 A 
ATOM      6  C   UNL     1      -3.939  -1.644  24.079  0.00  0.00    +0.016 A 
ATOM      7  C   UNL     1      -4.348  -0.936  24.188  0.00  0.00    -0.002 A 
ATOM      8  C   UNL     1      -4.280  -0.525  24.901  0.00  0.00    -0.005 A 
ATOM     26  C   UNL     1      -3.803  -0.824  25.504  0.00  0.00    -0.002 A 
ATOM     27  C   UNL     1      -3.394  -1.532  25.395  0.00  0.00    +0.016 A 
BRANCH   5   4
ATOM      1  C   UNL     1      -1.842  -3.346  24.274  0.00  0.00    +0.097 C 
ATOM      2  C   UNL     1      -2.251  -2.638  24.383  0.00  0.00    +0.246 C 
ATOM      3  O   UNL     1      -1.858  -1.917  24.300  0.00  0.00    -0.273 OA
ATOM      4  N   UNL     1      -3.053  -2.650  24.575  0.00  0.00    -0.179 NA
ENDBRANCH   5   4
ENDBRANCH   9   8
ENDBRANCH  10   9
ENDBRANCH  11  10
BRANCH  14  15
ATOM     15  C   UNL     1      -3.724   3.554  24.739  0.00  0.00    +0.147 C 
BRANCH  15  16
ATOM     16  N   UNL     1      -3.077   3.750  25.211  0.00  0.00    -0.203 NA
ATOM     17  C   UNL     1      -2.605   4.399  25.016  0.00  0.00    +0.241 C 
ATOM     18  O   UNL     1      -2.782   4.851  24.349  0.00  0.00    -0.273 OA
BRANCH  17  19
ATOM     19  C   UNL     1      -1.959   4.595  25.488  0.00  0.00    +0.087 C 
BRANCH  19  20
ATOM     20  C   UNL     1      -1.247   4.823  25.138  0.00  0.00    +0.009 C 
ATOM     21  C   UNL     1      -0.536   5.052  24.788  0.00  0.00    +0.000 C 
ATOM     22  C   UNL     1      -1.535   5.593  25.055  0.00  0.00    +0.000 C 
ATOM     23  C   UNL     1      -0.959   4.055  25.221  0.00  0.00    +0.000 C 
ENDBRANCH  19  20
ENDBRANCH  17  19
ENDBRANCH  15  16
ENDBRANCH  14  15
TORSDOF 8
ENDMDL
MODEL 2
REMARK VINA RESULT:      -9.6      1.137      5.706
REMARK  Name = 
REMARK  8 active torsions:
REMARK  status: ('A' for Active; 'I' for Inactive)
REMARK    1  A    between atoms: N_4  and  C_5
REMARK    2  A    between atoms: C_8  and  C_9
REMARK    3  A    between atoms: C_9  and  N_10
REMARK    4  A    between atoms: N_10  and  C_11
REMARK    5  A    between atoms: C_14  and  C_15
REMARK    6  A    between atoms: C_15  and  N_16
REMARK    7  A    between atoms: C_17  and  C_19
REMARK    8  A    between atoms: C_19  and  C_20
REMARK                            x       y       z     vdW  Elec       q    Type
REMARK                         _______ _______ _______ _____ _____    ______ ____
ROOT
ATOM     11  C   UNL     1      -4.456   1.713  24.811  0.00  0.00    +0.135 C 
ATOM     12  C   UNL     1      -4.979   1.437  25.386  0.00  0.00    +0.162 C 
ATOM     13  O   UNL     1      -5.047   0.619  25.298  0.00  0.00    -0.350 OA
ATOM     14  C   UNL     1      -4.566   0.390  24.668  0.00  0.00    +0.169 C 
ATOM     24  C   UNL     1      -4.200   1.066  24.367  0.00  0.00    +0.199 C 
ATOM     25  O   UNL     1      -3.673   1.091  23.734  0.00  0.00    -0.219 OA
ENDROOT
BRANCH  11  10
ATOM     10  N   UNL     1      -4.228   2.498  24.699  0.00  0.00    -0.209 NA
BRANCH  10   9
ATOM      9  C   UNL     1      -4.065   2.977  25.351  0.00  0.00    +0.115 C 
BRANCH   9   8
ATOM      5  C   UNL     1      -2.222   4.625  25.246  0.00  0.00    +0.073 A 
ATOM      6  C   UNL     1      -2.294   4.128  25.901  0.00  0.00    +0.016 A 
ATOM      7  C   UNL     1      -2.908   3.579  25.936  0.00  0.00    -0.002 A 
ATOM      8  C   UNL     1      -3.451   3.526  25.316  0.00  0.00    -0.005 A 
ATOM     26  C   UNL     1      -3.378   4.023  24.661  0.00  0.00    -0.002 A 
ATOM     27  C   UNL     1      -2.764   4.573  24.626  0.00  0.00    +0.016 A 
BRANCH   5   4
ATOM      1  C   UNL     1      -0.277   5.521  24.820  0.00  0.00    +0.097 C 
ATOM      2  C   UNL     1      -0.892   4.971  24.855  0.00  0.00    +0.246 C 
ATOM      3  O   UNL     1      -0.791   4.218  24.534  0.00  0.00    -0.273 OA
ATOM      4  N   UNL     1      -1.608   5.174  25.211  0.00  0.00    -0.179 NA
ENDBRANCH   5   4
ENDBRANCH   9   8
ENDBRANCH  10   9
ENDBRANCH  11  10
BRANCH  14  15
ATOM     15  C   UNL     1      -4.467  -0.379  24.388  0.00  0.00    +0.147 C 
BRANCH  15  16
ATOM     16  N   UNL     1      -4.030  -0.925  24.825  0.00  0.00    -0.203 NA
ATOM     17  C   UNL     1      -3.933  -1.695  24.545  0.00  0.00    +0.241 C 
ATOM     18  O   UNL     1      -4.273  -1.919  23.828  0.00  0.00    -0.273 OA
BRANCH  17  19
ATOM     19  C   UNL     1      -3.496  -2.240  24.983  0.00  0.00    +0.087 C 
BRANCH  19  20
ATOM     20  C   UNL     1      -2.855  -2.629  24.636  0.00  0.00    +0.009 C 
ATOM     21  C   UNL     1      -2.215  -3.017  24.289  0.00  0.00    +0.000 C 
ATOM     22  C   UNL     1      -2.339  -2.083  24.977  0.00  0.00    +0.000 C 
ATOM     23  C   UNL     1      -3.371  -3.175  24.294  0.00  0.00    +0.000 C 
ENDBRANCH  19  20
ENDBRANCH  17  19
ENDBRANCH  15  16
ENDBRANCH  14  15
TORSDOF 8
ENDMDL
MODEL 3
REMARK VINA RESULT:      -9.5      4.121      5.331
REMARK  Name = 
REMARK  8 active torsions:
REMARK  status: ('A' for Active; 'I' for Inactive)
REMARK    1  A    between atoms: N_4  and  C_5
REMARK    2  A    between atoms: C_8  and  C_9
REMARK    3  A    between atoms: C_9  and  N_10
REMARK    4  A    between atoms: N_10  and  C_11
REMARK    5  A    between atoms: C_14  and  C_15
REMARK    6  A    between atoms: C_15  and  N_16
REMARK    7  A    between atoms: C_17  and  C_19
REMARK    8  A    between atoms: C_19  and  C_20
REMARK                            x       y       z     vdW  Elec       q    Type
REMARK                         _______ _______ _______ _____ _____    ______ ____
ROOT
ATOM     11  C   UNL     1      -0.532   0.396  23.971  0.00  0.00    +0.135 C 
ATOM     12  C   UNL     1      -0.276  -0.343  23.708  0.00  0.00    +0.162 C 
ATOM     13  O   UNL     1       0.507  -0.267  23.458  0.00  0.00    -0.350 OA
ATOM     14  C   UNL     1       0.735   0.519  23.566  0.00  0.00    +0.169 C 
ATOM     24  C   UNL     1       0.092   0.929  23.883  0.00  0.00    +0.199 C 
ATOM     25  O   UNL     1       0.077   1.730  24.078  0.00  0.00    -0.219 OA
ENDROOT
BRANCH  11  10
ATOM     10  N   UNL     1      -1.281   0.572  24.269  0.00  0.00    -0.209 NA
BRANCH  10   9
ATOM      9  C   UNL     1      -1.895   0.028  24.186  0.00  0.00    +0.115 C 
BRANCH   9   8
ATOM      5  C   UNL     1      -4.217   0.694  24.727  0.00  0.00    +0.073 A 
ATOM      6  C   UNL     1      -3.791   0.222  25.253  0.00  0.00    +0.016 A 
ATOM      7  C   UNL     1      -3.017   0.000  25.073  0.00  0.00    -0.002 A 
ATOM      8  C   UNL     1      -2.669   0.250  24.366  0.00  0.00    -0.005 A 
ATOM     26  C   UNL     1      -3.097   0.722  23.842  0.00  0.00    -0.002 A 
ATOM     27  C   UNL     1      -3.871   0.944  24.022  0.00  0.00    +0.016 A 
BRANCH   5   4
ATOM      1  C   UNL     1      -5.918   1.885  25.401  0.00  0.00    +0.097 C 
ATOM      2  C   UNL     1      -5.144   1.663  25.221  0.00  0.00    +0.246 C 
ATOM      3  O   UNL     1      -4.522   2.189  25.354  0.00  0.00    -0.273 OA
ATOM      4  N   UNL     1      -4.991   0.916  24.907  0.00  0.00    -0.179 NA
ENDBRANCH   5   4
ENDBRANCH   9   8
ENDBRANCH  10   9
ENDBRANCH  11  10
BRANCH  14  15
ATOM     15  C   UNL     1       1.474   0.839  23.389  0.00  0.00    +0.147 C 
BRANCH  15  16
ATOM     16  N   UNL     1       2.072   0.355  23.091  0.00  0.00    -0.203 NA
ATOM     17  C   UNL     1       2.836   0.654  22.998  0.00  0.00    +0.241 C 
ATOM     18  O   UNL     1       3.000   1.436  23.203  0.00  0.00    -0.273 OA
BRANCH  17  19
ATOM     19  C   UNL     1       3.433   0.170  22.701  0.00  0.00    +0.087 C 
BRANCH  19  20
ATOM     20  C   UNL     1       4.214   0.281  22.947  0.00  0.00    +0.009 C 
ATOM     21  C   UNL     1       4.993   0.391  23.192  0.00  0.00    +0.000 C 
ATOM     22  C   UNL     1       4.267   0.955  22.474  0.00  0.00    +0.000 C 
ATOM     23  C   UNL     1       4.160  -0.393  23.420  0.00  0.00    +0.000 C 
ENDBRANCH  19  20
ENDBRANCH  17  19
ENDBRANCH  15  16
ENDBRANCH  14  15
TORSDOF 8
ENDMDL
MODEL 4
REMARK VINA RESULT:      -9.3      2.179      2.668
REMARK  Name = 
REMARK  8 active torsions:
REMARK  status: ('A' for Active; 'I' for Inactive)
REMARK    1  A    between atoms: N_4  and  C_5
REMARK    2  A    between atoms: C_8  and  C_9
REMARK    3  A    between atoms: C_9  and  N_10
REMARK    4  A    between atoms: N_10  and  C_11
REMARK    5  A    between atoms: C_14  and  C_15
REMARK    6  A    between atoms: C_15  and  N_16
REMARK    7  A    between atoms: C_17  and  C_19
REMARK    8  A    between atoms: C_19  and  C_20
REMARK                            x       y       z     vdW  Elec       q    Type
REMARK                         _______ _______ _______ _____ _____    ______ ____
ROOT
ATOM     11  C   UNL     1      -0.801   0.469  25.166  0.00  0.00    +0.135 C 
ATOM     12  C   UNL     1      -0.615   0.712  25.932  0.00  0.00    +0.162 C 
ATOM     13  O   UNL     1      -0.428   1.516  25.906  0.00  0.00    -0.350 OA
ATOM     14  C   UNL     1      -0.499   1.769  25.124  0.00  0.00    +0.169 C 
ATOM     24  C   UNL     1      -0.730   1.122  24.666  0.00  0.00    +0.199 C 
ATOM     25  O   UNL     1      -0.866   1.126  23.853  0.00  0.00    -0.219 OA
ENDROOT
BRANCH  11  10
ATOM     10  N   UNL     1      -1.021  -0.294  24.940  0.00  0.00    -0.209 NA
BRANCH  10   9
ATOM      9  C   UNL     1      -1.403  -0.789  25.476  0.00  0.00    +0.115 C 
BRANCH   9   8
ATOM      5  C   UNL     1      -3.123  -2.381  24.682  0.00  0.00    +0.073 A 
ATOM      6  C   UNL     1      -3.326  -1.791  25.222  0.00  0.00    +0.016 A 
ATOM      7  C   UNL     1      -2.753  -1.261  25.487  0.00  0.00    -0.002 A 
ATOM      8  C   UNL     1      -1.977  -1.320  25.211  0.00  0.00    -0.005 A 
ATOM     26  C   UNL     1      -1.775  -1.910  24.671  0.00  0.00    -0.002 A 
ATOM     27  C   UNL     1      -2.349  -2.440  24.406  0.00  0.00    +0.016 A 
BRANCH   5   4
ATOM      1  C   UNL     1      -4.813  -3.210  23.576  0.00  0.00    +0.097 C 
ATOM      2  C   UNL     1      -4.240  -2.680  23.841  0.00  0.00    +0.246 C 
ATOM      3  O   UNL     1      -4.208  -1.917  23.529  0.00  0.00    -0.273 OA
ATOM      4  N   UNL     1      -3.697  -2.912  24.417  0.00  0.00    -0.179 NA
ENDBRANCH   5   4
ENDBRANCH   9   8
ENDBRANCH  10   9
ENDBRANCH  11  10
BRANCH  14  15
ATOM     15  C   UNL     1      -0.364   2.534  24.847  0.00  0.00    +0.147 C 
BRANCH  15  16
ATOM     16  N   UNL     1      -0.598   3.183  25.298  0.00  0.00    -0.203 NA
ATOM     17  C   UNL     1      -0.649   3.930  24.950  0.00  0.00    +0.241 C 
ATOM     18  O   UNL     1      -0.465   4.026  24.152  0.00  0.00    -0.273 OA
BRANCH  17  19
ATOM     19  C   UNL     1      -0.884   4.579  25.402  0.00  0.00    +0.087 C 
BRANCH  19  20
ATOM     20  C   UNL     1      -1.442   5.109  25.103  0.00  0.00    +0.009 C 
ATOM     21  C   UNL     1      -1.999   5.638  24.804  0.00  0.00    +0.000 C 
ATOM     22  C   UNL     1      -0.838   5.545  24.747  0.00  0.00    +0.000 C 
ATOM     23  C   UNL     1      -2.046   4.673  25.458  0.00  0.00    +0.000 C 
ENDBRANCH  19  20
ENDBRANCH  17  19
ENDBRANCH  15  16
ENDBRANCH  14  15
TORSDOF 8
ENDMDL
MODEL 5
REMARK VINA RESULT:      -8.9      2.040      6.376
REMARK  Name = 
REMARK  8 active torsions:
REMARK  status: ('A' for Active; 'I' for Inactive)
REMARK    1  A    between atoms: N_4  and  C_5
REMARK    2  A    between atoms: C_8  and  C_9
REMARK    3  A    between atoms: C_9  and  N_10
REMARK    4  A    between atoms: N_10  and  C_11
REMARK    5  A    between atoms: C_14  and  C_15
REMARK    6  A    between atoms: C_15  and  N_16
REMARK    7  A    between atoms: C_17  and  C_19
REMARK    8  A    between atoms: C_19  and  C_20
REMARK                            x       y       z     vdW  Elec       q    Type
REMARK                         _______ _______ _______ _____ _____    ______ ____
ROOT
ATOM     11  C   UNL     1      -0.500   0.340  24.864  0.00  0.00    +0.135 C 
ATOM     12  C   UNL     1      -0.254   0.010  24.149  0.00  0.00    +0.162 C 
ATOM     13  O   UNL     1      -0.575  -0.749  24.094  0.00  0.00    -0.350 OA
ATOM     14  C   UNL     1      -1.019  -0.888  24.775  0.00  0.00    +0.169 C 
ATOM     24  C   UNL     1      -0.973  -0.215  25.251  0.00  0.00    +0.199 C 
ATOM     25  O   UNL     1      -1.336  -0.115  25.985  0.00  0.00    -0.219 OA
ENDROOT
BRANCH  11  10
ATOM     10  N   UNL     1      -0.307   1.092  25.143  0.00  0.00    -0.209 NA
BRANCH  10   9
ATOM      9  C   UNL     1      -0.024   1.664  24.622  0.00  0.00    +0.115 C 
BRANCH   9   8
ATOM      5  C   UNL     1      -0.664   4.036  24.923  0.00  0.00    +0.073 A 
ATOM      6  C   UNL     1      -0.426   3.587  25.574  0.00  0.00    +0.016 A 
ATOM      7  C   UNL     1      -0.213   2.797  25.474  0.00  0.00    -0.002 A 
ATOM      8  C   UNL     1      -0.237   2.455  24.723  0.00  0.00    -0.005 A 
ATOM     26  C   UNL     1      -0.474   2.904  24.073  0.00  0.00    -0.002 A 
ATOM     27  C   UNL     1      -0.688   3.695  24.173  0.00  0.00    +0.016 A 
BRANCH   5   4
ATOM      1  C   UNL     1      -1.881   5.820  25.244  0.00  0.00    +0.097 C 
ATOM      2  C   UNL     1      -1.668   5.029  25.143  0.00  0.00    +0.246 C 
ATOM      3  O   UNL     1      -2.245   4.440  25.162  0.00  0.00    -0.273 OA
ATOM      4  N   UNL     1      -0.877   4.827  25.024  0.00  0.00    -0.179 NA
ENDBRANCH   5   4
ENDBRANCH   9   8
ENDBRANCH  10   9
ENDBRANCH  11  10
BRANCH  14  15
ATOM     15  C   UNL     1      -1.436  -1.577  24.950  0.00  0.00    +0.147 C 
BRANCH  15  16
ATOM     16  N   UNL     1      -2.260  -1.564  24.984  0.00  0.00    -0.203 NA
ATOM     17  C   UNL     1      -2.691  -2.250  24.824  0.00  0.00    +0.241 C 
ATOM     18  O   UNL     1      -2.297  -2.948  24.630  0.00  0.00    -0.273 OA
BRANCH  17  19
ATOM     19  C   UNL     1      -3.515  -2.235  24.858  0.00  0.00    +0.087 C 
BRANCH  19  20
ATOM     20  C   UNL     1      -3.958  -2.413  24.185  0.00  0.00    +0.009 C 
ATOM     21  C   UNL     1      -4.401  -2.590  23.512  0.00  0.00    +0.000 C 
ATOM     22  C   UNL     1      -4.157  -1.616  24.105  0.00  0.00    +0.000 C 
ATOM     23  C   UNL     1      -3.760  -3.210  24.263  0.00  0.00    +0.000 C 
ENDBRANCH  19  20
ENDBRANCH  17  19
ENDBRANCH  15  16
ENDBRANCH  14  15
TORSDOF 8
ENDMDL
MODEL 6
REMARK VINA RESULT:      -8.9      4.787      5.975
REMARK  Name = 
REMARK  8 active torsions:
REMARK  status: ('A' for Active; 'I' for Inactive)
REMARK    1  A    between atoms: N_4  and  C_5
REMARK    2  A    between atoms: C_8  and  C_9
REMARK    3  A    between atoms: C_9  and  N_10
REMARK    4  A    between atoms: N_10  and  C_11
REMARK    5  A    between atoms: C_14  and  C_15
REMARK    6  A    between atoms: C_15  and  N_16
REMARK    7  A    between atoms: C_17  and  C_19
REMARK    8  A    between atoms: C_19  and  C_20
REMARK                            x       y       z     vdW  Elec       q    Type
REMARK                         _______ _______ _______ _____ _____    ______ ____
ROOT
ATOM     11  C   UNL     1       0.487   0.747  23.695  0.00  0.00    +0.135 C 
ATOM     12  C   UNL     1       0.003   0.143  23.411  0.00  0.00    +0.162 C 
ATOM     13  O   UNL     1      -0.773   0.308  23.640  0.00  0.00    -0.350 OA
ATOM     14  C   UNL     1      -0.768   1.015  24.065  0.00  0.00    +0.169 C 
ATOM     24  C   UNL     1       0.011   1.287  24.099  0.00  0.00    +0.199 C 
ATOM     25  O   UNL     1       0.268   1.976  24.472  0.00  0.00    -0.219 OA
ENDROOT
BRANCH  11  10
ATOM     10  N   UNL     1       1.304   0.803  23.592  0.00  0.00    -0.209 NA
BRANCH  10   9
ATOM      9  C   UNL     1       1.671   0.389  22.982  0.00  0.00    +0.115 C 
BRANCH   9   8
ATOM      5  C   UNL     1       4.140   0.235  22.904  0.00  0.00    +0.073 A 
ATOM      6  C   UNL     1       3.768   0.958  22.764  0.00  0.00    +0.016 A 
ATOM      7  C   UNL     1       2.945   1.009  22.790  0.00  0.00    -0.002 A 
ATOM      8  C   UNL     1       2.494   0.337  22.956  0.00  0.00    -0.005 A 
ATOM     26  C   UNL     1       2.868  -0.385  23.096  0.00  0.00    -0.002 A 
ATOM     27  C   UNL     1       3.691  -0.436  23.070  0.00  0.00    +0.016 A 
BRANCH   5   4
ATOM      1  C   UNL     1       6.226   0.189  23.547  0.00  0.00    +0.097 C 
ATOM      2  C   UNL     1       5.403   0.241  23.573  0.00  0.00    +0.246 C 
ATOM      3  O   UNL     1       5.019   0.349  24.295  0.00  0.00    -0.273 OA
ATOM      4  N   UNL     1       4.963   0.184  22.878  0.00  0.00    -0.179 NA
ENDBRANCH   5   4
ENDBRANCH   9   8
ENDBRANCH  10   9
ENDBRANCH  11  10
BRANCH  14  15
ATOM     15  C   UNL     1      -1.425   1.386  24.398  0.00  0.00    +0.147 C 
BRANCH  15  16
ATOM     16  N   UNL     1      -2.167   1.304  24.047  0.00  0.00    -0.203 NA
ATOM     17  C   UNL     1      -2.830   1.647  24.399  0.00  0.00    +0.241 C 
ATOM     18  O   UNL     1      -2.750   2.071  25.102  0.00  0.00    -0.273 OA
BRANCH  17  19
ATOM     19  C   UNL     1      -3.571   1.565  24.048  0.00  0.00    +0.087 C 
BRANCH  19  20
ATOM     20  C   UNL     1      -4.240   1.877  24.418  0.00  0.00    +0.009 C 
ATOM     21  C   UNL     1      -4.907   2.190  24.787  0.00  0.00    +0.000 C 
ATOM     22  C   UNL     1      -4.102   2.605  24.053  0.00  0.00    +0.000 C 
ATOM     23  C   UNL     1      -4.378   1.151  24.782  0.00  0.00    +0.000 C 
ENDBRANCH  19  20
ENDBRANCH  17  19
ENDBRANCH  15  16
ENDBRANCH  14  15
TORSDOF 8
ENDMDL
