MODEL 1
REMARK VINA RESULT:     -11.7      0.000      0.000
REMARK  Name = 
REMARK  8 active torsions:
REMARK  status: ('A' for Active; 'I' for Inactive)
REMARK    1  A    between atoms: O_2  and  C_3
REMARK    2  A    between atoms: C_6  and  C_9
REMARK    3  A    between atoms: C_12  and  C_13
REMARK    4  A    between atoms: C_13  and  C_14
REMARK    5  A    between atoms: C_16  and  C_17
REMARK    6  A    between atoms: C_20  and  C_21
REMARK    7  A    between atoms: C_21  and  N_22
REMARK    8  A    between atoms: C_23  and  C_25
REMARK                            x       y       z     vdW  Elec       q    Type
REMARK                         _______ _______ _______ _____ _____    ______ ____
ROOT
ATOM     14  C   UNL     1      -4.649   1.703  24.774  0.00  0.00    +0.027 C 
ATOM     15  C   UNL     1      -3.981   1.612  24.297  0.00  0.00    +0.005 C 
ATOM     16  C   UNL     1      -3.714   0.856  24.102  0.00  0.00    +0.006 C 
ATOM     20  C   UNL     1      -4.113   0.192  24.383  0.00  0.00    +0.043 C 
ATOM     32  C   UNL     1      -4.781   0.283  24.859  0.00  0.00    -0.033 C 
ATOM     33  C   UNL     1      -5.048   1.038  25.054  0.00  0.00    -0.048 C 
ATOM     34  C   UNL     1      -5.716   1.129  25.531  0.00  0.00    +0.026 C 
ENDROOT
BRANCH  16  17
ATOM     17  C   UNL     1      -3.046   0.765  23.626  0.00  0.00    +0.000 C 
ATOM     18  C   UNL     1      -2.298   0.719  23.969  0.00  0.00    +0.000 C 
ATOM     19  C   UNL     1      -3.127   0.721  22.805  0.00  0.00    +0.000 C 
ENDBRANCH  16  17
BRANCH  14  13
ATOM     13  C   UNL     1      -4.917   2.458  24.969  0.00  0.00    +0.091 C 
BRANCH  13  12
ATOM      9  C   UNL     1      -3.348   3.810  25.489  0.00  0.00    +0.250 A 
ATOM     10  N   UNL     1      -3.851   3.893  26.137  0.00  0.00    -0.107 NA
ATOM     11  N   UNL     1      -4.500   3.396  26.021  0.00  0.00    -0.111 NA
ATOM     12  C   UNL     1      -4.398   3.006  25.301  0.00  0.00    +0.227 A 
ATOM     35  O   UNL     1      -3.686   3.262  24.972  0.00  0.00    -0.420 OA
BRANCH   9   6
ATOM      3  C   UNL     1      -1.202   4.995  25.151  0.00  0.00    +0.139 A 
ATOM      4  C   UNL     1      -1.913   5.368  24.964  0.00  0.00    +0.037 A 
ATOM      5  C   UNL     1      -2.629   4.973  25.077  0.00  0.00    +0.008 A 
ATOM      6  C   UNL     1      -2.633   4.205  25.376  0.00  0.00    +0.055 A 
ATOM      7  C   UNL     1      -1.921   3.831  25.564  0.00  0.00    +0.008 A 
ATOM      8  C   UNL     1      -1.206   4.226  25.451  0.00  0.00    +0.037 A 
BRANCH   3   2
ATOM      1  C   UNL     1      -0.069   5.294  24.333  0.00  0.00    +0.252 C 
ATOM      2  O   UNL     1      -0.486   5.390  25.039  0.00  0.00    -0.471 OA
ENDBRANCH   3   2
ENDBRANCH   9   6
ENDBRANCH  13  12
ENDBRANCH  14  13
BRANCH  20  21
ATOM     21  C   UNL     1      -3.846  -0.564  24.188  0.00  0.00    +0.120 C 
BRANCH  21  22
ATOM     22  N   UNL     1      -4.380  -1.137  23.932  0.00  0.00    -0.201 NA
ATOM     23  C   UNL     1      -4.197  -1.938  24.015  0.00  0.00    +0.265 C 
ATOM     24  O   UNL     1      -4.732  -2.511  23.759  0.00  0.00    -0.268 OA
BRANCH  23  25
ATOM     25  C   UNL     1      -3.480  -2.165  24.354  0.00  0.00    +0.055 A 
ATOM     26  C   UNL     1      -2.842  -2.367  23.871  0.00  0.00    +0.007 A 
ATOM     27  C   UNL     1      -2.125  -2.594  24.210  0.00  0.00    +0.030 A 
ATOM     28  C   UNL     1      -2.045  -2.618  25.031  0.00  0.00    +0.140 A 
ATOM     29  F   UNL     1      -1.328  -2.845  25.369  0.00  0.00    -0.204 F 
ATOM     30  C   UNL     1      -2.684  -2.416  25.513  0.00  0.00    +0.030 A 
ATOM     31  C   UNL     1      -3.401  -2.189  25.174  0.00  0.00    +0.007 A 
ENDBRANCH  23  25
ENDBRANCH  21  22
ENDBRANCH  20  21
TORSDOF 8
ENDMDL
MODEL 2
REMARK VINA RESULT:     -10.8      3.957      5.111
REMARK  Name = 
REMARK  8 active torsions:
REMARK  status: ('A' for Active; 'I' for Inactive)
REMARK    1  A    between atoms: O_2  and  C_3
REMARK    2  A    between atoms: C_6  and  C_9
REMARK    3  A    between atoms: C_12  and  C_13
REMARK    4  A    between atoms: C_13  and  C_14
REMARK    5  A    between atoms: C_16  and  C_17
REMARK    6  A    between atoms: C_20  and  C_21
REMARK    7  A    between atoms: C_21  and  N_22
REMARK    8  A    between atoms: C_23  and  C_25
REMARK                            x       y       z     vdW  Elec       q    Type
REMARK                         _______ _______ _______ _____ _____    ______ ____
ROOT
ATOM     14  C   UNL     1      -0.406   0.842  23.954  0.00  0.00    +0.027 C 
ATOM     15  C   UNL     1      -0.261   0.198  24.450  0.00  0.00    +0.005 C 
ATOM     16  C   UNL     1      -0.893  -0.232  24.762  0.00  0.00    +0.006 C 
ATOM     20  C   UNL     1      -1.668  -0.020  24.577  0.00  0.00    +0.043 C 
ATOM     32  C   UNL     1      -1.813   0.624  24.081  0.00  0.00    -0.033 C 
ATOM     33  C   UNL     1      -1.181   1.054  23.770  0.00  0.00    -0.048 C 
ATOM     34  C   UNL     1      -1.326   1.697  23.274  0.00  0.00    +0.026 C 
ENDROOT
BRANCH  16  17
ATOM     17  C   UNL     1      -0.748  -0.876  25.258  0.00  0.00    +0.000 C 
ATOM     18  C   UNL     1      -0.778  -0.780  26.076  0.00  0.00    +0.000 C 
ATOM     19  C   UNL     1      -0.573  -1.615  24.935  0.00  0.00    +0.000 C 
ENDBRANCH  16  17
BRANCH  14  13
ATOM     13  C   UNL     1       0.224   1.272  23.643  0.00  0.00    +0.091 C 
BRANCH  13  12
ATOM      9  C   UNL     1       2.090   0.472  22.982  0.00  0.00    +0.250 A 
ATOM     10  N   UNL     1       1.563   0.080  22.483  0.00  0.00    -0.107 NA
ATOM     11  N   UNL     1       0.800   0.332  22.670  0.00  0.00    -0.111 NA
ATOM     12  C   UNL     1       0.855   0.880  23.284  0.00  0.00    +0.227 A 
ATOM     35  O   UNL     1       1.653   0.967  23.477  0.00  0.00    -0.420 OA
BRANCH   9   6
ATOM      3  C   UNL     1       4.551   0.212  22.992  0.00  0.00    +0.139 A 
ATOM      4  C   UNL     1       4.069  -0.411  23.237  0.00  0.00    +0.037 A 
ATOM      5  C   UNL     1       3.249  -0.324  23.234  0.00  0.00    +0.008 A 
ATOM      6  C   UNL     1       2.910   0.385  22.985  0.00  0.00    +0.055 A 
ATOM      7  C   UNL     1       3.392   1.009  22.740  0.00  0.00    +0.008 A 
ATOM      8  C   UNL     1       4.212   0.922  22.743  0.00  0.00    +0.037 A 
BRANCH   3   2
ATOM      1  C   UNL     1       5.762  -0.082  23.692  0.00  0.00    +0.252 C 
ATOM      2  O   UNL     1       5.372   0.125  22.995  0.00  0.00    -0.471 OA
ENDBRANCH   3   2
ENDBRANCH   9   6
ENDBRANCH  13  12
ENDBRANCH  14  13
BRANCH  20  21
ATOM     21  C   UNL     1      -2.299  -0.451  24.889  0.00  0.00    +0.120 C 
BRANCH  21  22
ATOM     22  N   UNL     1      -2.950  -0.057  25.206  0.00  0.00    -0.201 NA
ATOM     23  C   UNL     1      -3.692  -0.420  25.207  0.00  0.00    +0.265 C 
ATOM     24  O   UNL     1      -4.343  -0.026  25.524  0.00  0.00    -0.268 OA
BRANCH  23  25
ATOM     25  C   UNL     1      -3.781  -1.177  24.891  0.00  0.00    +0.055 A 
ATOM     26  C   UNL     1      -3.636  -1.840  25.361  0.00  0.00    +0.007 A 
ATOM     27  C   UNL     1      -3.726  -2.596  25.045  0.00  0.00    +0.030 A 
ATOM     28  C   UNL     1      -3.960  -2.691  24.259  0.00  0.00    +0.140 A 
ATOM     29  F   UNL     1      -4.049  -3.447  23.945  0.00  0.00    -0.204 F 
ATOM     30  C   UNL     1      -4.104  -2.028  23.790  0.00  0.00    +0.030 A 
ATOM     31  C   UNL     1      -4.015  -1.271  24.106  0.00  0.00    +0.007 A 
ENDBRANCH  23  25
ENDBRANCH  21  22
ENDBRANCH  20  21
TORSDOF 8
ENDMDL
MODEL 3
REMARK VINA RESULT:     -10.6      1.739      5.392
REMARK  Name = 
REMARK  8 active torsions:
REMARK  status: ('A' for Active; 'I' for Inactive)
REMARK    1  A    between atoms: O_2  and  C_3
REMARK    2  A    between atoms: C_6  and  C_9
REMARK    3  A    between atoms: C_12  and  C_13
REMARK    4  A    between atoms: C_13  and  C_14
REMARK    5  A    between atoms: C_16  and  C_17
REMARK    6  A    between atoms: C_20  and  C_21
REMARK    7  A    between atoms: C_21  and  N_22
REMARK    8  A    between atoms: C_23  and  C_25
REMARK                            x       y       z     vdW  Elec       q    Type
REMARK                         _______ _______ _______ _____ _____    ______ ____
ROOT
ATOM     14  C   UNL     1      -4.530   1.025  24.552  0.00  0.00    +0.027 C 
ATOM     15  C   UNL     1      -4.128   1.361  23.914  0.00  0.00    +0.005 C 
ATOM     16  C   UNL     1      -3.751   2.090  24.002  0.00  0.00    +0.006 C 
ATOM     20  C   UNL     1      -3.776   2.483  24.727  0.00  0.00    +0.043 C 
ATOM     32  C   UNL     1      -4.178   2.147  25.365  0.00  0.00    -0.033 C 
ATOM     33  C   UNL     1      -4.554   1.418  25.277  0.00  0.00    -0.048 C 
ATOM     34  C   UNL     1      -4.956   1.083  25.915  0.00  0.00    +0.026 C 
ENDROOT
BRANCH  16  17
ATOM     17  C   UNL     1      -3.350   2.426  23.364  0.00  0.00    +0.000 C 
ATOM     18  C   UNL     1      -2.602   2.149  23.156  0.00  0.00    +0.000 C 
ATOM     19  C   UNL     1      -3.697   3.040  22.935  0.00  0.00    +0.000 C 
ENDBRANCH  16  17
BRANCH  14  13
ATOM     13  C   UNL     1      -4.907   0.297  24.465  0.00  0.00    +0.091 C 
BRANCH  13  12
ATOM      9  C   UNL     1      -3.482  -1.289  24.344  0.00  0.00    +0.250 A 
ATOM     10  N   UNL     1      -4.076  -1.569  23.844  0.00  0.00    -0.107 NA
ATOM     11  N   UNL     1      -4.682  -1.009  23.829  0.00  0.00    -0.111 NA
ATOM     12  C   UNL     1      -4.463  -0.382  24.319  0.00  0.00    +0.227 A 
ATOM     35  O   UNL     1      -3.721  -0.555  24.637  0.00  0.00    -0.420 OA
BRANCH   9   6
ATOM      3  C   UNL     1      -1.358  -2.443  24.870  0.00  0.00    +0.139 A 
ATOM      4  C   UNL     1      -1.374  -1.622  24.798  0.00  0.00    +0.037 A 
ATOM      5  C   UNL     1      -2.082  -1.237  24.623  0.00  0.00    +0.008 A 
ATOM      6  C   UNL     1      -2.775  -1.673  24.519  0.00  0.00    +0.055 A 
ATOM      7  C   UNL     1      -2.759  -2.495  24.591  0.00  0.00    +0.008 A 
ATOM      8  C   UNL     1      -2.050  -2.880  24.766  0.00  0.00    +0.037 A 
BRANCH   3   2
ATOM      1  C   UNL     1      -0.021  -2.406  25.374  0.00  0.00    +0.252 C 
ATOM      2  O   UNL     1      -0.649  -2.828  25.046  0.00  0.00    -0.471 OA
ENDBRANCH   3   2
ENDBRANCH   9   6
ENDBRANCH  13  12
ENDBRANCH  14  13
BRANCH  20  21
ATOM     21  C   UNL     1      -3.399   3.212  24.815  0.00  0.00    +0.120 C 
BRANCH  21  22
ATOM     22  N   UNL     1      -3.704   3.773  25.336  0.00  0.00    -0.201 NA
ATOM     23  C   UNL     1      -3.195   4.296  25.723  0.00  0.00    +0.265 C 
ATOM     24  O   UNL     1      -3.500   4.858  26.244  0.00  0.00    -0.268 OA
BRANCH  23  25
ATOM     25  C   UNL     1      -2.382   4.256  25.588  0.00  0.00    +0.055 A 
ATOM     26  C   UNL     1      -2.025   4.784  25.065  0.00  0.00    +0.007 A 
ATOM     27  C   UNL     1      -1.212   4.744  24.931  0.00  0.00    +0.030 A 
ATOM     28  C   UNL     1      -0.756   4.177  25.319  0.00  0.00    +0.140 A 
ATOM     29  F   UNL     1       0.056   4.137  25.185  0.00  0.00    -0.204 F 
ATOM     30  C   UNL     1      -1.114   3.649  25.842  0.00  0.00    +0.030 A 
ATOM     31  C   UNL     1      -1.927   3.688  25.977  0.00  0.00    +0.007 A 
ENDBRANCH  23  25
ENDBRANCH  21  22
ENDBRANCH  20  21
TORSDOF 8
ENDMDL
MODEL 4
REMARK VINA RESULT:     -10.5      2.043      3.312
REMARK  Name = 
REMARK  8 active torsions:
REMARK  status: ('A' for Active; 'I' for Inactive)
REMARK    1  A    between atoms: O_2  and  C_3
REMARK    2  A    between atoms: C_6  and  C_9
REMARK    3  A    between atoms: C_12  and  C_13
REMARK    4  A    between atoms: C_13  and  C_14
REMARK    5  A    between atoms: C_16  and  C_17
REMARK    6  A    between atoms: C_20  and  C_21
REMARK    7  A    between atoms: C_21  and  N_22
REMARK    8  A    between atoms: C_23  and  C_25
REMARK                            x       y       z     vdW  Elec       q    Type
REMARK                         _______ _______ _______ _____ _____    ______ ____
ROOT
ATOM     14  C   UNL     1      -0.560   2.194  25.142  0.00  0.00    +0.027 C 
ATOM     15  C   UNL     1      -0.747   1.931  24.382  0.00  0.00    +0.005 C 
ATOM     16  C   UNL     1      -0.832   1.123  24.235  0.00  0.00    +0.006 C 
ATOM     20  C   UNL     1      -0.731   0.580  24.847  0.00  0.00    +0.043 C 
ATOM     32  C   UNL     1      -0.544   0.843  25.606  0.00  0.00    -0.033 C 
ATOM     33  C   UNL     1      -0.459   1.650  25.753  0.00  0.00    -0.048 C 
ATOM     34  C   UNL     1      -0.271   1.913  26.513  0.00  0.00    +0.026 C 
ENDROOT
BRANCH  16  17
ATOM     17  C   UNL     1      -1.019   0.860  23.476  0.00  0.00    +0.000 C 
ATOM     18  C   UNL     1      -0.427   0.566  22.983  0.00  0.00    +0.000 C 
ATOM     19  C   UNL     1      -1.800   0.890  23.209  0.00  0.00    +0.000 C 
ENDBRANCH  16  17
BRANCH  14  13
ATOM     13  C   UNL     1      -0.475   3.001  25.289  0.00  0.00    +0.091 C 
BRANCH  13  12
ATOM      9  C   UNL     1      -2.396   3.932  25.297  0.00  0.00    +0.250 A 
ATOM     10  N   UNL     1      -1.904   4.584  25.185  0.00  0.00    -0.107 NA
ATOM     11  N   UNL     1      -1.124   4.314  25.168  0.00  0.00    -0.111 NA
ATOM     12  C   UNL     1      -1.134   3.496  25.270  0.00  0.00    +0.227 A 
ATOM     35  O   UNL     1      -1.921   3.259  25.350  0.00  0.00    -0.420 OA
BRANCH   9   6
ATOM      3  C   UNL     1      -4.865   3.983  25.449  0.00  0.00    +0.139 A 
ATOM      4  C   UNL     1      -4.410   3.974  26.136  0.00  0.00    +0.037 A 
ATOM      5  C   UNL     1      -3.587   3.957  26.086  0.00  0.00    +0.008 A 
ATOM      6  C   UNL     1      -3.218   3.949  25.348  0.00  0.00    +0.055 A 
ATOM      7  C   UNL     1      -3.674   3.958  24.659  0.00  0.00    +0.008 A 
ATOM      8  C   UNL     1      -4.498   3.974  24.710  0.00  0.00    +0.037 A 
BRANCH   3   2
ATOM      1  C   UNL     1      -6.105   3.311  25.685  0.00  0.00    +0.252 C 
ATOM      2  O   UNL     1      -5.689   4.000  25.500  0.00  0.00    -0.471 OA
ENDBRANCH   3   2
ENDBRANCH   9   6
ENDBRANCH  13  12
ENDBRANCH  14  13
BRANCH  20  21
ATOM     21  C   UNL     1      -0.816  -0.228  24.700  0.00  0.00    +0.120 C 
BRANCH  21  22
ATOM     22  N   UNL     1      -0.293  -0.767  25.040  0.00  0.00    -0.201 NA
ATOM     23  C   UNL     1      -0.547  -1.531  25.220  0.00  0.00    +0.265 C 
ATOM     24  O   UNL     1      -0.023  -2.070  25.561  0.00  0.00    -0.268 OA
BRANCH  23  25
ATOM     25  C   UNL     1      -1.324  -1.757  25.059  0.00  0.00    +0.055 A 
ATOM     26  C   UNL     1      -1.495  -2.187  24.376  0.00  0.00    +0.007 A 
ATOM     27  C   UNL     1      -2.272  -2.413  24.215  0.00  0.00    +0.030 A 
ATOM     28  C   UNL     1      -2.878  -2.208  24.736  0.00  0.00    +0.140 A 
ATOM     29  F   UNL     1      -3.654  -2.433  24.574  0.00  0.00    -0.204 F 
ATOM     30  C   UNL     1      -2.706  -1.777  25.418  0.00  0.00    +0.030 A 
ATOM     31  C   UNL     1      -1.929  -1.552  25.579  0.00  0.00    +0.007 A 
ENDBRANCH  23  25
ENDBRANCH  21  22
ENDBRANCH  20  21
TORSDOF 8
ENDMDL
MODEL 5
REMARK VINA RESULT:     -10.4      2.220      6.008
REMARK  Name = 
REMARK  8 active torsions:
REMARK  status: ('A' for Active; 'I' for Inactive)
REMARK    1  A    between atoms: O_2  and  C_3
REMARK    2  A    between atoms: C_6  and  C_9
REMARK    3  A    between atoms: C_12  and  C_13
REMARK    4  A    between atoms: C_13  and  C_14
REMARK    5  A    between atoms: C_16  and  C_17
REMARK    6  A    between atoms: C_20  and  C_21
REMARK    7  A    between atoms: C_21  and  N_22
REMARK    8  A    between atoms: C_23  and  C_25
REMARK                            x       y       z     vdW  Elec       q    Type
REMARK                         _______ _______ _______ _____ _____    ______ ____
ROOT
ATOM     14  C   UNL     1      -0.778   1.016  24.693  0.00  0.00    +0.027 C 
ATOM     15  C   UNL     1      -1.300   1.098  24.059  0.00  0.00    +0.005 C 
ATOM     16  C   UNL     1      -1.801   1.753  24.021  0.00  0.00    +0.006 C 
ATOM     20  C   UNL     1      -1.781   2.324  24.615  0.00  0.00    +0.043 C 
ATOM     32  C   UNL     1      -1.258   2.242  25.249  0.00  0.00    -0.033 C 
ATOM     33  C   UNL     1      -0.758   1.588  25.287  0.00  0.00    -0.048 C 
ATOM     34  C   UNL     1      -0.235   1.506  25.921  0.00  0.00    +0.026 C 
ENDROOT
BRANCH  16  17
ATOM     17  C   UNL     1      -2.324   1.835  23.387  0.00  0.00    +0.000 C 
ATOM     18  C   UNL     1      -2.100   2.268  22.722  0.00  0.00    +0.000 C 
ATOM     19  C   UNL     1      -3.070   1.484  23.419  0.00  0.00    +0.000 C 
ENDBRANCH  16  17
BRANCH  14  13
ATOM     13  C   UNL     1      -0.277   0.363  24.733  0.00  0.00    +0.091 C 
BRANCH  13  12
ATOM      9  C   UNL     1      -1.426  -1.433  24.847  0.00  0.00    +0.250 A 
ATOM     10  N   UNL     1      -0.720  -1.673  25.200  0.00  0.00    -0.107 NA
ATOM     11  N   UNL     1      -0.203  -1.029  25.200  0.00  0.00    -0.111 NA
ATOM     12  C   UNL     1      -0.590  -0.391  24.847  0.00  0.00    +0.227 A 
ATOM     35  O   UNL     1      -1.346  -0.641  24.629  0.00  0.00    -0.420 OA
BRANCH   9   6
ATOM      3  C   UNL     1      -3.431  -2.840  24.502  0.00  0.00    +0.139 A 
ATOM      4  C   UNL     1      -2.742  -2.994  24.078  0.00  0.00    +0.037 A 
ATOM      5  C   UNL     1      -2.073  -2.525  24.193  0.00  0.00    +0.008 A 
ATOM      6  C   UNL     1      -2.094  -1.901  24.732  0.00  0.00    +0.055 A 
ATOM      7  C   UNL     1      -2.785  -1.747  25.157  0.00  0.00    +0.008 A 
ATOM      8  C   UNL     1      -3.453  -2.216  25.042  0.00  0.00    +0.037 A 
BRANCH   3   2
ATOM      1  C   UNL     1      -4.611  -3.153  23.758  0.00  0.00    +0.252 C 
ATOM      2  O   UNL     1      -4.101  -3.310  24.387  0.00  0.00    -0.471 OA
ENDBRANCH   3   2
ENDBRANCH   9   6
ENDBRANCH  13  12
ENDBRANCH  14  13
BRANCH  20  21
ATOM     21  C   UNL     1      -2.282   2.979  24.576  0.00  0.00    +0.120 C 
BRANCH  21  22
ATOM     22  N   UNL     1      -1.993   3.731  24.752  0.00  0.00    -0.201 NA
ATOM     23  C   UNL     1      -2.494   4.298  25.081  0.00  0.00    +0.265 C 
ATOM     24  O   UNL     1      -2.204   5.051  25.256  0.00  0.00    -0.268 OA
BRANCH  23  25
ATOM     25  C   UNL     1      -3.283   4.114  25.234  0.00  0.00    +0.055 A 
ATOM     26  C   UNL     1      -3.853   4.223  24.648  0.00  0.00    +0.007 A 
ATOM     27  C   UNL     1      -4.642   4.038  24.801  0.00  0.00    +0.030 A 
ATOM     28  C   UNL     1      -4.862   3.745  25.541  0.00  0.00    +0.140 A 
ATOM     29  F   UNL     1      -5.650   3.560  25.693  0.00  0.00    -0.204 F 
ATOM     30  C   UNL     1      -4.291   3.636  26.126  0.00  0.00    +0.030 A 
ATOM     31  C   UNL     1      -3.502   3.821  25.973  0.00  0.00    +0.007 A 
ENDBRANCH  23  25
ENDBRANCH  21  22
ENDBRANCH  20  21
TORSDOF 8
ENDMDL
MODEL 6
REMARK VINA RESULT:     -10.1      3.265      5.149
REMARK  Name = 
REMARK  8 active torsions:
REMARK  status: ('A' for Active; 'I' for Inactive)
REMARK    1  A    between atoms: O_2  and  C_3
REMARK    2  A    between atoms: C_6  and  C_9
REMARK    3  A    between atoms: C_12  and  C_13
REMARK    4  A    between atoms: C_13  and  C_14
REMARK    5  A    between atoms: C_16  and  C_17
REMARK    6  A    between atoms: C_20  and  C_21
REMARK    7  A    between atoms: C_21  and  N_22
REMARK    8  A    between atoms: C_23  and  C_25
REMARK                            x       y       z     vdW  Elec       q    Type
REMARK                         _______ _______ _______ _____ _____    ______ ____
ROOT
ATOM     14  C   UNL     1      -1.577   0.439  25.112  0.00  0.00    +0.027 C 
ATOM     15  C   UNL     1      -2.185  -0.047  24.836  0.00  0.00    +0.005 C 
ATOM     16  C   UNL     1      -2.924   0.277  24.662  0.00  0.00    +0.006 C 
ATOM     20  C   UNL     1      -3.055   1.085  24.764  0.00  0.00    +0.043 C 
ATOM     32  C   UNL     1      -2.447   1.570  25.040  0.00  0.00    -0.033 C 
ATOM     33  C   UNL     1      -1.709   1.246  25.213  0.00  0.00    -0.048 C 
ATOM     34  C   UNL     1      -1.101   1.732  25.489  0.00  0.00    +0.026 C 
ENDROOT
BRANCH  16  17
ATOM     17  C   UNL     1      -3.532  -0.208  24.386  0.00  0.00    +0.000 C 
ATOM     18  C   UNL     1      -3.685  -0.258  23.577  0.00  0.00    +0.000 C 
ATOM     19  C   UNL     1      -3.987  -0.644  24.920  0.00  0.00    +0.000 C 
ENDBRANCH  16  17
BRANCH  14  13
ATOM     13  C   UNL     1      -0.839   0.116  25.286  0.00  0.00    +0.091 C 
BRANCH  13  12
ATOM      9  C   UNL     1       0.566  -0.313  23.736  0.00  0.00    +0.250 A 
ATOM     10  N   UNL     1       0.139  -1.018  23.763  0.00  0.00    -0.107 NA
ATOM     11  N   UNL     1      -0.440  -0.943  24.347  0.00  0.00    -0.111 NA
ATOM     12  C   UNL     1      -0.370  -0.192  24.681  0.00  0.00    +0.227 A 
ATOM     35  O   UNL     1       0.252   0.198  24.304  0.00  0.00    -0.420 OA
BRANCH   9   6
ATOM      3  C   UNL     1       2.458   0.184  22.222  0.00  0.00    +0.139 A 
ATOM      4  C   UNL     1       2.471   0.456  23.000  0.00  0.00    +0.037 A 
ATOM      5  C   UNL     1       1.840   0.291  23.505  0.00  0.00    +0.008 A 
ATOM      6  C   UNL     1       1.196  -0.148  23.232  0.00  0.00    +0.055 A 
ATOM      7  C   UNL     1       1.184  -0.420  22.453  0.00  0.00    +0.008 A 
ATOM      8  C   UNL     1       1.815  -0.255  21.948  0.00  0.00    +0.037 A 
BRANCH   3   2
ATOM      1  C   UNL     1       3.828   0.545  22.029  0.00  0.00    +0.252 C 
ATOM      2  O   UNL     1       3.090   0.350  21.716  0.00  0.00    -0.471 OA
ENDBRANCH   3   2
ENDBRANCH   9   6
ENDBRANCH  13  12
ENDBRANCH  14  13
BRANCH  20  21
ATOM     21  C   UNL     1      -3.794   1.409  24.590  0.00  0.00    +0.120 C 
BRANCH  21  22
ATOM     22  N   UNL     1      -3.848   2.089  24.127  0.00  0.00    -0.201 NA
ATOM     23  C   UNL     1      -4.469   2.619  24.244  0.00  0.00    +0.265 C 
ATOM     24  O   UNL     1      -4.523   3.299  23.781  0.00  0.00    -0.268 OA
BRANCH  23  25
ATOM     25  C   UNL     1      -5.036   2.469  24.824  0.00  0.00    +0.055 A 
ATOM     26  C   UNL     1      -5.699   2.011  24.643  0.00  0.00    +0.007 A 
ATOM     27  C   UNL     1      -6.266   1.861  25.223  0.00  0.00    +0.030 A 
ATOM     28  C   UNL     1      -6.172   2.168  25.983  0.00  0.00    +0.140 A 
ATOM     29  F   UNL     1      -6.739   2.018  26.562  0.00  0.00    -0.204 F 
ATOM     30  C   UNL     1      -5.509   2.626  26.162  0.00  0.00    +0.030 A 
ATOM     31  C   UNL     1      -4.942   2.776  25.583  0.00  0.00    +0.007 A 
ENDBRANCH  23  25
ENDBRANCH  21  22
ENDBRANCH  20  21
TORSDOF 8
ENDMDL
MODEL 7
REMARK VINA RESULT:     -10.1      2.374      5.133
REMARK  Name = 
REMARK  8 active torsions:
REMARK  status: ('A' for Active; 'I' for Inactive)
REMARK    1  A    between atoms: O_2  and  C_3
REMARK    2  A    between atoms: C_6  and  C_9
REMARK    3  A    between atoms: C_12  and  C_13
REMARK    4  A    between atoms: C_13  and  C_14
REMARK    5  A    between atoms: C_16  and  C_17
REMARK    6  A    between atoms: C_20  and  C_21
REMARK    7  A    between atoms: C_21  and  N_22
REMARK    8  A    between atoms: C_23  and  C_25
REMARK                            x       y       z     vdW  Elec       q    Type
REMARK                         _______ _______ _______ _____ _____    ______ ____
ROOT
ATOM     14  C   UNL     1      -1.664   3.076  24.714  0.00  0.00    +0.027 C 
ATOM     15  C   UNL     1      -2.108   2.801  24.075  0.00  0.00    +0.005 C 
ATOM     16  C   UNL     1      -2.931   2.861  24.089  0.00  0.00    +0.006 C 
ATOM     20  C   UNL     1      -3.310   3.195  24.741  0.00  0.00    +0.043 C 
ATOM     32  C   UNL     1      -2.866   3.470  25.380  0.00  0.00    -0.033 C 
ATOM     33  C   UNL     1      -2.044   3.410  25.366  0.00  0.00    -0.048 C 
ATOM     34  C   UNL     1      -1.600   3.685  26.005  0.00  0.00    +0.026 C 
ENDROOT
BRANCH  16  17
ATOM     17  C   UNL     1      -3.375   2.586  23.450  0.00  0.00    +0.000 C 
ATOM     18  C   UNL     1      -3.565   1.786  23.393  0.00  0.00    +0.000 C 
ATOM     19  C   UNL     1      -3.629   3.112  22.867  0.00  0.00    +0.000 C 
ENDBRANCH  16  17
BRANCH  14  13
ATOM     13  C   UNL     1      -0.842   3.017  24.701  0.00  0.00    +0.091 C 
BRANCH  13  12
ATOM      9  C   UNL     1      -0.284   0.957  24.645  0.00  0.00    +0.250 A 
ATOM     10  N   UNL     1       0.425   1.320  24.434  0.00  0.00    -0.107 NA
ATOM     11  N   UNL     1       0.303   2.136  24.429  0.00  0.00    -0.111 NA
ATOM     12  C   UNL     1      -0.482   2.277  24.638  0.00  0.00    +0.227 A 
ATOM     35  O   UNL     1      -0.846   1.549  24.772  0.00  0.00    -0.420 OA
BRANCH   9   6
ATOM      3  C   UNL     1      -0.664  -1.478  24.864  0.00  0.00    +0.139 A 
ATOM      4  C   UNL     1      -0.313  -1.175  24.182  0.00  0.00    +0.037 A 
ATOM      5  C   UNL     1      -0.187  -0.363  24.109  0.00  0.00    +0.008 A 
ATOM      6  C   UNL     1      -0.410   0.146  24.718  0.00  0.00    +0.055 A 
ATOM      7  C   UNL     1      -0.761  -0.158  25.401  0.00  0.00    +0.008 A 
ATOM      8  C   UNL     1      -0.888  -0.970  25.474  0.00  0.00    +0.037 A 
BRANCH   3   2
ATOM      1  C   UNL     1      -1.520  -2.615  24.728  0.00  0.00    +0.252 C 
ATOM      2  O   UNL     1      -0.790  -2.291  24.937  0.00  0.00    -0.471 OA
ENDBRANCH   3   2
ENDBRANCH   9   6
ENDBRANCH  13  12
ENDBRANCH  14  13
BRANCH  20  21
ATOM     21  C   UNL     1      -4.133   3.255  24.754  0.00  0.00    +0.120 C 
BRANCH  21  22
ATOM     22  N   UNL     1      -4.492   3.944  25.029  0.00  0.00    -0.201 NA
ATOM     23  C   UNL     1      -5.217   3.903  25.421  0.00  0.00    +0.265 C 
ATOM     24  O   UNL     1      -5.576   4.594  25.695  0.00  0.00    -0.268 OA
BRANCH  23  25
ATOM     25  C   UNL     1      -5.583   3.173  25.537  0.00  0.00    +0.055 A 
ATOM     26  C   UNL     1      -5.451   2.753  26.235  0.00  0.00    +0.007 A 
ATOM     27  C   UNL     1      -5.817   2.023  26.352  0.00  0.00    +0.030 A 
ATOM     28  C   UNL     1      -6.315   1.713  25.771  0.00  0.00    +0.140 A 
ATOM     29  F   UNL     1      -6.680   0.984  25.888  0.00  0.00    -0.204 F 
ATOM     30  C   UNL     1      -6.446   2.134  25.073  0.00  0.00    +0.030 A 
ATOM     31  C   UNL     1      -6.080   2.864  24.957  0.00  0.00    +0.007 A 
ENDBRANCH  23  25
ENDBRANCH  21  22
ENDBRANCH  20  21
TORSDOF 8
ENDMDL
MODEL 8
REMARK VINA RESULT:      -9.8      3.857      5.647
REMARK  Name = 
REMARK  8 active torsions:
REMARK  status: ('A' for Active; 'I' for Inactive)
REMARK    1  A    between atoms: O_2  and  C_3
REMARK    2  A    between atoms: C_6  and  C_9
REMARK    3  A    between atoms: C_12  and  C_13
REMARK    4  A    between atoms: C_13  and  C_14
REMARK    5  A    between atoms: C_16  and  C_17
REMARK    6  A    between atoms: C_20  and  C_21
REMARK    7  A    between atoms: C_21  and  N_22
REMARK    8  A    between atoms: C_23  and  C_25
REMARK                            x       y       z     vdW  Elec       q    Type
REMARK                         _______ _______ _______ _____ _____    ______ ____
ROOT
ATOM     14  C   UNL     1      -0.793   0.487  24.160  0.00  0.00    +0.027 C 
ATOM     15  C   UNL     1      -0.564   1.250  24.377  0.00  0.00    +0.005 C 
ATOM     16  C   UNL     1      -1.126   1.854  24.412  0.00  0.00    +0.006 C 
ATOM     20  C   UNL     1      -1.914   1.695  24.230  0.00  0.00    +0.043 C 
ATOM     32  C   UNL     1      -2.143   0.932  24.013  0.00  0.00    -0.033 C 
ATOM     33  C   UNL     1      -1.581   0.329  23.979  0.00  0.00    -0.048 C 
ATOM     34  C   UNL     1      -1.810  -0.434  23.762  0.00  0.00    +0.026 C 
ENDROOT
BRANCH  16  17
ATOM     17  C   UNL     1      -0.898   2.617  24.629  0.00  0.00    +0.000 C 
ATOM     18  C   UNL     1      -0.908   2.841  25.422  0.00  0.00    +0.000 C 
ATOM     19  C   UNL     1      -0.659   3.156  24.051  0.00  0.00    +0.000 C 
ENDBRANCH  16  17
BRANCH  14  13
ATOM     13  C   UNL     1      -0.232  -0.117  24.125  0.00  0.00    +0.091 C 
BRANCH  13  12
ATOM      9  C   UNL     1       1.621   0.071  23.082  0.00  0.00    +0.250 A 
ATOM     10  N   UNL     1       1.099  -0.056  22.457  0.00  0.00    -0.107 NA
ATOM     11  N   UNL     1       0.340  -0.142  22.772  0.00  0.00    -0.111 NA
ATOM     12  C   UNL     1       0.395  -0.068  23.591  0.00  0.00    +0.227 A 
ATOM     35  O   UNL     1       1.186   0.064  23.784  0.00  0.00    -0.420 OA
BRANCH   9   6
ATOM      3  C   UNL     1       4.064   0.415  22.890  0.00  0.00    +0.139 A 
ATOM      4  C   UNL     1       3.765  -0.336  23.055  0.00  0.00    +0.037 A 
ATOM      5  C   UNL     1       2.950  -0.450  23.119  0.00  0.00    +0.008 A 
ATOM      6  C   UNL     1       2.435   0.186  23.018  0.00  0.00    +0.055 A 
ATOM      7  C   UNL     1       2.735   0.937  22.853  0.00  0.00    +0.008 A 
ATOM      8  C   UNL     1       3.549   1.052  22.789  0.00  0.00    +0.037 A 
BRANCH   3   2
ATOM      1  C   UNL     1       5.381   0.268  23.427  0.00  0.00    +0.252 C 
ATOM      2  O   UNL     1       4.879   0.529  22.826  0.00  0.00    -0.471 OA
ENDBRANCH   3   2
ENDBRANCH   9   6
ENDBRANCH  13  12
ENDBRANCH  14  13
BRANCH  20  21
ATOM     21  C   UNL     1      -2.476   2.299  24.265  0.00  0.00    +0.120 C 
BRANCH  21  22
ATOM     22  N   UNL     1      -2.848   2.557  23.576  0.00  0.00    -0.201 NA
ATOM     23  C   UNL     1      -3.614   2.861  23.610  0.00  0.00    +0.265 C 
ATOM     24  O   UNL     1      -3.986   3.119  22.920  0.00  0.00    -0.268 OA
BRANCH  23  25
ATOM     25  C   UNL     1      -4.008   2.908  24.333  0.00  0.00    +0.055 A 
ATOM     26  C   UNL     1      -4.462   2.271  24.597  0.00  0.00    +0.007 A 
ATOM     27  C   UNL     1      -4.856   2.318  25.320  0.00  0.00    +0.030 A 
ATOM     28  C   UNL     1      -4.796   3.001  25.780  0.00  0.00    +0.140 A 
ATOM     29  F   UNL     1      -5.190   3.047  26.503  0.00  0.00    -0.204 F 
ATOM     30  C   UNL     1      -4.342   3.637  25.516  0.00  0.00    +0.030 A 
ATOM     31  C   UNL     1      -3.948   3.590  24.792  0.00  0.00    +0.007 A 
ENDBRANCH  23  25
ENDBRANCH  21  22
ENDBRANCH  20  21
TORSDOF 8
ENDMDL
