MODEL 1
REMARK VINA RESULT:     -11.4      0.000      0.000
REMARK  Name = 
REMARK  7 active torsions:
REMARK  status: ('A' for Active; 'I' for Inactive)
REMARK    1  A    between atoms: O_2  and  C_3
REMARK    2  A    between atoms: C_6  and  S_9
REMARK    3  A    between atoms: S_9  and  N_12
REMARK    4  A    between atoms: N_12  and  C_13
REMARK    5  A    between atoms: C_13  and  C_14
REMARK    6  A    between atoms: C_16  and  C_17
REMARK    7  A    between atoms: C_21  and  N_22
REMARK                            x       y       z     vdW  Elec       q    Type
REMARK                         _______ _______ _______ _____ _____    ______ ____
ROOT
ATOM     14  C   UNL     1      -3.966   2.263  24.964  0.00  0.00    +0.152 C 
ATOM     15  O   UNL     1      -4.714   2.584  25.105  0.00  0.00    -0.350 OA
ATOM     16  C   UNL     1      -4.623   3.392  25.241  0.00  0.00    +0.180 C 
ATOM     19  C   UNL     1      -3.820   3.573  25.184  0.00  0.00    +0.198 C 
ATOM     20  O   UNL     1      -3.482   4.319  25.280  0.00  0.00    -0.219 OA
ATOM     21  C   UNL     1      -3.414   2.875  25.012  0.00  0.00    +0.120 C 
ENDROOT
BRANCH  21  22
ATOM     22  N   UNL     1      -2.599   2.801  24.908  0.00  0.00    -0.266 NA
ATOM     23  C   UNL     1      -2.276   2.831  24.148  0.00  0.00    +0.077 C 
ATOM     24  C   UNL     1      -1.461   2.757  24.044  0.00  0.00    +0.043 C 
ATOM     25  C   UNL     1      -0.968   2.654  24.698  0.00  0.00    -0.023 A 
ATOM     26  C   UNL     1      -1.291   2.624  25.458  0.00  0.00    -0.010 A 
ATOM     27  C   UNL     1      -2.106   2.698  25.562  0.00  0.00    +0.099 C 
ATOM     28  C   UNL     1      -0.799   2.521  26.111  0.00  0.00    -0.003 A 
ATOM     29  C   UNL     1       0.015   2.448  26.007  0.00  0.00    -0.000 A 
ATOM     30  C   UNL     1       0.339   2.478  25.247  0.00  0.00    -0.000 A 
ATOM     31  C   UNL     1      -0.153   2.581  24.594  0.00  0.00    -0.004 A 
ENDBRANCH  21  22
BRANCH  16  17
ATOM     17  C   UNL     1      -5.229   3.927  25.405  0.00  0.00    +0.214 C 
ATOM     18  O   UNL     1      -5.913   3.670  25.787  0.00  0.00    -0.218 OA
ENDBRANCH  16  17
BRANCH  14  13
ATOM     13  C   UNL     1      -3.800   1.471  24.803  0.00  0.00    +0.146 C 
BRANCH  13  12
ATOM     12  N   UNL     1      -4.403   0.909  24.836  0.00  0.00    -0.075 NA
BRANCH  12   9
ATOM      9  S   UNL     1      -4.223   0.108  24.758  0.00  0.00    +0.077 S 
ATOM     10  O   UNL     1      -4.348   0.000  25.567  0.00  0.00    -0.152 OA
ATOM     11  O   UNL     1      -4.098   0.215  23.950  0.00  0.00    -0.152 OA
BRANCH   9   6
ATOM      3  C   UNL     1      -3.684  -2.296  24.521  0.00  0.00    +0.139 A 
ATOM      4  C   UNL     1      -3.398  -1.871  25.167  0.00  0.00    +0.038 A 
ATOM      5  C   UNL     1      -3.578  -1.070  25.246  0.00  0.00    +0.023 A 
ATOM      6  C   UNL     1      -4.043  -0.693  24.679  0.00  0.00    +0.124 A 
ATOM      7  C   UNL     1      -4.329  -1.118  24.033  0.00  0.00    +0.023 A 
ATOM      8  C   UNL     1      -4.149  -1.919  23.953  0.00  0.00    +0.038 A 
BRANCH   3   2
ATOM      1  C   UNL     1      -2.725  -3.335  24.313  0.00  0.00    +0.252 C 
ATOM      2  O   UNL     1      -3.504  -3.097  24.441  0.00  0.00    -0.471 OA
ENDBRANCH   3   2
ENDBRANCH   9   6
ENDBRANCH  12   9
ENDBRANCH  13  12
ENDBRANCH  14  13
TORSDOF 7
ENDMDL
MODEL 2
REMARK VINA RESULT:     -11.0      1.969      4.368
REMARK  Name = 
REMARK  7 active torsions:
REMARK  status: ('A' for Active; 'I' for Inactive)
REMARK    1  A    between atoms: O_2  and  C_3
REMARK    2  A    between atoms: C_6  and  S_9
REMARK    3  A    between atoms: S_9  and  N_12
REMARK    4  A    between atoms: N_12  and  C_13
REMARK    5  A    between atoms: C_13  and  C_14
REMARK    6  A    between atoms: C_16  and  C_17
REMARK    7  A    between atoms: C_21  and  N_22
REMARK                            x       y       z     vdW  Elec       q    Type
REMARK                         _______ _______ _______ _____ _____    ______ ____
ROOT
ATOM     14  C   UNL     1      -3.290   1.343  24.817  0.00  0.00    +0.152 C 
ATOM     15  O   UNL     1      -3.608   2.104  24.835  0.00  0.00    -0.350 OA
ATOM     16  C   UNL     1      -4.415   2.040  24.992  0.00  0.00    +0.180 C 
ATOM     19  C   UNL     1      -4.597   1.239  25.072  0.00  0.00    +0.198 C 
ATOM     20  O   UNL     1      -5.343   0.925  25.231  0.00  0.00    -0.219 OA
ATOM     21  C   UNL     1      -3.901   0.808  24.963  0.00  0.00    +0.120 C 
ENDROOT
BRANCH  21  22
ATOM     22  N   UNL     1      -3.830  -0.013  24.996  0.00  0.00    -0.266 NA
ATOM     23  C   UNL     1      -3.573  -0.377  25.691  0.00  0.00    +0.077 C 
ATOM     24  C   UNL     1      -3.502  -1.199  25.723  0.00  0.00    +0.043 C 
ATOM     25  C   UNL     1      -3.688  -1.656  25.062  0.00  0.00    -0.023 A 
ATOM     26  C   UNL     1      -3.946  -1.292  24.367  0.00  0.00    -0.010 A 
ATOM     27  C   UNL     1      -4.016  -0.470  24.335  0.00  0.00    +0.099 C 
ATOM     28  C   UNL     1      -4.131  -1.748  23.706  0.00  0.00    -0.003 A 
ATOM     29  C   UNL     1      -4.060  -2.569  23.738  0.00  0.00    -0.000 A 
ATOM     30  C   UNL     1      -3.803  -2.934  24.433  0.00  0.00    -0.000 A 
ATOM     31  C   UNL     1      -3.617  -2.477  25.094  0.00  0.00    -0.004 A 
ENDBRANCH  21  22
BRANCH  16  17
ATOM     17  C   UNL     1      -4.947   2.667  25.058  0.00  0.00    +0.214 C 
ATOM     18  O   UNL     1      -4.667   3.440  25.128  0.00  0.00    -0.218 OA
ENDBRANCH  16  17
BRANCH  14  13
ATOM     13  C   UNL     1      -2.500   1.149  24.677  0.00  0.00    +0.146 C 
BRANCH  13  12
ATOM     12  N   UNL     1      -1.966   1.736  24.452  0.00  0.00    -0.075 NA
BRANCH  12   9
ATOM      9  S   UNL     1      -1.201   1.531  24.222  0.00  0.00    +0.077 S 
ATOM     10  O   UNL     1      -0.979   1.469  25.014  0.00  0.00    -0.152 OA
ATOM     11  O   UNL     1      -1.423   1.592  23.430  0.00  0.00    -0.152 OA
BRANCH   9   6
ATOM      3  C   UNL     1       1.093   0.912  23.530  0.00  0.00    +0.139 A 
ATOM      4  C   UNL     1       0.952   1.644  23.884  0.00  0.00    +0.038 A 
ATOM      5  C   UNL     1       0.187   1.850  24.114  0.00  0.00    +0.023 A 
ATOM      6  C   UNL     1      -0.436   1.325  23.992  0.00  0.00    +0.124 A 
ATOM      7  C   UNL     1      -0.295   0.593  23.638  0.00  0.00    +0.023 A 
ATOM      8  C   UNL     1       0.469   0.386  23.407  0.00  0.00    +0.038 A 
BRANCH   3   2
ATOM      1  C   UNL     1       1.973   0.119  22.730  0.00  0.00    +0.252 C 
ATOM      2  O   UNL     1       1.858   0.705  23.299  0.00  0.00    -0.471 OA
ENDBRANCH   3   2
ENDBRANCH   9   6
ENDBRANCH  12   9
ENDBRANCH  13  12
ENDBRANCH  14  13
TORSDOF 7
ENDMDL
MODEL 3
REMARK VINA RESULT:     -10.8      1.956      5.027
REMARK  Name = 
REMARK  7 active torsions:
REMARK  status: ('A' for Active; 'I' for Inactive)
REMARK    1  A    between atoms: O_2  and  C_3
REMARK    2  A    between atoms: C_6  and  S_9
REMARK    3  A    between atoms: S_9  and  N_12
REMARK    4  A    between atoms: N_12  and  C_13
REMARK    5  A    between atoms: C_13  and  C_14
REMARK    6  A    between atoms: C_16  and  C_17
REMARK    7  A    between atoms: C_21  and  N_22
REMARK                            x       y       z     vdW  Elec       q    Type
REMARK                         _______ _______ _______ _____ _____    ______ ____
ROOT
ATOM     14  C   UNL     1      -1.502   0.921  24.464  0.00  0.00    +0.152 C 
ATOM     15  O   UNL     1      -0.840   1.323  24.178  0.00  0.00    -0.350 OA
ATOM     16  C   UNL     1      -0.241   0.771  24.050  0.00  0.00    +0.180 C 
ATOM     19  C   UNL     1      -0.532   0.026  24.256  0.00  0.00    +0.198 C 
ATOM     20  O   UNL     1      -0.117  -0.685  24.214  0.00  0.00    -0.219 OA
ATOM     21  C   UNL     1      -1.311   0.119  24.511  0.00  0.00    +0.120 C 
ENDROOT
BRANCH  21  22
ATOM     22  N   UNL     1      -1.811  -0.483  24.769  0.00  0.00    -0.266 NA
ATOM     23  C   UNL     1      -1.825  -0.695  25.567  0.00  0.00    +0.077 C 
ATOM     24  C   UNL     1      -2.326  -1.299  25.825  0.00  0.00    +0.043 C 
ATOM     25  C   UNL     1      -2.813  -1.691  25.286  0.00  0.00    -0.023 A 
ATOM     26  C   UNL     1      -2.799  -1.478  24.488  0.00  0.00    -0.010 A 
ATOM     27  C   UNL     1      -2.298  -0.875  24.230  0.00  0.00    +0.099 C 
ATOM     28  C   UNL     1      -3.285  -1.870  23.949  0.00  0.00    -0.003 A 
ATOM     29  C   UNL     1      -3.785  -2.472  24.207  0.00  0.00    -0.000 A 
ATOM     30  C   UNL     1      -3.799  -2.684  25.005  0.00  0.00    -0.000 A 
ATOM     31  C   UNL     1      -3.313  -2.293  25.544  0.00  0.00    -0.004 A 
ENDBRANCH  21  22
BRANCH  16  17
ATOM     17  C   UNL     1       0.516   0.934  23.766  0.00  0.00    +0.214 C 
ATOM     18  O   UNL     1       0.866   1.664  23.922  0.00  0.00    -0.218 OA
ENDBRANCH  16  17
BRANCH  14  13
ATOM     13  C   UNL     1      -2.227   1.259  24.665  0.00  0.00    +0.146 C 
BRANCH  13  12
ATOM     12  N   UNL     1      -2.366   2.058  24.509  0.00  0.00    -0.075 NA
BRANCH  12   9
ATOM      9  S   UNL     1      -3.072   2.408  24.754  0.00  0.00    +0.077 S 
ATOM     10  O   UNL     1      -3.403   2.257  24.013  0.00  0.00    -0.152 OA
ATOM     11  O   UNL     1      -2.741   2.558  25.494  0.00  0.00    -0.152 OA
BRANCH   9   6
ATOM      3  C   UNL     1      -5.189   3.458  25.489  0.00  0.00    +0.139 A 
ATOM      4  C   UNL     1      -4.487   3.891  25.501  0.00  0.00    +0.038 A 
ATOM      5  C   UNL     1      -3.782   3.541  25.256  0.00  0.00    +0.023 A 
ATOM      6  C   UNL     1      -3.777   2.758  24.999  0.00  0.00    +0.124 A 
ATOM      7  C   UNL     1      -4.479   2.324  24.986  0.00  0.00    +0.023 A 
ATOM      8  C   UNL     1      -5.185   2.674  25.231  0.00  0.00    +0.038 A 
BRANCH   3   2
ATOM      1  C   UNL     1      -6.058   4.591  25.536  0.00  0.00    +0.252 C 
ATOM      2  O   UNL     1      -5.895   3.807  25.734  0.00  0.00    -0.471 OA
ENDBRANCH   3   2
ENDBRANCH   9   6
ENDBRANCH  12   9
ENDBRANCH  13  12
ENDBRANCH  14  13
TORSDOF 7
ENDMDL
MODEL 4
REMARK VINA RESULT:     -10.6      1.698      3.151
REMARK  Name = 
REMARK  7 active torsions:
REMARK  status: ('A' for Active; 'I' for Inactive)
REMARK    1  A    between atoms: O_2  and  C_3
REMARK    2  A    between atoms: C_6  and  S_9
REMARK    3  A    between atoms: S_9  and  N_12
REMARK    4  A    between atoms: N_12  and  C_13
REMARK    5  A    between atoms: C_13  and  C_14
REMARK    6  A    between atoms: C_16  and  C_17
REMARK    7  A    between atoms: C_21  and  N_22
REMARK                            x       y       z     vdW  Elec       q    Type
REMARK                         _______ _______ _______ _____ _____    ______ ____
ROOT
ATOM     14  C   UNL     1      -1.282   1.730  25.379  0.00  0.00    +0.152 C 
ATOM     15  O   UNL     1      -0.512   1.755  25.674  0.00  0.00    -0.350 OA
ATOM     16  C   UNL     1      -0.308   2.547  25.787  0.00  0.00    +0.180 C 
ATOM     19  C   UNL     1      -0.951   3.011  25.562  0.00  0.00    +0.198 C 
ATOM     20  O   UNL     1      -0.987   3.835  25.585  0.00  0.00    -0.219 OA
ATOM     21  C   UNL     1      -1.554   2.506  25.310  0.00  0.00    +0.120 C 
ENDROOT
BRANCH  21  22
ATOM     22  N   UNL     1      -2.297   2.738  25.037  0.00  0.00    -0.266 NA
ATOM     23  C   UNL     1      -2.426   2.837  24.227  0.00  0.00    +0.077 C 
ATOM     24  C   UNL     1      -3.170   3.069  23.954  0.00  0.00    +0.043 C 
ATOM     25  C   UNL     1      -3.784   3.201  24.489  0.00  0.00    -0.023 A 
ATOM     26  C   UNL     1      -3.655   3.101  25.299  0.00  0.00    -0.010 A 
ATOM     27  C   UNL     1      -2.911   2.870  25.572  0.00  0.00    +0.099 C 
ATOM     28  C   UNL     1      -4.268   3.233  25.833  0.00  0.00    -0.003 A 
ATOM     29  C   UNL     1      -5.011   3.464  25.561  0.00  0.00    -0.000 A 
ATOM     30  C   UNL     1      -5.140   3.563  24.751  0.00  0.00    -0.000 A 
ATOM     31  C   UNL     1      -4.527   3.432  24.216  0.00  0.00    -0.004 A 
ENDBRANCH  21  22
BRANCH  16  17
ATOM     17  C   UNL     1       0.414   2.825  26.074  0.00  0.00    +0.214 C 
ATOM     18  O   UNL     1       0.761   2.467  26.731  0.00  0.00    -0.218 OA
ENDBRANCH  16  17
BRANCH  14  13
ATOM     13  C   UNL     1      -1.707   1.049  25.186  0.00  0.00    +0.146 C 
BRANCH  13  12
ATOM     12  N   UNL     1      -1.385   0.306  25.344  0.00  0.00    -0.075 NA
BRANCH  12   9
ATOM      9  S   UNL     1      -1.827  -0.374  25.191  0.00  0.00    +0.077 S 
ATOM     10  O   UNL     1      -1.665  -0.299  24.385  0.00  0.00    -0.152 OA
ATOM     11  O   UNL     1      -1.989  -0.449  25.996  0.00  0.00    -0.152 OA
BRANCH   9   6
ATOM      3  C   UNL     1      -3.154  -2.413  24.737  0.00  0.00    +0.139 A 
ATOM      4  C   UNL     1      -2.347  -2.400  24.566  0.00  0.00    +0.038 A 
ATOM      5  C   UNL     1      -1.905  -1.720  24.718  0.00  0.00    +0.023 A 
ATOM      6  C   UNL     1      -2.269  -1.054  25.039  0.00  0.00    +0.124 A 
ATOM      7  C   UNL     1      -3.076  -1.067  25.210  0.00  0.00    +0.023 A 
ATOM      8  C   UNL     1      -3.519  -1.747  25.058  0.00  0.00    +0.038 A 
BRANCH   3   2
ATOM      1  C   UNL     1      -4.108  -3.117  23.939  0.00  0.00    +0.252 C 
ATOM      2  O   UNL     1      -3.596  -3.093  24.585  0.00  0.00    -0.471 OA
ENDBRANCH   3   2
ENDBRANCH   9   6
ENDBRANCH  12   9
ENDBRANCH  13  12
ENDBRANCH  14  13
TORSDOF 7
ENDMDL
MODEL 5
REMARK VINA RESULT:     -10.5      1.984      3.381
REMARK  Name = 
REMARK  7 active torsions:
REMARK  status: ('A' for Active; 'I' for Inactive)
REMARK    1  A    between atoms: O_2  and  C_3
REMARK    2  A    between atoms: C_6  and  S_9
REMARK    3  A    between atoms: S_9  and  N_12
REMARK    4  A    between atoms: N_12  and  C_13
REMARK    5  A    between atoms: C_13  and  C_14
REMARK    6  A    between atoms: C_16  and  C_17
REMARK    7  A    between atoms: C_21  and  N_22
REMARK                            x       y       z     vdW  Elec       q    Type
REMARK                         _______ _______ _______ _____ _____    ______ ____
ROOT
ATOM     14  C   UNL     1      -1.977   2.936  24.932  0.00  0.00    +0.152 C 
ATOM     15  O   UNL     1      -1.330   3.442  25.024  0.00  0.00    -0.350 OA
ATOM     16  C   UNL     1      -1.615   4.215  25.067  0.00  0.00    +0.180 C 
ATOM     19  C   UNL     1      -2.437   4.188  25.002  0.00  0.00    +0.198 C 
ATOM     20  O   UNL     1      -2.946   4.837  25.017  0.00  0.00    -0.219 OA
ATOM     21  C   UNL     1      -2.661   3.398  24.919  0.00  0.00    +0.120 C 
ENDROOT
BRANCH  21  22
ATOM     22  N   UNL     1      -3.432   3.119  24.836  0.00  0.00    -0.266 NA
ATOM     23  C   UNL     1      -3.736   2.962  24.085  0.00  0.00    +0.077 C 
ATOM     24  C   UNL     1      -4.508   2.682  24.003  0.00  0.00    +0.043 C 
ATOM     25  C   UNL     1      -4.977   2.560  24.671  0.00  0.00    -0.023 A 
ATOM     26  C   UNL     1      -4.673   2.718  25.423  0.00  0.00    -0.010 A 
ATOM     27  C   UNL     1      -3.901   2.997  25.504  0.00  0.00    +0.099 C 
ATOM     28  C   UNL     1      -5.141   2.596  26.090  0.00  0.00    -0.003 A 
ATOM     29  C   UNL     1      -5.912   2.317  26.008  0.00  0.00    -0.000 A 
ATOM     30  C   UNL     1      -6.216   2.160  25.257  0.00  0.00    -0.000 A 
ATOM     31  C   UNL     1      -5.748   2.282  24.589  0.00  0.00    -0.004 A 
ENDBRANCH  21  22
BRANCH  16  17
ATOM     17  C   UNL     1      -1.157   4.895  25.159  0.00  0.00    +0.214 C 
ATOM     18  O   UNL     1      -0.454   4.979  24.737  0.00  0.00    -0.218 OA
ENDBRANCH  16  17
BRANCH  14  13
ATOM     13  C   UNL     1      -1.945   2.115  24.865  0.00  0.00    +0.146 C 
BRANCH  13  12
ATOM     12  N   UNL     1      -1.230   1.720  24.984  0.00  0.00    -0.075 NA
BRANCH  12   9
ATOM      9  S   UNL     1      -1.209   0.895  24.967  0.00  0.00    +0.077 S 
ATOM     10  O   UNL     1      -1.171   0.879  25.791  0.00  0.00    -0.152 OA
ATOM     11  O   UNL     1      -1.247   0.910  24.143  0.00  0.00    -0.152 OA
BRANCH   9   6
ATOM      3  C   UNL     1      -1.145  -1.579  24.916  0.00  0.00    +0.139 A 
ATOM      4  C   UNL     1      -0.483  -1.144  24.686  0.00  0.00    +0.038 A 
ATOM      5  C   UNL     1      -0.505  -0.320  24.703  0.00  0.00    +0.023 A 
ATOM      6  C   UNL     1      -1.188   0.070  24.950  0.00  0.00    +0.124 A 
ATOM      7  C   UNL     1      -1.850  -0.364  25.181  0.00  0.00    +0.023 A 
ATOM      8  C   UNL     1      -1.829  -1.188  25.164  0.00  0.00    +0.038 A 
BRANCH   3   2
ATOM      1  C   UNL     1      -1.695  -2.822  24.475  0.00  0.00    +0.252 C 
ATOM      2  O   UNL     1      -1.125  -2.403  24.899  0.00  0.00    -0.471 OA
ENDBRANCH   3   2
ENDBRANCH   9   6
ENDBRANCH  12   9
ENDBRANCH  13  12
ENDBRANCH  14  13
TORSDOF 7
ENDMDL
MODEL 6
REMARK VINA RESULT:     -10.1      1.518      4.056
REMARK  Name = 
REMARK  7 active torsions:
REMARK  status: ('A' for Active; 'I' for Inactive)
REMARK    1  A    between atoms: O_2  and  C_3
REMARK    2  A    between atoms: C_6  and  S_9
REMARK    3  A    between atoms: S_9  and  N_12
REMARK    4  A    between atoms: N_12  and  C_13
REMARK    5  A    between atoms: C_13  and  C_14
REMARK    6  A    between atoms: C_16  and  C_17
REMARK    7  A    between atoms: C_21  and  N_22
REMARK                            x       y       z     vdW  Elec       q    Type
REMARK                         _______ _______ _______ _____ _____    ______ ____
ROOT
ATOM     14  C   UNL     1      -2.376  -0.375  24.523  0.00  0.00    +0.152 C 
ATOM     15  O   UNL     1      -2.598  -1.170  24.493  0.00  0.00    -0.350 OA
ATOM     16  C   UNL     1      -1.915  -1.628  24.561  0.00  0.00    +0.180 C 
ATOM     19  C   UNL     1      -1.270  -1.118  24.632  0.00  0.00    +0.198 C 
ATOM     20  O   UNL     1      -0.481  -1.342  24.712  0.00  0.00    -0.219 OA
ATOM     21  C   UNL     1      -1.555  -0.343  24.608  0.00  0.00    +0.120 C 
ENDROOT
BRANCH  21  22
ATOM     22  N   UNL     1      -1.100   0.342  24.661  0.00  0.00    -0.266 NA
ATOM     23  C   UNL     1      -0.717   0.636  23.991  0.00  0.00    +0.077 C 
ATOM     24  C   UNL     1      -0.261   1.321  24.044  0.00  0.00    +0.043 C 
ATOM     25  C   UNL     1      -0.188   1.714  24.766  0.00  0.00    -0.023 A 
ATOM     26  C   UNL     1      -0.571   1.421  25.436  0.00  0.00    -0.010 A 
ATOM     27  C   UNL     1      -1.026   0.735  25.383  0.00  0.00    +0.099 C 
ATOM     28  C   UNL     1      -0.498   1.813  26.158  0.00  0.00    -0.003 A 
ATOM     29  C   UNL     1      -0.042   2.498  26.210  0.00  0.00    -0.000 A 
ATOM     30  C   UNL     1       0.341   2.792  25.540  0.00  0.00    -0.000 A 
ATOM     31  C   UNL     1       0.268   2.400  24.819  0.00  0.00    -0.004 A 
ENDBRANCH  21  22
BRANCH  16  17
ATOM     17  C   UNL     1      -1.882  -2.453  24.557  0.00  0.00    +0.214 C 
ATOM     18  O   UNL     1      -2.558  -2.891  24.378  0.00  0.00    -0.218 OA
ENDBRANCH  16  17
BRANCH  14  13
ATOM     13  C   UNL     1      -2.884   0.273  24.475  0.00  0.00    +0.146 C 
BRANCH  13  12
ATOM     12  N   UNL     1      -3.696   0.167  24.570  0.00  0.00    -0.075 NA
BRANCH  12   9
ATOM      9  S   UNL     1      -4.177   0.812  24.752  0.00  0.00    +0.077 S 
ATOM     10  O   UNL     1      -4.038   1.128  24.003  0.00  0.00    -0.152 OA
ATOM     11  O   UNL     1      -4.316   0.496  25.502  0.00  0.00    -0.152 OA
BRANCH   9   6
ATOM      3  C   UNL     1      -5.620   2.746  25.302  0.00  0.00    +0.139 A 
ATOM      4  C   UNL     1      -4.822   2.863  25.127  0.00  0.00    +0.038 A 
ATOM      5  C   UNL     1      -4.342   2.218  24.944  0.00  0.00    +0.023 A 
ATOM      6  C   UNL     1      -4.658   1.457  24.936  0.00  0.00    +0.124 A 
ATOM      7  C   UNL     1      -5.455   1.340  25.111  0.00  0.00    +0.023 A 
ATOM      8  C   UNL     1      -5.936   1.984  25.294  0.00  0.00    +0.038 A 
BRANCH   3   2
ATOM      1  C   UNL     1      -5.767   4.135  25.607  0.00  0.00    +0.252 C 
ATOM      2  O   UNL     1      -6.101   3.390  25.486  0.00  0.00    -0.471 OA
ENDBRANCH   3   2
ENDBRANCH   9   6
ENDBRANCH  12   9
ENDBRANCH  13  12
ENDBRANCH  14  13
TORSDOF 7
ENDMDL
MODEL 7
REMARK VINA RESULT:     -10.0      2.657      5.687
REMARK  Name = 
REMARK  7 active torsions:
REMARK  status: ('A' for Active; 'I' for Inactive)
REMARK    1  A    between atoms: O_2  and  C_3
REMARK    2  A    between atoms: C_6  and  S_9
REMARK    3  A    between atoms: S_9  and  N_12
REMARK    4  A    between atoms: N_12  and  C_13
REMARK    5  A    between atoms: C_13  and  C_14
REMARK    6  A    between atoms: C_16  and  C_17
REMARK    7  A    between atoms: C_21  and  N_22
REMARK                            x       y       z     vdW  Elec       q    Type
REMARK                         _______ _______ _______ _____ _____    ______ ____
ROOT
ATOM     14  C   UNL     1      -0.227   0.650  24.169  0.00  0.00    +0.152 C 
ATOM     15  O   UNL     1       0.441   0.657  23.684  0.00  0.00    -0.350 OA
ATOM     16  C   UNL     1       0.581  -0.116  23.432  0.00  0.00    +0.180 C 
ATOM     19  C   UNL     1       0.002  -0.602  23.761  0.00  0.00    +0.198 C 
ATOM     20  O   UNL     1      -0.067  -1.417  23.653  0.00  0.00    -0.219 OA
ATOM     21  C   UNL     1      -0.498  -0.128  24.217  0.00  0.00    +0.120 C 
ENDROOT
BRANCH  21  22
ATOM     22  N   UNL     1      -1.153  -0.388  24.645  0.00  0.00    -0.266 NA
ATOM     23  C   UNL     1      -1.063  -0.635  25.428  0.00  0.00    +0.077 C 
ATOM     24  C   UNL     1      -1.719  -0.895  25.856  0.00  0.00    +0.043 C 
ATOM     25  C   UNL     1      -2.465  -0.907  25.503  0.00  0.00    -0.023 A 
ATOM     26  C   UNL     1      -2.555  -0.660  24.720  0.00  0.00    -0.010 A 
ATOM     27  C   UNL     1      -1.899  -0.400  24.292  0.00  0.00    +0.099 C 
ATOM     28  C   UNL     1      -3.300  -0.672  24.367  0.00  0.00    -0.003 A 
ATOM     29  C   UNL     1      -3.955  -0.931  24.795  0.00  0.00    -0.000 A 
ATOM     30  C   UNL     1      -3.865  -1.179  25.577  0.00  0.00    -0.000 A 
ATOM     31  C   UNL     1      -3.120  -1.167  25.930  0.00  0.00    -0.004 A 
ENDBRANCH  21  22
BRANCH  16  17
ATOM     17  C   UNL     1       1.195  -0.360  22.937  0.00  0.00    +0.214 C 
ATOM     18  O   UNL     1       1.720   0.195  22.627  0.00  0.00    -0.218 OA
ENDBRANCH  16  17
BRANCH  14  13
ATOM     13  C   UNL     1      -0.564   1.304  24.542  0.00  0.00    +0.146 C 
BRANCH  13  12
ATOM     12  N   UNL     1      -0.268   2.060  24.392  0.00  0.00    -0.075 NA
BRANCH  12   9
ATOM      9  S   UNL     1      -0.680   2.723  24.660  0.00  0.00    +0.077 S 
ATOM     10  O   UNL     1      -1.034   2.803  23.919  0.00  0.00    -0.152 OA
ATOM     11  O   UNL     1      -0.326   2.643  25.401  0.00  0.00    -0.152 OA
BRANCH   9   6
ATOM      3  C   UNL     1      -1.913   4.712  25.465  0.00  0.00    +0.139 A 
ATOM      4  C   UNL     1      -2.226   3.958  25.583  0.00  0.00    +0.038 A 
ATOM      5  C   UNL     1      -1.814   3.295  25.314  0.00  0.00    +0.023 A 
ATOM      6  C   UNL     1      -1.091   3.386  24.929  0.00  0.00    +0.124 A 
ATOM      7  C   UNL     1      -0.779   4.140  24.811  0.00  0.00    +0.023 A 
ATOM      8  C   UNL     1      -1.189   4.803  25.080  0.00  0.00    +0.038 A 
BRANCH   3   2
ATOM      1  C   UNL     1      -3.081   5.292  26.049  0.00  0.00    +0.252 C 
ATOM      2  O   UNL     1      -2.324   5.375  25.734  0.00  0.00    -0.471 OA
ENDBRANCH   3   2
ENDBRANCH   9   6
ENDBRANCH  12   9
ENDBRANCH  13  12
ENDBRANCH  14  13
TORSDOF 7
ENDMDL
