MODEL 1
REMARK VINA RESULT:     -12.8      0.000      0.000
REMARK  Name = 
REMARK  4 active torsions:
REMARK  status: ('A' for Active; 'I' for Inactive)
REMARK    1  A    between atoms: C_5  and  C_8
REMARK    2  A    between atoms: C_11  and  C_13
REMARK    3  A    between atoms: N_17  and  C_18
REMARK    4  A    between atoms: C_18  and  C_19
REMARK                            x       y       z     vdW  Elec       q    Type
REMARK                         _______ _______ _______ _____ _____    ______ ____
ROOT
ATOM     13  C   UNL     1      -4.440   1.625  24.808  0.00  0.00    +0.138 C 
ATOM     14  C   UNL     1      -5.167   1.832  25.138  0.00  0.00    +0.027 C 
ATOM     15  C   UNL     1      -5.553   1.138  25.360  0.00  0.00    +0.019 C 
ATOM     16  C   UNL     1      -5.064   0.501  25.168  0.00  0.00    +0.073 C 
ATOM     17  N   UNL     1      -4.376   0.802  24.827  0.00  0.00    -0.263 NA
ENDROOT
BRANCH  13  11
ATOM      8  C   UNL     1      -2.863   3.015  24.438  0.00  0.00    +0.221 A 
ATOM      9  N   UNL     1      -3.151   2.893  23.674  0.00  0.00    -0.054 NA
ATOM     10  O   UNL     1      -3.777   2.357  23.719  0.00  0.00    -0.336 OA
ATOM     11  C   UNL     1      -3.876   2.148  24.511  0.00  0.00    +0.251 A 
ATOM     12  N   UNL     1      -3.311   2.555  24.955  0.00  0.00    -0.188 NA
BRANCH   8   5
ATOM      1  F   UNL     1      -0.360   4.996  25.274  0.00  0.00    -0.203 F 
ATOM      2  C   UNL     1      -0.986   4.501  25.065  0.00  0.00    +0.159 A 
ATOM      3  C   UNL     1      -0.835   3.779  24.695  0.00  0.00    +0.128 A 
ATOM      4  N   UNL     1      -1.461   3.284  24.486  0.00  0.00    -0.238 NA
ATOM      5  C   UNL     1      -2.237   3.510  24.647  0.00  0.00    +0.120 A 
ATOM      6  C   UNL     1      -2.389   4.232  25.017  0.00  0.00    +0.025 A 
ATOM      7  C   UNL     1      -1.763   4.727  25.226  0.00  0.00    +0.033 A 
ENDBRANCH   8   5
ENDBRANCH  13  11
BRANCH  17  18
ATOM     18  C   UNL     1      -3.737   0.359  24.553  0.00  0.00    +0.100 C 
BRANCH  18  19
ATOM     19  C   UNL     1      -3.736  -0.461  24.639  0.00  0.00    -0.004 A 
ATOM     20  C   UNL     1      -4.050  -0.939  24.044  0.00  0.00    +0.029 A 
ATOM     21  C   UNL     1      -4.050  -1.760  24.130  0.00  0.00    +0.167 A 
ATOM     22  F   UNL     1      -4.364  -2.237  23.535  0.00  0.00    -0.202 F 
ATOM     23  C   UNL     1      -3.735  -2.102  24.812  0.00  0.00    +0.167 A 
ATOM     24  F   UNL     1      -3.734  -2.923  24.898  0.00  0.00    -0.202 F 
ATOM     25  C   UNL     1      -3.421  -1.625  25.406  0.00  0.00    +0.032 A 
ATOM     26  C   UNL     1      -3.422  -0.805  25.320  0.00  0.00    -0.000 A 
ENDBRANCH  18  19
ENDBRANCH  17  18
TORSDOF 4
ENDMDL
MODEL 2
REMARK VINA RESULT:     -12.0      0.882      5.150
REMARK  Name = 
REMARK  4 active torsions:
REMARK  status: ('A' for Active; 'I' for Inactive)
REMARK    1  A    between atoms: C_5  and  C_8
REMARK    2  A    between atoms: C_11  and  C_13
REMARK    3  A    between atoms: N_17  and  C_18
REMARK    4  A    between atoms: C_18  and  C_19
REMARK                            x       y       z     vdW  Elec       q    Type
REMARK                         _______ _______ _______ _____ _____    ______ ____
ROOT
ATOM     13  C   UNL     1      -4.021   2.233  24.220  0.00  0.00    +0.138 C 
ATOM     14  C   UNL     1      -4.467   2.527  23.591  0.00  0.00    +0.027 C 
ATOM     15  C   UNL     1      -4.166   3.267  23.389  0.00  0.00    +0.019 C 
ATOM     16  C   UNL     1      -3.534   3.432  23.893  0.00  0.00    +0.073 C 
ATOM     17  N   UNL     1      -3.444   2.792  24.406  0.00  0.00    -0.263 NA
ENDROOT
BRANCH  13  11
ATOM      8  C   UNL     1      -4.092   0.202  24.874  0.00  0.00    +0.221 A 
ATOM      9  N   UNL     1      -4.517   0.577  25.474  0.00  0.00    -0.054 NA
ATOM     10  O   UNL     1      -4.542   1.384  25.301  0.00  0.00    -0.336 OA
ATOM     11  C   UNL     1      -4.133   1.507  24.596  0.00  0.00    +0.251 A 
ATOM     12  N   UNL     1      -3.855   0.776  24.332  0.00  0.00    -0.188 NA
BRANCH   8   5
ATOM      1  F   UNL     1      -3.454  -3.030  24.681  0.00  0.00    -0.203 F 
ATOM      2  C   UNL     1      -3.613  -2.222  24.729  0.00  0.00    +0.159 A 
ATOM      3  C   UNL     1      -3.354  -1.788  25.381  0.00  0.00    +0.128 A 
ATOM      4  N   UNL     1      -3.514  -0.980  25.429  0.00  0.00    -0.238 NA
ATOM      5  C   UNL     1      -3.932  -0.606  24.826  0.00  0.00    +0.120 A 
ATOM      6  C   UNL     1      -4.192  -1.039  24.173  0.00  0.00    +0.025 A 
ATOM      7  C   UNL     1      -4.033  -1.847  24.125  0.00  0.00    +0.033 A 
ENDBRANCH   8   5
ENDBRANCH  13  11
BRANCH  17  18
ATOM     18  C   UNL     1      -2.877   2.724  25.002  0.00  0.00    +0.100 C 
BRANCH  18  19
ATOM     19  C   UNL     1      -2.250   3.258  25.037  0.00  0.00    -0.004 A 
ATOM     20  C   UNL     1      -2.359   4.000  25.382  0.00  0.00    +0.029 A 
ATOM     21  C   UNL     1      -1.731   4.535  25.418  0.00  0.00    +0.167 A 
ATOM     22  F   UNL     1      -1.840   5.277  25.762  0.00  0.00    -0.202 F 
ATOM     23  C   UNL     1      -0.995   4.327  25.108  0.00  0.00    +0.167 A 
ATOM     24  F   UNL     1      -0.367   4.862  25.144  0.00  0.00    -0.202 F 
ATOM     25  C   UNL     1      -0.886   3.586  24.764  0.00  0.00    +0.032 A 
ATOM     26  C   UNL     1      -1.513   3.051  24.728  0.00  0.00    -0.000 A 
ENDBRANCH  18  19
ENDBRANCH  17  18
TORSDOF 4
ENDMDL
MODEL 3
REMARK VINA RESULT:     -12.0      1.858      2.606
REMARK  Name = 
REMARK  4 active torsions:
REMARK  status: ('A' for Active; 'I' for Inactive)
REMARK    1  A    between atoms: C_5  and  C_8
REMARK    2  A    between atoms: C_11  and  C_13
REMARK    3  A    between atoms: N_17  and  C_18
REMARK    4  A    between atoms: C_18  and  C_19
REMARK                            x       y       z     vdW  Elec       q    Type
REMARK                         _______ _______ _______ _____ _____    ______ ____
ROOT
ATOM     13  C   UNL     1      -0.820   0.476  24.824  0.00  0.00    +0.138 C 
ATOM     14  C   UNL     1      -0.178   0.165  24.409  0.00  0.00    +0.027 C 
ATOM     15  C   UNL     1      -0.398  -0.571  24.111  0.00  0.00    +0.019 C 
ATOM     16  C   UNL     1      -1.178  -0.716  24.341  0.00  0.00    +0.073 C 
ATOM     17  N   UNL     1      -1.438  -0.068  24.782  0.00  0.00    -0.263 NA
ENDROOT
BRANCH  13  11
ATOM      8  C   UNL     1      -0.988   2.507  25.459  0.00  0.00    +0.221 A 
ATOM      9  N   UNL     1      -0.755   2.140  26.160  0.00  0.00    -0.054 NA
ATOM     10  O   UNL     1      -0.664   1.334  26.008  0.00  0.00    -0.336 OA
ATOM     11  C   UNL     1      -0.840   1.203  25.212  0.00  0.00    +0.251 A 
ATOM     12  N   UNL     1      -1.040   1.929  24.873  0.00  0.00    -0.188 NA
BRANCH   8   5
ATOM      1  F   UNL     1      -1.600   5.726  25.067  0.00  0.00    -0.203 F 
ATOM      2  C   UNL     1      -1.447   4.922  25.165  0.00  0.00    +0.159 A 
ATOM      3  C   UNL     1      -0.728   4.604  24.914  0.00  0.00    +0.128 A 
ATOM      4  N   UNL     1      -0.575   3.800  25.012  0.00  0.00    -0.238 NA
ATOM      5  C   UNL     1      -1.141   3.312  25.361  0.00  0.00    +0.120 A 
ATOM      6  C   UNL     1      -1.861   3.628  25.612  0.00  0.00    +0.025 A 
ATOM      7  C   UNL     1      -2.014   4.433  25.514  0.00  0.00    +0.033 A 
ENDBRANCH   8   5
ENDBRANCH  13  11
BRANCH  17  18
ATOM     18  C   UNL     1      -2.185   0.018  25.120  0.00  0.00    +0.100 C 
BRANCH  18  19
ATOM     19  C   UNL     1      -2.803  -0.476  24.889  0.00  0.00    -0.004 A 
ATOM     20  C   UNL     1      -2.938  -1.183  25.292  0.00  0.00    +0.029 A 
ATOM     21  C   UNL     1      -3.557  -1.679  25.061  0.00  0.00    +0.167 A 
ATOM     22  F   UNL     1      -3.692  -2.386  25.464  0.00  0.00    -0.202 F 
ATOM     23  C   UNL     1      -4.040  -1.466  24.426  0.00  0.00    +0.167 A 
ATOM     24  F   UNL     1      -4.658  -1.962  24.195  0.00  0.00    -0.202 F 
ATOM     25  C   UNL     1      -3.904  -0.759  24.024  0.00  0.00    +0.032 A 
ATOM     26  C   UNL     1      -3.287  -0.264  24.255  0.00  0.00    -0.000 A 
ENDBRANCH  18  19
ENDBRANCH  17  18
TORSDOF 4
ENDMDL
MODEL 4
REMARK VINA RESULT:     -11.3      1.917      2.592
REMARK  Name = 
REMARK  4 active torsions:
REMARK  status: ('A' for Active; 'I' for Inactive)
REMARK    1  A    between atoms: C_5  and  C_8
REMARK    2  A    between atoms: C_11  and  C_13
REMARK    3  A    between atoms: N_17  and  C_18
REMARK    4  A    between atoms: C_18  and  C_19
REMARK                            x       y       z     vdW  Elec       q    Type
REMARK                         _______ _______ _______ _____ _____    ______ ____
ROOT
ATOM     13  C   UNL     1      -2.331   0.668  24.406  0.00  0.00    +0.138 C 
ATOM     14  C   UNL     1      -1.509   0.717  24.342  0.00  0.00    +0.027 C 
ATOM     15  C   UNL     1      -1.193  -0.018  24.539  0.00  0.00    +0.019 C 
ATOM     16  C   UNL     1      -1.819  -0.523  24.725  0.00  0.00    +0.073 C 
ATOM     17  N   UNL     1      -2.522  -0.099  24.643  0.00  0.00    -0.263 NA
ENDROOT
BRANCH  13  11
ATOM      8  C   UNL     1      -3.773   2.242  24.439  0.00  0.00    +0.221 A 
ATOM      9  N   UNL     1      -3.608   2.193  23.631  0.00  0.00    -0.054 NA
ATOM     10  O   UNL     1      -3.047   1.597  23.521  0.00  0.00    -0.336 OA
ATOM     11  C   UNL     1      -2.866   1.278  24.260  0.00  0.00    +0.251 A 
ATOM     12  N   UNL     1      -3.314   1.676  24.827  0.00  0.00    -0.188 NA
BRANCH   8   5
ATOM      1  F   UNL     1      -5.893   4.331  25.862  0.00  0.00    -0.203 F 
ATOM      2  C   UNL     1      -5.363   3.809  25.507  0.00  0.00    +0.159 A 
ATOM      3  C   UNL     1      -4.604   4.063  25.306  0.00  0.00    +0.128 A 
ATOM      4  N   UNL     1      -4.074   3.540  24.951  0.00  0.00    -0.238 NA
ATOM      5  C   UNL     1      -4.303   2.764  24.795  0.00  0.00    +0.120 A 
ATOM      6  C   UNL     1      -5.062   2.508  24.994  0.00  0.00    +0.025 A 
ATOM      7  C   UNL     1      -5.592   3.031  25.350  0.00  0.00    +0.033 A 
ENDBRANCH   8   5
ENDBRANCH  13  11
BRANCH  17  18
ATOM     18  C   UNL     1      -3.282  -0.391  24.775  0.00  0.00    +0.100 C 
BRANCH  18  19
ATOM     19  C   UNL     1      -3.435  -1.197  24.695  0.00  0.00    -0.004 A 
ATOM     20  C   UNL     1      -3.812  -1.481  24.019  0.00  0.00    +0.029 A 
ATOM     21  C   UNL     1      -3.965  -2.288  23.939  0.00  0.00    +0.167 A 
ATOM     22  F   UNL     1      -4.343  -2.571  23.262  0.00  0.00    -0.202 F 
ATOM     23  C   UNL     1      -3.739  -2.811  24.536  0.00  0.00    +0.167 A 
ATOM     24  F   UNL     1      -3.892  -3.618  24.455  0.00  0.00    -0.202 F 
ATOM     25  C   UNL     1      -3.362  -2.527  25.212  0.00  0.00    +0.032 A 
ATOM     26  C   UNL     1      -3.209  -1.721  25.292  0.00  0.00    -0.000 A 
ENDBRANCH  18  19
ENDBRANCH  17  18
TORSDOF 4
ENDMDL
MODEL 5
REMARK VINA RESULT:     -11.3      1.982      5.522
REMARK  Name = 
REMARK  4 active torsions:
REMARK  status: ('A' for Active; 'I' for Inactive)
REMARK    1  A    between atoms: C_5  and  C_8
REMARK    2  A    between atoms: C_11  and  C_13
REMARK    3  A    between atoms: N_17  and  C_18
REMARK    4  A    between atoms: C_18  and  C_19
REMARK                            x       y       z     vdW  Elec       q    Type
REMARK                         _______ _______ _______ _____ _____    ______ ____
ROOT
ATOM     13  C   UNL     1      -0.828   0.813  24.677  0.00  0.00    +0.138 C 
ATOM     14  C   UNL     1      -0.149   0.721  24.218  0.00  0.00    +0.027 C 
ATOM     15  C   UNL     1       0.199   1.463  24.124  0.00  0.00    +0.019 C 
ATOM     16  C   UNL     1      -0.265   2.015  24.527  0.00  0.00    +0.073 C 
ATOM     17  N   UNL     1      -0.900   1.613  24.869  0.00  0.00    -0.263 NA
ENDROOT
BRANCH  13  11
ATOM      8  C   UNL     1      -2.287  -0.732  24.872  0.00  0.00    +0.221 A 
ATOM      9  N   UNL     1      -1.990  -0.697  25.641  0.00  0.00    -0.054 NA
ATOM     10  O   UNL     1      -1.406  -0.113  25.661  0.00  0.00    -0.336 OA
ATOM     11  C   UNL     1      -1.344   0.212  24.906  0.00  0.00    +0.251 A 
ATOM     12  N   UNL     1      -1.889  -0.171  24.418  0.00  0.00    -0.188 NA
BRANCH   8   5
ATOM      1  F   UNL     1      -4.658  -2.763  23.803  0.00  0.00    -0.203 F 
ATOM      2  C   UNL     1      -4.066  -2.255  24.070  0.00  0.00    +0.159 A 
ATOM      3  C   UNL     1      -3.346  -2.562  24.332  0.00  0.00    +0.128 A 
ATOM      4  N   UNL     1      -2.754  -2.054  24.600  0.00  0.00    -0.238 NA
ATOM      5  C   UNL     1      -2.880  -1.240  24.604  0.00  0.00    +0.120 A 
ATOM      6  C   UNL     1      -3.599  -0.932  24.342  0.00  0.00    +0.025 A 
ATOM      7  C   UNL     1      -4.192  -1.440  24.075  0.00  0.00    +0.033 A 
ENDBRANCH   8   5
ENDBRANCH  13  11
BRANCH  17  18
ATOM     18  C   UNL     1      -1.500   1.951  25.322  0.00  0.00    +0.100 C 
BRANCH  18  19
ATOM     19  C   UNL     1      -1.610   2.768  25.317  0.00  0.00    -0.004 A 
ATOM     20  C   UNL     1      -2.230   3.099  24.886  0.00  0.00    +0.029 A 
ATOM     21  C   UNL     1      -2.340   3.917  24.881  0.00  0.00    +0.167 A 
ATOM     22  F   UNL     1      -2.961   4.248  24.450  0.00  0.00    -0.202 F 
ATOM     23  C   UNL     1      -1.829   4.404  25.309  0.00  0.00    +0.167 A 
ATOM     24  F   UNL     1      -1.939   5.222  25.304  0.00  0.00    -0.202 F 
ATOM     25  C   UNL     1      -1.209   4.073  25.740  0.00  0.00    +0.032 A 
ATOM     26  C   UNL     1      -1.099   3.256  25.745  0.00  0.00    -0.000 A 
ENDBRANCH  18  19
ENDBRANCH  17  18
TORSDOF 4
ENDMDL
