MODEL 1
REMARK VINA RESULT:     -12.3      0.000      0.000
REMARK  Name = 
REMARK  6 active torsions:
REMARK  status: ('A' for Active; 'I' for Inactive)
REMARK    1  A    between atoms: C_2  and  C_5
REMARK    2  A    between atoms: C_9  and  N_10
REMARK    3  A    between atoms: C_11  and  O_13
REMARK    4  A    between atoms: O_13  and  C_14
REMARK    5  A    between atoms: C_18  and  N_22
REMARK    6  A    between atoms: C_23  and  C_25
REMARK                            x       y       z     vdW  Elec       q    Type
REMARK                         _______ _______ _______ _____ _____    ______ ____
ROOT
ATOM     14  C   UNL     1      -0.549   0.156  24.626  0.00  0.00    +0.229 C 
ATOM     15  C   UNL     1      -0.547   0.461  23.860  0.00  0.00    +0.188 C 
ATOM     16  O   UNL     1      -0.575   1.284  23.914  0.00  0.00    -0.348 OA
ATOM     17  C   UNL     1      -0.595   1.487  24.713  0.00  0.00    +0.168 C 
ATOM     18  C   UNL     1      -0.625   2.120  25.241  0.00  0.00    +0.154 C 
ATOM     19  C   UNL     1      -0.628   1.814  26.007  0.00  0.00    +0.166 C 
ATOM     20  O   UNL     1      -0.599   0.992  25.953  0.00  0.00    -0.348 OA
ATOM     21  C   UNL     1      -0.579   0.789  25.153  0.00  0.00    +0.186 C 
ENDROOT
BRANCH  18  22
ATOM     22  N   UNL     1      -0.648   2.919  25.038  0.00  0.00    -0.202 NA
ATOM     23  C   UNL     1      -1.173   3.427  25.422  0.00  0.00    +0.241 C 
ATOM     24  O   UNL     1      -1.674   3.137  26.009  0.00  0.00    -0.273 OA
BRANCH  23  25
ATOM     25  C   UNL     1      -1.196   4.227  25.219  0.00  0.00    +0.078 C 
ATOM     26  C   UNL     1      -0.546   4.579  24.854  0.00  0.00    +0.009 C 
ATOM     27  C   UNL     1      -0.568   5.378  24.650  0.00  0.00    +0.000 C 
ATOM     28  C   UNL     1      -1.243   5.825  24.813  0.00  0.00    +0.000 C 
ATOM     29  C   UNL     1      -1.893   5.473  25.178  0.00  0.00    +0.000 C 
ATOM     30  C   UNL     1      -1.870   4.674  25.381  0.00  0.00    +0.009 C 
ENDBRANCH  23  25
ENDBRANCH  18  22
BRANCH  14  13
ATOM     13  O   UNL     1      -0.526  -0.644  24.829  0.00  0.00    -0.432 OA
BRANCH  13  11
ATOM     10  N   UNL     1      -1.742  -1.355  25.070  0.00  0.00    -0.142 NA
ATOM     11  C   UNL     1      -1.120  -1.154  24.568  0.00  0.00    +0.425 C 
ATOM     12  O   UNL     1      -1.090  -1.463  23.803  0.00  0.00    -0.224 OA
BRANCH  10   9
ATOM      5  C   UNL     1      -3.658  -2.072  24.309  0.00  0.00    +0.073 A 
ATOM      6  C   UNL     1      -3.522  -2.885  24.287  0.00  0.00    +0.004 A 
ATOM      7  C   UNL     1      -2.793  -3.189  24.526  0.00  0.00    +0.001 A 
ATOM      8  C   UNL     1      -2.200  -2.678  24.787  0.00  0.00    +0.017 A 
ATOM      9  C   UNL     1      -2.335  -1.865  24.809  0.00  0.00    +0.077 A 
ATOM     31  C   UNL     1      -3.064  -1.562  24.570  0.00  0.00    +0.021 A 
BRANCH   5   2
ATOM      1  F   UNL     1      -5.116  -1.465  23.830  0.00  0.00    -0.166 F 
ATOM      2  C   UNL     1      -4.386  -1.769  24.069  0.00  0.00    +0.419 C 
ATOM      3  F   UNL     1      -4.425  -1.318  24.759  0.00  0.00    -0.166 F 
ATOM      4  F   UNL     1      -4.348  -2.219  23.379  0.00  0.00    -0.166 F 
ENDBRANCH   5   2
ENDBRANCH  10   9
ENDBRANCH  13  11
ENDBRANCH  14  13
TORSDOF 6
ENDMDL
MODEL 2
REMARK VINA RESULT:     -12.1      2.217      5.780
REMARK  Name = 
REMARK  6 active torsions:
REMARK  status: ('A' for Active; 'I' for Inactive)
REMARK    1  A    between atoms: C_2  and  C_5
REMARK    2  A    between atoms: C_9  and  N_10
REMARK    3  A    between atoms: C_11  and  O_13
REMARK    4  A    between atoms: O_13  and  C_14
REMARK    5  A    between atoms: C_18  and  N_22
REMARK    6  A    between atoms: C_23  and  C_25
REMARK                            x       y       z     vdW  Elec       q    Type
REMARK                         _______ _______ _______ _____ _____    ______ ____
ROOT
ATOM     14  C   UNL     1      -0.432   1.127  24.466  0.00  0.00    +0.229 C 
ATOM     15  C   UNL     1      -0.538   0.901  23.680  0.00  0.00    +0.188 C 
ATOM     16  O   UNL     1      -0.995   0.214  23.673  0.00  0.00    -0.348 OA
ATOM     17  C   UNL     1      -1.171   0.016  24.453  0.00  0.00    +0.168 C 
ATOM     18  C   UNL     1      -1.563  -0.530  24.932  0.00  0.00    +0.154 C 
ATOM     19  C   UNL     1      -1.457  -0.304  25.718  0.00  0.00    +0.166 C 
ATOM     20  O   UNL     1      -1.000   0.383  25.725  0.00  0.00    -0.348 OA
ATOM     21  C   UNL     1      -0.823   0.581  24.944  0.00  0.00    +0.186 C 
ENDROOT
BRANCH  18  22
ATOM     22  N   UNL     1      -1.986  -1.188  24.670  0.00  0.00    -0.202 NA
ATOM     23  C   UNL     1      -2.776  -1.284  24.886  0.00  0.00    +0.241 C 
ATOM     24  O   UNL     1      -3.144  -0.721  25.365  0.00  0.00    -0.273 OA
BRANCH  23  25
ATOM     25  C   UNL     1      -3.200  -1.942  24.624  0.00  0.00    +0.078 C 
ATOM     26  C   UNL     1      -3.828  -1.845  24.099  0.00  0.00    +0.009 C 
ATOM     27  C   UNL     1      -4.252  -2.503  23.836  0.00  0.00    +0.000 C 
ATOM     28  C   UNL     1      -4.046  -3.258  24.100  0.00  0.00    +0.000 C 
ATOM     29  C   UNL     1      -3.417  -3.353  24.625  0.00  0.00    +0.000 C 
ATOM     30  C   UNL     1      -2.993  -2.696  24.887  0.00  0.00    +0.009 C 
ENDBRANCH  23  25
ENDBRANCH  18  22
BRANCH  14  13
ATOM     13  O   UNL     1      -0.009   1.785  24.729  0.00  0.00    -0.432 OA
BRANCH  13  11
ATOM     10  N   UNL     1      -0.540   2.961  25.344  0.00  0.00    -0.142 NA
ATOM     11  C   UNL     1      -0.337   2.540  24.664  0.00  0.00    +0.425 C 
ATOM     12  O   UNL     1      -0.461   2.873  23.919  0.00  0.00    -0.224 OA
BRANCH  10   9
ATOM      5  C   UNL     1      -1.992   4.590  25.396  0.00  0.00    +0.073 A 
ATOM      6  C   UNL     1      -1.524   5.224  25.151  0.00  0.00    +0.004 A 
ATOM      7  C   UNL     1      -0.727   5.103  24.970  0.00  0.00    +0.001 A 
ATOM      8  C   UNL     1      -0.400   4.349  25.035  0.00  0.00    +0.017 A 
ATOM      9  C   UNL     1      -0.868   3.715  25.279  0.00  0.00    +0.077 A 
ATOM     31  C   UNL     1      -1.664   3.836  25.460  0.00  0.00    +0.021 A 
BRANCH   5   2
ATOM      1  F   UNL     1      -3.583   4.833  25.757  0.00  0.00    -0.166 F 
ATOM      2  C   UNL     1      -2.787   4.711  25.576  0.00  0.00    +0.419 C 
ATOM      3  F   UNL     1      -2.593   4.801  26.372  0.00  0.00    -0.166 F 
ATOM      4  F   UNL     1      -2.983   4.622  24.779  0.00  0.00    -0.166 F 
ENDBRANCH   5   2
ENDBRANCH  10   9
ENDBRANCH  13  11
ENDBRANCH  14  13
TORSDOF 6
ENDMDL
MODEL 3
REMARK VINA RESULT:     -12.0      2.085      2.485
REMARK  Name = 
REMARK  6 active torsions:
REMARK  status: ('A' for Active; 'I' for Inactive)
REMARK    1  A    between atoms: C_2  and  C_5
REMARK    2  A    between atoms: C_9  and  N_10
REMARK    3  A    between atoms: C_11  and  O_13
REMARK    4  A    between atoms: O_13  and  C_14
REMARK    5  A    between atoms: C_18  and  N_22
REMARK    6  A    between atoms: C_23  and  C_25
REMARK                            x       y       z     vdW  Elec       q    Type
REMARK                         _______ _______ _______ _____ _____    ______ ____
ROOT
ATOM     14  C   UNL     1      -3.958   1.105  24.148  0.00  0.00    +0.229 C 
ATOM     15  C   UNL     1      -3.467   1.225  23.496  0.00  0.00    +0.188 C 
ATOM     16  O   UNL     1      -3.086   1.950  23.595  0.00  0.00    -0.348 OA
ATOM     17  C   UNL     1      -3.341   2.278  24.307  0.00  0.00    +0.168 C 
ATOM     18  C   UNL     1      -3.264   2.928  24.809  0.00  0.00    +0.154 C 
ATOM     19  C   UNL     1      -3.754   2.808  25.461  0.00  0.00    +0.166 C 
ATOM     20  O   UNL     1      -4.135   2.083  25.362  0.00  0.00    -0.348 OA
ATOM     21  C   UNL     1      -3.880   1.755  24.649  0.00  0.00    +0.186 C 
ENDROOT
BRANCH  18  22
ATOM     22  N   UNL     1      -2.780   3.584  24.681  0.00  0.00    -0.202 NA
ATOM     23  C   UNL     1      -2.219   3.800  25.246  0.00  0.00    +0.241 C 
ATOM     24  O   UNL     1      -2.143   3.361  25.940  0.00  0.00    -0.273 OA
BRANCH  23  25
ATOM     25  C   UNL     1      -1.735   4.456  25.118  0.00  0.00    +0.078 C 
ATOM     26  C   UNL     1      -2.043   5.218  25.199  0.00  0.00    +0.009 C 
ATOM     27  C   UNL     1      -1.559   5.874  25.071  0.00  0.00    +0.000 C 
ATOM     28  C   UNL     1      -0.768   5.767  24.862  0.00  0.00    +0.000 C 
ATOM     29  C   UNL     1      -0.461   5.007  24.781  0.00  0.00    +0.000 C 
ATOM     30  C   UNL     1      -0.944   4.350  24.909  0.00  0.00    +0.009 C 
ENDBRANCH  23  25
ENDBRANCH  18  22
BRANCH  14  13
ATOM     13  O   UNL     1      -4.442   0.449  24.276  0.00  0.00    -0.432 OA
BRANCH  13  11
ATOM     10  N   UNL     1      -4.045  -0.846  24.732  0.00  0.00    -0.142 NA
ATOM     11  C   UNL     1      -4.160  -0.310  24.116  0.00  0.00    +0.425 C 
ATOM     12  O   UNL     1      -3.992  -0.532  23.339  0.00  0.00    -0.224 OA
BRANCH  10   9
ATOM      5  C   UNL     1      -2.690  -2.548  24.553  0.00  0.00    +0.073 A 
ATOM      6  C   UNL     1      -3.200  -3.122  24.253  0.00  0.00    +0.004 A 
ATOM      7  C   UNL     1      -3.992  -2.938  24.112  0.00  0.00    +0.001 A 
ATOM      8  C   UNL     1      -4.273  -2.179  24.272  0.00  0.00    +0.017 A 
ATOM      9  C   UNL     1      -3.763  -1.605  24.573  0.00  0.00    +0.077 A 
ATOM     31  C   UNL     1      -2.972  -1.789  24.713  0.00  0.00    +0.021 A 
BRANCH   5   2
ATOM      1  F   UNL     1      -1.107  -2.916  24.835  0.00  0.00    -0.166 F 
ATOM      2  C   UNL     1      -1.899  -2.732  24.694  0.00  0.00    +0.419 C 
ATOM      3  F   UNL     1      -2.021  -2.639  25.504  0.00  0.00    -0.166 F 
ATOM      4  F   UNL     1      -1.775  -2.826  23.884  0.00  0.00    -0.166 F 
ENDBRANCH   5   2
ENDBRANCH  10   9
ENDBRANCH  13  11
ENDBRANCH  14  13
TORSDOF 6
ENDMDL
MODEL 4
REMARK VINA RESULT:     -11.7      3.095      6.412
REMARK  Name = 
REMARK  6 active torsions:
REMARK  status: ('A' for Active; 'I' for Inactive)
REMARK    1  A    between atoms: C_2  and  C_5
REMARK    2  A    between atoms: C_9  and  N_10
REMARK    3  A    between atoms: C_11  and  O_13
REMARK    4  A    between atoms: O_13  and  C_14
REMARK    5  A    between atoms: C_18  and  N_22
REMARK    6  A    between atoms: C_23  and  C_25
REMARK                            x       y       z     vdW  Elec       q    Type
REMARK                         _______ _______ _______ _____ _____    ______ ____
ROOT
ATOM     14  C   UNL     1      -4.112   2.334  24.350  0.00  0.00    +0.229 C 
ATOM     15  C   UNL     1      -3.756   2.107  23.641  0.00  0.00    +0.188 C 
ATOM     16  O   UNL     1      -3.774   1.284  23.600  0.00  0.00    -0.348 OA
ATOM     17  C   UNL     1      -4.140   1.001  24.282  0.00  0.00    +0.168 C 
ATOM     18  C   UNL     1      -4.378   0.318  24.678  0.00  0.00    +0.154 C 
ATOM     19  C   UNL     1      -4.734   0.545  25.387  0.00  0.00    +0.166 C 
ATOM     20  O   UNL     1      -4.716   1.368  25.429  0.00  0.00    -0.348 OA
ATOM     21  C   UNL     1      -4.349   1.651  24.746  0.00  0.00    +0.186 C 
ENDROOT
BRANCH  18  22
ATOM     22  N   UNL     1      -4.278  -0.457  24.412  0.00  0.00    -0.202 NA
ATOM     23  C   UNL     1      -3.966  -1.029  24.917  0.00  0.00    +0.241 C 
ATOM     24  O   UNL     1      -3.754  -0.828  25.689  0.00  0.00    -0.273 OA
BRANCH  23  25
ATOM     25  C   UNL     1      -3.865  -1.804  24.651  0.00  0.00    +0.078 C 
ATOM     26  C   UNL     1      -3.361  -2.317  25.055  0.00  0.00    +0.009 C 
ATOM     27  C   UNL     1      -3.260  -3.091  24.790  0.00  0.00    +0.000 C 
ATOM     28  C   UNL     1      -3.665  -3.352  24.118  0.00  0.00    +0.000 C 
ATOM     29  C   UNL     1      -4.168  -2.839  23.715  0.00  0.00    +0.000 C 
ATOM     30  C   UNL     1      -4.269  -2.065  23.981  0.00  0.00    +0.009 C 
ENDBRANCH  23  25
ENDBRANCH  18  22
BRANCH  14  13
ATOM     13  O   UNL     1      -4.212   3.109  24.616  0.00  0.00    -0.432 OA
BRANCH  13  11
ATOM     10  N   UNL     1      -3.087   3.737  25.234  0.00  0.00    -0.142 NA
ATOM     11  C   UNL     1      -3.583   3.642  24.582  0.00  0.00    +0.425 C 
ATOM     12  O   UNL     1      -3.452   4.080  23.895  0.00  0.00    -0.224 OA
BRANCH  10   9
ATOM      5  C   UNL     1      -1.062   4.529  25.044  0.00  0.00    +0.073 A 
ATOM      6  C   UNL     1      -1.202   5.337  25.131  0.00  0.00    +0.004 A 
ATOM      7  C   UNL     1      -1.970   5.612  25.253  0.00  0.00    +0.001 A 
ATOM      8  C   UNL     1      -2.598   5.079  25.287  0.00  0.00    +0.017 A 
ATOM      9  C   UNL     1      -2.458   4.270  25.199  0.00  0.00    +0.077 A 
ATOM     31  C   UNL     1      -1.690   3.996  25.078  0.00  0.00    +0.021 A 
BRANCH   5   2
ATOM      1  F   UNL     1       0.475   3.980  24.801  0.00  0.00    -0.166 F 
ATOM      2  C   UNL     1      -0.294   4.255  24.922  0.00  0.00    +0.419 C 
ATOM      3  F   UNL     1      -0.315   3.873  25.653  0.00  0.00    -0.166 F 
ATOM      4  F   UNL     1      -0.272   4.637  24.191  0.00  0.00    -0.166 F 
ENDBRANCH   5   2
ENDBRANCH  10   9
ENDBRANCH  13  11
ENDBRANCH  14  13
TORSDOF 6
ENDMDL
MODEL 5
REMARK VINA RESULT:     -10.4      3.158      4.807
REMARK  Name = 
REMARK  6 active torsions:
REMARK  status: ('A' for Active; 'I' for Inactive)
REMARK    1  A    between atoms: C_2  and  C_5
REMARK    2  A    between atoms: C_9  and  N_10
REMARK    3  A    between atoms: C_11  and  O_13
REMARK    4  A    between atoms: O_13  and  C_14
REMARK    5  A    between atoms: C_18  and  N_22
REMARK    6  A    between atoms: C_23  and  C_25
REMARK                            x       y       z     vdW  Elec       q    Type
REMARK                         _______ _______ _______ _____ _____    ______ ____
ROOT
ATOM     14  C   UNL     1      -0.895   0.866  23.985  0.00  0.00    +0.229 C 
ATOM     15  C   UNL     1      -0.527   1.455  24.430  0.00  0.00    +0.188 C 
ATOM     16  O   UNL     1       0.286   1.394  24.310  0.00  0.00    -0.348 OA
ATOM     17  C   UNL     1       0.422   0.768  23.792  0.00  0.00    +0.168 C 
ATOM     18  C   UNL     1       1.008   0.342  23.396  0.00  0.00    +0.154 C 
ATOM     19  C   UNL     1       0.640  -0.247  22.951  0.00  0.00    +0.166 C 
ATOM     20  O   UNL     1      -0.173  -0.186  23.071  0.00  0.00    -0.348 OA
ATOM     21  C   UNL     1      -0.309   0.441  23.590  0.00  0.00    +0.186 C 
ENDROOT
BRANCH  18  22
ATOM     22  N   UNL     1       1.820   0.481  23.439  0.00  0.00    -0.202 NA
ATOM     23  C   UNL     1       2.320   0.193  22.849  0.00  0.00    +0.241 C 
ATOM     24  O   UNL     1       2.008  -0.234  22.216  0.00  0.00    -0.273 OA
BRANCH  23  25
ATOM     25  C   UNL     1       3.132   0.333  22.892  0.00  0.00    +0.078 C 
ATOM     26  C   UNL     1       3.442   1.052  22.631  0.00  0.00    +0.009 C 
ATOM     27  C   UNL     1       4.254   1.192  22.673  0.00  0.00    +0.000 C 
ATOM     28  C   UNL     1       4.756   0.612  22.978  0.00  0.00    +0.000 C 
ATOM     29  C   UNL     1       4.446  -0.106  23.239  0.00  0.00    +0.000 C 
ATOM     30  C   UNL     1       3.634  -0.247  23.196  0.00  0.00    +0.009 C 
ENDBRANCH  23  25
ENDBRANCH  18  22
BRANCH  14  13
ATOM     13  O   UNL     1      -1.707   0.727  23.942  0.00  0.00    -0.432 OA
BRANCH  13  11
ATOM     10  N   UNL     1      -2.903   1.493  23.781  0.00  0.00    -0.142 NA
ATOM     11  C   UNL     1      -2.239   1.290  24.226  0.00  0.00    +0.425 C 
ATOM     12  O   UNL     1      -2.104   1.652  24.956  0.00  0.00    -0.224 OA
BRANCH  10   9
ATOM      5  C   UNL     1      -4.655   2.382  24.733  0.00  0.00    +0.073 A 
ATOM      6  C   UNL     1      -4.496   3.185  24.633  0.00  0.00    +0.004 A 
ATOM      7  C   UNL     1      -3.805   3.424  24.249  0.00  0.00    +0.001 A 
ATOM      8  C   UNL     1      -3.275   2.860  23.965  0.00  0.00    +0.017 A 
ATOM      9  C   UNL     1      -3.434   2.057  24.065  0.00  0.00    +0.077 A 
ATOM     31  C   UNL     1      -4.123   1.818  24.449  0.00  0.00    +0.021 A 
BRANCH   5   2
ATOM      1  F   UNL     1      -6.035   1.904  25.500  0.00  0.00    -0.166 F 
ATOM      2  C   UNL     1      -5.344   2.143  25.116  0.00  0.00    +0.419 C 
ATOM      3  F   UNL     1      -5.691   1.973  24.387  0.00  0.00    -0.166 F 
ATOM      4  F   UNL     1      -4.999   2.312  25.846  0.00  0.00    -0.166 F 
ENDBRANCH   5   2
ENDBRANCH  10   9
ENDBRANCH  13  11
ENDBRANCH  14  13
TORSDOF 6
ENDMDL
MODEL 6
REMARK VINA RESULT:     -10.4      2.805      4.330
REMARK  Name = 
REMARK  6 active torsions:
REMARK  status: ('A' for Active; 'I' for Inactive)
REMARK    1  A    between atoms: C_2  and  C_5
REMARK    2  A    between atoms: C_9  and  N_10
REMARK    3  A    between atoms: C_11  and  O_13
REMARK    4  A    between atoms: O_13  and  C_14
REMARK    5  A    between atoms: C_18  and  N_22
REMARK    6  A    between atoms: C_23  and  C_25
REMARK                            x       y       z     vdW  Elec       q    Type
REMARK                         _______ _______ _______ _____ _____    ______ ____
ROOT
ATOM     14  C   UNL     1      -0.556   1.101  23.653  0.00  0.00    +0.229 C 
ATOM     15  C   UNL     1      -0.184   1.537  24.246  0.00  0.00    +0.188 C 
ATOM     16  O   UNL     1       0.621   1.359  24.225  0.00  0.00    -0.348 OA
ATOM     17  C   UNL     1       0.747   0.813  23.621  0.00  0.00    +0.168 C 
ATOM     18  C   UNL     1       1.322   0.366  23.233  0.00  0.00    +0.154 C 
ATOM     19  C   UNL     1       0.950  -0.071  22.640  0.00  0.00    +0.166 C 
ATOM     20  O   UNL     1       0.145   0.107  22.661  0.00  0.00    -0.348 OA
ATOM     21  C   UNL     1       0.019   0.654  23.267  0.00  0.00    +0.186 C 
ENDROOT
BRANCH  18  22
ATOM     22  N   UNL     1       2.128   0.356  23.409  0.00  0.00    -0.202 NA
ATOM     23  C   UNL     1       2.678   0.205  22.813  0.00  0.00    +0.241 C 
ATOM     24  O   UNL     1       2.423   0.063  22.041  0.00  0.00    -0.273 OA
BRANCH  23  25
ATOM     25  C   UNL     1       3.485   0.195  22.988  0.00  0.00    +0.078 C 
ATOM     26  C   UNL     1       3.949   0.858  22.828  0.00  0.00    +0.009 C 
ATOM     27  C   UNL     1       4.756   0.849  23.003  0.00  0.00    +0.000 C 
ATOM     28  C   UNL     1       5.097   0.176  23.339  0.00  0.00    +0.000 C 
ATOM     29  C   UNL     1       4.632  -0.485  23.499  0.00  0.00    +0.000 C 
ATOM     30  C   UNL     1       3.825  -0.477  23.324  0.00  0.00    +0.009 C 
ENDBRANCH  23  25
ENDBRANCH  18  22
BRANCH  14  13
ATOM     13  O   UNL     1      -1.362   1.110  23.478  0.00  0.00    -0.432 OA
BRANCH  13  11
ATOM     10  N   UNL     1      -2.560   0.397  23.790  0.00  0.00    -0.142 NA
ATOM     11  C   UNL     1      -1.909   0.839  24.033  0.00  0.00    +0.425 C 
ATOM     12  O   UNL     1      -1.802   1.012  24.834  0.00  0.00    -0.224 OA
BRANCH  10   9
ATOM      5  C   UNL     1      -3.633  -0.930  25.152  0.00  0.00    +0.073 A 
ATOM      6  C   UNL     1      -4.200  -0.414  25.457  0.00  0.00    +0.004 A 
ATOM      7  C   UNL     1      -4.221   0.372  25.206  0.00  0.00    +0.001 A 
ATOM      8  C   UNL     1      -3.674   0.641  24.651  0.00  0.00    +0.017 A 
ATOM      9  C   UNL     1      -3.107   0.126  24.346  0.00  0.00    +0.077 A 
ATOM     31  C   UNL     1      -3.087  -0.659  24.596  0.00  0.00    +0.021 A 
BRANCH   5   2
ATOM      1  F   UNL     1      -3.593  -2.501  25.653  0.00  0.00    -0.166 F 
ATOM      2  C   UNL     1      -3.613  -1.715  25.403  0.00  0.00    +0.419 C 
ATOM      3  F   UNL     1      -3.994  -1.946  24.709  0.00  0.00    -0.166 F 
ATOM      4  F   UNL     1      -3.231  -1.485  26.097  0.00  0.00    -0.166 F 
ENDBRANCH   5   2
ENDBRANCH  10   9
ENDBRANCH  13  11
ENDBRANCH  14  13
TORSDOF 6
ENDMDL
MODEL 7
REMARK VINA RESULT:     -10.3      4.307      6.258
REMARK  Name = 
REMARK  6 active torsions:
REMARK  status: ('A' for Active; 'I' for Inactive)
REMARK    1  A    between atoms: C_2  and  C_5
REMARK    2  A    between atoms: C_9  and  N_10
REMARK    3  A    between atoms: C_11  and  O_13
REMARK    4  A    between atoms: O_13  and  C_14
REMARK    5  A    between atoms: C_18  and  N_22
REMARK    6  A    between atoms: C_23  and  C_25
REMARK                            x       y       z     vdW  Elec       q    Type
REMARK                         _______ _______ _______ _____ _____    ______ ____
ROOT
ATOM     14  C   UNL     1       1.040   0.437  23.232  0.00  0.00    +0.229 C 
ATOM     15  C   UNL     1       0.931  -0.349  23.007  0.00  0.00    +0.188 C 
ATOM     16  O   UNL     1       0.236  -0.620  23.358  0.00  0.00    -0.348 OA
ATOM     17  C   UNL     1      -0.086  -0.002  23.799  0.00  0.00    +0.168 C 
ATOM     18  C   UNL     1      -0.714   0.213  24.289  0.00  0.00    +0.154 C 
ATOM     19  C   UNL     1      -0.605   0.999  24.513  0.00  0.00    +0.166 C 
ATOM     20  O   UNL     1       0.090   1.270  24.162  0.00  0.00    -0.348 OA
ATOM     21  C   UNL     1       0.411   0.651  23.721  0.00  0.00    +0.186 C 
ENDROOT
BRANCH  18  22
ATOM     22  N   UNL     1      -1.341  -0.273  24.514  0.00  0.00    -0.202 NA
ATOM     23  C   UNL     1      -2.104   0.035  24.565  0.00  0.00    +0.241 C 
ATOM     24  O   UNL     1      -2.241   0.829  24.391  0.00  0.00    -0.273 OA
BRANCH  23  25
ATOM     25  C   UNL     1      -2.732  -0.452  24.791  0.00  0.00    +0.078 C 
ATOM     26  C   UNL     1      -3.340  -0.615  24.258  0.00  0.00    +0.009 C 
ATOM     27  C   UNL     1      -3.967  -1.101  24.482  0.00  0.00    +0.000 C 
ATOM     28  C   UNL     1      -3.986  -1.425  25.242  0.00  0.00    +0.000 C 
ATOM     29  C   UNL     1      -3.378  -1.262  25.774  0.00  0.00    +0.000 C 
ATOM     30  C   UNL     1      -2.750  -0.775  25.550  0.00  0.00    +0.009 C 
ENDBRANCH  23  25
ENDBRANCH  18  22
BRANCH  14  13
ATOM     13  O   UNL     1       1.667   0.924  23.006  0.00  0.00    -0.432 OA
BRANCH  13  11
ATOM     10  N   UNL     1       3.078   0.988  23.224  0.00  0.00    -0.142 NA
ATOM     11  C   UNL     1       2.421   0.605  22.905  0.00  0.00    +0.425 C 
ATOM     12  O   UNL     1       2.518  -0.098  22.484  0.00  0.00    -0.224 OA
BRANCH  10   9
ATOM      5  C   UNL     1       4.963  -0.026  23.651  0.00  0.00    +0.073 A 
ATOM      6  C   UNL     1       5.340   0.032  22.919  0.00  0.00    +0.004 A 
ATOM      7  C   UNL     1       4.963   0.409  22.289  0.00  0.00    +0.001 A 
ATOM      8  C   UNL     1       4.209   0.728  22.391  0.00  0.00    +0.017 A 
ATOM      9  C   UNL     1       3.832   0.669  23.123  0.00  0.00    +0.077 A 
ATOM     31  C   UNL     1       4.209   0.293  23.752  0.00  0.00    +0.021 A 
BRANCH   5   2
ATOM      1  F   UNL     1       5.717  -0.781  24.909  0.00  0.00    -0.166 F 
ATOM      2  C   UNL     1       5.340  -0.403  24.280  0.00  0.00    +0.419 C 
ATOM      3  F   UNL     1       5.106  -1.135  23.981  0.00  0.00    -0.166 F 
ATOM      4  F   UNL     1       5.573   0.329  24.580  0.00  0.00    -0.166 F 
ENDBRANCH   5   2
ENDBRANCH  10   9
ENDBRANCH  13  11
ENDBRANCH  14  13
TORSDOF 6
ENDMDL
