REMARK  Name = 
REMARK  11 active torsions:
REMARK  status: ('A' for Active; 'I' for Inactive)
REMARK    1  A    between atoms: O_2  and  C_3
REMARK    2  A    between atoms: C_3  and  C_4
REMARK    3  A    between atoms: C_4  and  O_5
REMARK    4  A    between atoms: O_5  and  C_6
REMARK    5  A    between atoms: C_8  and  C_12
REMARK    6  A    between atoms: C_15  and  C_17
REMARK    7  A    between atoms: N_21  and  C_22
REMARK    8  A    between atoms: C_22  and  C_23
REMARK    9  A    between atoms: C_25  and  O_26
REMARK   10  A    between atoms: C_28  and  O_29
REMARK   11  A    between atoms: C_31  and  O_32
REMARK                            x       y       z     vdW  Elec       q    Type
REMARK                         _______ _______ _______ _____ _____    ______ ____
ROOT
ATOM     17  C   UNL     1       0.151  -4.727   0.000  0.00  0.00    +0.138 C 
ATOM     18  C   UNL     1       0.406  -5.512   0.000  0.00  0.00    +0.027 C 
ATOM     19  C   UNL     1      -0.262  -5.997   0.000  0.00  0.00    +0.019 C 
ATOM     20  C   UNL     1      -0.929  -5.512   0.000  0.00  0.00    +0.073 C 
ATOM     21  N   UNL     1      -0.674  -4.727   0.000  0.00  0.00    -0.263 NA
ENDROOT
BRANCH  17  15
ATOM     12  C   UNL     1       1.048  -2.790   0.000  0.00  0.00    +0.221 A 
ATOM     13  N   UNL     1       1.716  -3.275   0.000  0.00  0.00    -0.054 NA
ATOM     14  O   UNL     1       1.461  -4.060   0.000  0.00  0.00    -0.336 OA
ATOM     15  C   UNL     1       0.636  -4.060   0.000  0.00  0.00    +0.251 A 
ATOM     16  N   UNL     1       0.381  -3.275   0.000  0.00  0.00    -0.188 NA
BRANCH  12   8
ATOM      6  C   UNL     1       1.763  -0.728   0.000  0.00  0.00    +0.142 A 
ATOM      7  C   UNL     1       1.763  -1.553   0.000  0.00  0.00    +0.059 A 
ATOM      8  C   UNL     1       1.048  -1.965   0.000  0.00  0.00    +0.123 A 
ATOM      9  N   UNL     1       0.334  -1.553   0.000  0.00  0.00    -0.240 NA
ATOM     10  C   UNL     1       0.334  -0.728   0.000  0.00  0.00    +0.102 A 
ATOM     11  C   UNL     1       1.048  -0.315   0.000  0.00  0.00    +0.058 A 
BRANCH   6   5
ATOM      5  O   UNL     1       2.477  -0.315   0.000  0.00  0.00    -0.473 OA
BRANCH   5   4
ATOM      4  C   UNL     1       2.477   0.510   0.000  0.00  0.00    +0.237 C 
BRANCH   4   3
ATOM      3  C   UNL     1       3.192   0.922   0.000  0.00  0.00    +0.189 C 
BRANCH   3   2
ATOM      1  C   UNL     1       3.906   2.160   0.000  0.00  0.00    +0.174 C 
ATOM      2  O   UNL     1       3.192   1.747   0.000  0.00  0.00    -0.347 OA
ENDBRANCH   3   2
ENDBRANCH   4   3
ENDBRANCH   5   4
ENDBRANCH   6   5
ENDBRANCH  12   8
ENDBRANCH  17  15
BRANCH  21  22
ATOM     22  C   UNL     1      -1.159  -4.060   0.000  0.00  0.00    +0.100 C 
BRANCH  22  23
ATOM     23  C   UNL     1      -1.979  -4.146   0.000  0.00  0.00    +0.000 A 
ATOM     24  C   UNL     1      -2.315  -4.900   0.000  0.00  0.00    +0.037 A 
ATOM     25  C   UNL     1      -3.135  -4.986   0.000  0.00  0.00    +0.175 A 
ATOM     28  C   UNL     1      -3.620  -4.319   0.000  0.00  0.00    +0.206 A 
ATOM     31  C   UNL     1      -3.285  -3.565   0.000  0.00  0.00    +0.175 A 
ATOM     34  C   UNL     1      -2.464  -3.479   0.000  0.00  0.00    +0.037 A 
BRANCH  25  26
ATOM     26  O   UNL     1      -3.471  -5.740   0.000  0.00  0.00    -0.468 OA
ATOM     27  C   UNL     1      -4.292  -5.826   0.000  0.00  0.00    +0.253 C 
ENDBRANCH  25  26
BRANCH  28  29
ATOM     29  O   UNL     1      -4.441  -4.405   0.000  0.00  0.00    -0.465 OA
ATOM     30  C   UNL     1      -4.776  -5.159   0.000  0.00  0.00    +0.253 C 
ENDBRANCH  28  29
BRANCH  31  32
ATOM     32  O   UNL     1      -3.770  -2.897   0.000  0.00  0.00    -0.468 OA
ATOM     33  C   UNL     1      -3.434  -2.144   0.000  0.00  0.00    +0.253 C 
ENDBRANCH  31  32
ENDBRANCH  22  23
ENDBRANCH  21  22
TORSDOF 11
