REMARK  Name = 
REMARK  1 active torsions:
REMARK  status: ('A' for Active; 'I' for Inactive)
REMARK    1  A    between atoms: C_11  and  C_18
REMARK                            x       y       z     vdW  Elec       q    Type
REMARK                         _______ _______ _______ _____ _____    ______ ____
ROOT
ATOM      1  O   UNL     1       5.611   1.588   0.000  0.00  0.00    -0.221 OA
ATOM      2  C   UNL     1       4.809   1.780   0.000  0.00  0.00    +0.174 C 
ATOM      3  C   UNL     1       4.493   2.542   0.000  0.00  0.00    +0.064 C 
ATOM      4  C   UNL     1       3.671   2.478   0.000  0.00  0.00    +0.157 C 
ATOM      5  N   UNL     1       3.478   1.676   0.000  0.00  0.00    -0.267 N 
ATOM      6  C   UNL     1       4.182   1.244   0.000  0.00  0.00    +0.127 C 
ATOM      7  C   UNL     1       2.731   1.326   0.000  0.00  0.00    +0.251 C 
ATOM      8  O   UNL     1       2.722   0.501   0.000  0.00  0.00    -0.270 OA
ATOM      9  C   UNL     1       1.992   1.692   0.000  0.00  0.00    +0.069 A 
ATOM     10  C   UNL     1       1.381   1.138   0.000  0.00  0.00    +0.006 A 
ATOM     11  C   UNL     1       0.595   1.390   0.000  0.00  0.00    +0.002 A 
ATOM     12  C   UNL     1       0.421   2.196   0.000  0.00  0.00    +0.001 A 
ATOM     13  C   UNL     1       1.032   2.751   0.000  0.00  0.00    +0.017 A 
ATOM     14  C   UNL     1       1.817   2.498   0.000  0.00  0.00    +0.078 A 
ATOM     15  N   UNL     1       2.339   3.138   0.000  0.00  0.00    -0.178 NA
ATOM     16  C   UNL     1       3.164   3.128   0.000  0.00  0.00    +0.264 C 
ATOM     17  O   UNL     1       3.530   3.868   0.000  0.00  0.00    -0.271 OA
ENDROOT
BRANCH  11  18
ATOM     18  C   UNL     1      -0.016   0.836   0.000  0.00  0.00    +0.028 A 
ATOM     19  C   UNL     1       0.159   0.029   0.000  0.00  0.00    +0.142 A 
ATOM     20  F   UNL     1       0.944  -0.223   0.000  0.00  0.00    -0.204 F 
ATOM     21  C   UNL     1      -0.452  -0.525   0.000  0.00  0.00    +0.059 A 
ATOM     22  C   UNL     1      -1.238  -0.273   0.000  0.00  0.00    +0.142 A 
ATOM     23  F   UNL     1      -1.849  -0.828   0.000  0.00  0.00    -0.204 F 
ATOM     24  C   UNL     1      -1.412   0.533   0.000  0.00  0.00    +0.030 A 
ATOM     25  C   UNL     1      -0.801   1.087   0.000  0.00  0.00    +0.005 A 
ENDBRANCH  11  18
TORSDOF 1
