MODEL 1
REMARK VINA RESULT:     -12.6      0.000      0.000
REMARK  Name = 
REMARK  8 active torsions:
REMARK  status: ('A' for Active; 'I' for Inactive)
REMARK    1  A    between atoms: S_2  and  N_4
REMARK    2  A    between atoms: S_2  and  C_28
REMARK    3  A    between atoms: N_4  and  C_5
REMARK    4  A    between atoms: C_5  and  C_6
REMARK    5  A    between atoms: C_13  and  C_14
REMARK    6  A    between atoms: C_14  and  N_15
REMARK    7  A    between atoms: C_18  and  C_19
REMARK    8  A    between atoms: C_19  and  C_20
REMARK                            x       y       z     vdW  Elec       q    Type
REMARK                         _______ _______ _______ _____ _____    ______ ____
ROOT
ATOM      6  C   UNL     1      -4.424   2.837  24.807  0.00  0.00    +0.077 C 
ATOM      7  C   UNL     1      -5.117   2.530  24.982  0.00  0.00    +0.018 C 
ATOM      8  C   UNL     1      -5.294   1.740  24.991  0.00  0.00    +0.005 C 
ATOM      9  C   UNL     1      -6.149   1.592  25.218  0.00  0.00    +0.017 C 
ATOM     10  C   UNL     1      -5.621   1.955  25.091  0.00  0.00    +0.072 C 
ATOM     11  N   UNL     1      -4.612   2.033  24.819  0.00  0.00    -0.272 NA
ATOM     12  C   UNL     1      -4.115   1.287  24.646  0.00  0.00    +0.073 C 
ATOM     13  C   UNL     1      -4.811   1.027  24.823  0.00  0.00    +0.032 C 
ENDROOT
BRANCH   6   5
ATOM      5  C   UNL     1      -3.906   3.469  24.696  0.00  0.00    +0.131 C 
BRANCH   5   4
ATOM      4  N   UNL     1      -3.499   3.786  25.340  0.00  0.00    -0.076 NA
BRANCH   4   2
ATOM      1  O   UNL     1      -2.950   4.320  24.461  0.00  0.00    -0.152 OA
ATOM      2  S   UNL     1      -2.749   4.113  25.234  0.00  0.00    +0.077 S 
ATOM      3  O   UNL     1      -2.549   3.905  26.008  0.00  0.00    -0.152 OA
BRANCH   2  28
ATOM     28  C   UNL     1      -1.999   4.439  25.128  0.00  0.00    +0.124 A 
ATOM     29  C   UNL     1      -1.902   5.258  25.124  0.00  0.00    +0.020 A 
ATOM     30  C   UNL     1      -1.152   5.585  25.018  0.00  0.00    +0.001 A 
ATOM     31  C   UNL     1      -0.498   5.092  24.916  0.00  0.00    +0.000 A 
ATOM     32  C   UNL     1      -0.595   4.272  24.920  0.00  0.00    +0.001 A 
ATOM     33  C   UNL     1      -1.345   3.946  25.026  0.00  0.00    +0.020 A 
ENDBRANCH   2  28
ENDBRANCH   4   2
ENDBRANCH   5   4
ENDBRANCH   6   5
BRANCH  13  14
ATOM     14  C   UNL     1      -5.056   0.239  24.851  0.00  0.00    +0.073 C 
BRANCH  14  15
ATOM     15  N   UNL     1      -4.496  -0.366  24.877  0.00  0.00    -0.273 NA
ATOM     16  C   UNL     1      -4.292  -0.768  24.187  0.00  0.00    +0.072 C 
ATOM     17  C   UNL     1      -3.731  -1.374  24.213  0.00  0.00    +0.018 C 
ATOM     18  C   UNL     1      -3.376  -1.576  24.929  0.00  0.00    +0.007 C 
ATOM     26  C   UNL     1      -3.581  -1.174  25.620  0.00  0.00    +0.018 C 
ATOM     27  C   UNL     1      -4.141  -0.569  25.593  0.00  0.00    +0.072 C 
BRANCH  18  19
ATOM     19  C   UNL     1      -2.816  -2.181  24.955  0.00  0.00    +0.026 C 
BRANCH  19  20
ATOM     20  C   UNL     1      -2.013  -2.004  24.877  0.00  0.00    -0.022 A 
ATOM     21  C   UNL     1      -1.599  -1.680  25.513  0.00  0.00    -0.004 A 
ATOM     22  C   UNL     1      -0.797  -1.503  25.435  0.00  0.00    -0.000 A 
ATOM     23  C   UNL     1      -0.410  -1.651  24.722  0.00  0.00    -0.000 A 
ATOM     24  C   UNL     1      -0.824  -1.975  24.087  0.00  0.00    -0.000 A 
ATOM     25  C   UNL     1      -1.627  -2.152  24.165  0.00  0.00    -0.004 A 
ENDBRANCH  19  20
ENDBRANCH  18  19
ENDBRANCH  14  15
ENDBRANCH  13  14
TORSDOF 8
ENDMDL
MODEL 2
REMARK VINA RESULT:     -12.2      1.828      5.334
REMARK  Name = 
REMARK  8 active torsions:
REMARK  status: ('A' for Active; 'I' for Inactive)
REMARK    1  A    between atoms: S_2  and  N_4
REMARK    2  A    between atoms: S_2  and  C_28
REMARK    3  A    between atoms: N_4  and  C_5
REMARK    4  A    between atoms: C_5  and  C_6
REMARK    5  A    between atoms: C_13  and  C_14
REMARK    6  A    between atoms: C_14  and  N_15
REMARK    7  A    between atoms: C_18  and  C_19
REMARK    8  A    between atoms: C_19  and  C_20
REMARK                            x       y       z     vdW  Elec       q    Type
REMARK                         _______ _______ _______ _____ _____    ______ ____
ROOT
ATOM      6  C   UNL     1      -4.880   0.576  24.796  0.00  0.00    +0.077 C 
ATOM      7  C   UNL     1      -5.470   1.011  25.058  0.00  0.00    +0.018 C 
ATOM      8  C   UNL     1      -5.438   1.805  25.212  0.00  0.00    +0.005 C 
ATOM      9  C   UNL     1      -6.224   2.120  25.506  0.00  0.00    +0.017 C 
ATOM     10  C   UNL     1      -5.809   1.664  25.291  0.00  0.00    +0.072 C 
ATOM     11  N   UNL     1      -4.855   1.386  24.956  0.00  0.00    -0.272 NA
ATOM     12  C   UNL     1      -4.185   2.001  24.887  0.00  0.00    +0.073 C 
ATOM     13  C   UNL     1      -4.789   2.392  25.143  0.00  0.00    +0.032 C 
ENDROOT
BRANCH   6   5
ATOM      5  C   UNL     1      -4.543  -0.136  24.551  0.00  0.00    +0.131 C 
BRANCH   5   4
ATOM      4  N   UNL     1      -4.356  -0.716  25.107  0.00  0.00    -0.076 NA
BRANCH   4   2
ATOM      1  O   UNL     1      -3.493  -1.254  25.678  0.00  0.00    -0.152 OA
ATOM      2  S   UNL     1      -3.812  -1.307  24.919  0.00  0.00    +0.077 S 
ATOM      3  O   UNL     1      -4.132  -1.360  24.159  0.00  0.00    -0.152 OA
BRANCH   2  28
ATOM     28  C   UNL     1      -3.268  -1.898  24.731  0.00  0.00    +0.124 A 
ATOM     29  C   UNL     1      -3.531  -2.656  24.543  0.00  0.00    +0.020 A 
ATOM     30  C   UNL     1      -2.987  -3.247  24.354  0.00  0.00    +0.001 A 
ATOM     31  C   UNL     1      -2.179  -3.079  24.353  0.00  0.00    +0.000 A 
ATOM     32  C   UNL     1      -1.916  -2.320  24.542  0.00  0.00    +0.001 A 
ATOM     33  C   UNL     1      -2.460  -1.730  24.730  0.00  0.00    +0.020 A 
ENDBRANCH   2  28
ENDBRANCH   4   2
ENDBRANCH   5   4
ENDBRANCH   6   5
BRANCH  13  14
ATOM     14  C   UNL     1      -4.823   3.198  25.319  0.00  0.00    +0.073 C 
BRANCH  14  15
ATOM     15  N   UNL     1      -4.127   3.639  25.370  0.00  0.00    -0.273 NA
ATOM     16  C   UNL     1      -3.814   3.993  24.695  0.00  0.00    +0.072 C 
ATOM     17  C   UNL     1      -3.118   4.434  24.746  0.00  0.00    +0.018 C 
ATOM     18  C   UNL     1      -2.737   4.520  25.472  0.00  0.00    +0.007 C 
ATOM     26  C   UNL     1      -3.050   4.165  26.148  0.00  0.00    +0.018 C 
ATOM     27  C   UNL     1      -3.746   3.724  26.096  0.00  0.00    +0.072 C 
BRANCH  18  19
ATOM     19  C   UNL     1      -2.041   4.960  25.523  0.00  0.00    +0.026 C 
BRANCH  19  20
ATOM     20  C   UNL     1      -1.335   4.652  25.227  0.00  0.00    -0.022 A 
ATOM     21  C   UNL     1      -0.951   5.030  24.602  0.00  0.00    -0.004 A 
ATOM     22  C   UNL     1      -0.245   4.722  24.306  0.00  0.00    -0.000 A 
ATOM     23  C   UNL     1       0.077   4.037  24.635  0.00  0.00    -0.000 A 
ATOM     24  C   UNL     1      -0.307   3.660  25.261  0.00  0.00    -0.000 A 
ATOM     25  C   UNL     1      -1.014   3.968  25.557  0.00  0.00    -0.004 A 
ENDBRANCH  19  20
ENDBRANCH  18  19
ENDBRANCH  14  15
ENDBRANCH  13  14
TORSDOF 8
ENDMDL
MODEL 3
REMARK VINA RESULT:     -11.0      1.584      3.553
REMARK  Name = 
REMARK  8 active torsions:
REMARK  status: ('A' for Active; 'I' for Inactive)
REMARK    1  A    between atoms: S_2  and  N_4
REMARK    2  A    between atoms: S_2  and  C_28
REMARK    3  A    between atoms: N_4  and  C_5
REMARK    4  A    between atoms: C_5  and  C_6
REMARK    5  A    between atoms: C_13  and  C_14
REMARK    6  A    between atoms: C_14  and  N_15
REMARK    7  A    between atoms: C_18  and  C_19
REMARK    8  A    between atoms: C_19  and  C_20
REMARK                            x       y       z     vdW  Elec       q    Type
REMARK                         _______ _______ _______ _____ _____    ______ ____
ROOT
ATOM      6  C   UNL     1      -1.566   2.921  25.206  0.00  0.00    +0.077 C 
ATOM      7  C   UNL     1      -0.854   2.869  24.896  0.00  0.00    +0.018 C 
ATOM      8  C   UNL     1      -0.437   2.184  24.784  0.00  0.00    +0.005 C 
ATOM      9  C   UNL     1       0.364   2.338  24.412  0.00  0.00    +0.017 C 
ATOM     10  C   UNL     1      -0.221   2.500  24.654  0.00  0.00    +0.072 C 
ATOM     11  N   UNL     1      -1.135   2.227  25.088  0.00  0.00    -0.272 NA
ATOM     12  C   UNL     1      -1.325   1.352  25.266  0.00  0.00    +0.073 C 
ATOM     13  C   UNL     1      -0.627   1.345  24.957  0.00  0.00    +0.032 C 
ENDROOT
BRANCH   6   5
ATOM      5  C   UNL     1      -2.231   3.339  25.456  0.00  0.00    +0.131 C 
BRANCH   5   4
ATOM      4  N   UNL     1      -2.793   3.589  24.905  0.00  0.00    -0.076 NA
BRANCH   4   2
ATOM      1  O   UNL     1      -3.445   3.742  25.859  0.00  0.00    -0.152 OA
ATOM      2  S   UNL     1      -3.596   3.526  25.078  0.00  0.00    +0.077 S 
ATOM      3  O   UNL     1      -3.748   3.309  24.296  0.00  0.00    -0.152 OA
BRANCH   2  28
ATOM     28  C   UNL     1      -4.401   3.462  25.251  0.00  0.00    +0.124 A 
ATOM     29  C   UNL     1      -4.841   4.139  25.420  0.00  0.00    +0.020 A 
ATOM     30  C   UNL     1      -5.646   4.075  25.593  0.00  0.00    +0.001 A 
ATOM     31  C   UNL     1      -6.009   3.335  25.596  0.00  0.00    +0.000 A 
ATOM     32  C   UNL     1      -5.568   2.658  25.426  0.00  0.00    +0.001 A 
ATOM     33  C   UNL     1      -4.764   2.722  25.254  0.00  0.00    +0.020 A 
ENDBRANCH   2  28
ENDBRANCH   4   2
ENDBRANCH   5   4
ENDBRANCH   6   5
BRANCH  13  14
ATOM     14  C   UNL     1      -0.151   0.686  24.816  0.00  0.00    +0.073 C 
BRANCH  14  15
ATOM     15  N   UNL     1      -0.484  -0.069  24.807  0.00  0.00    -0.273 NA
ATOM     16  C   UNL     1      -0.638  -0.443  24.089  0.00  0.00    +0.072 C 
ATOM     17  C   UNL     1      -0.972  -1.199  24.080  0.00  0.00    +0.018 C 
ATOM     18  C   UNL     1      -1.150  -1.578  24.790  0.00  0.00    +0.007 C 
ATOM     26  C   UNL     1      -0.996  -1.204  25.509  0.00  0.00    +0.018 C 
ATOM     27  C   UNL     1      -0.663  -0.448  25.517  0.00  0.00    +0.072 C 
BRANCH  18  19
ATOM     19  C   UNL     1      -1.483  -2.332  24.782  0.00  0.00    +0.026 C 
BRANCH  19  20
ATOM     20  C   UNL     1      -2.300  -2.422  24.699  0.00  0.00    -0.022 A 
ATOM     21  C   UNL     1      -2.615  -2.683  23.983  0.00  0.00    -0.004 A 
ATOM     22  C   UNL     1      -3.431  -2.773  23.900  0.00  0.00    -0.000 A 
ATOM     23  C   UNL     1      -3.931  -2.602  24.533  0.00  0.00    -0.000 A 
ATOM     24  C   UNL     1      -3.616  -2.341  25.249  0.00  0.00    -0.000 A 
ATOM     25  C   UNL     1      -2.799  -2.251  25.332  0.00  0.00    -0.004 A 
ENDBRANCH  19  20
ENDBRANCH  18  19
ENDBRANCH  14  15
ENDBRANCH  13  14
TORSDOF 8
ENDMDL
MODEL 4
REMARK VINA RESULT:     -10.9      2.214      5.738
REMARK  Name = 
REMARK  8 active torsions:
REMARK  status: ('A' for Active; 'I' for Inactive)
REMARK    1  A    between atoms: S_2  and  N_4
REMARK    2  A    between atoms: S_2  and  C_28
REMARK    3  A    between atoms: N_4  and  C_5
REMARK    4  A    between atoms: C_5  and  C_6
REMARK    5  A    between atoms: C_13  and  C_14
REMARK    6  A    between atoms: C_14  and  N_15
REMARK    7  A    between atoms: C_18  and  C_19
REMARK    8  A    between atoms: C_19  and  C_20
REMARK                            x       y       z     vdW  Elec       q    Type
REMARK                         _______ _______ _______ _____ _____    ______ ____
ROOT
ATOM      6  C   UNL     1      -0.430   0.941  24.886  0.00  0.00    +0.077 C 
ATOM      7  C   UNL     1      -0.110   1.575  25.205  0.00  0.00    +0.018 C 
ATOM      8  C   UNL     1      -0.466   2.299  25.273  0.00  0.00    +0.005 C 
ATOM      9  C   UNL     1       0.069   2.898  25.671  0.00  0.00    +0.017 C 
ATOM     10  C   UNL     1      -0.094   2.313  25.431  0.00  0.00    +0.072 C 
ATOM     11  N   UNL     1      -0.786   1.682  24.959  0.00  0.00    -0.272 NA
ATOM     12  C   UNL     1      -1.608   1.991  24.712  0.00  0.00    +0.073 C 
ATOM     13  C   UNL     1      -1.259   2.589  25.033  0.00  0.00    +0.032 C 
ENDROOT
BRANCH   6   5
ATOM      5  C   UNL     1      -0.421   0.149  24.655  0.00  0.00    +0.131 C 
BRANCH   5   4
ATOM      4  N   UNL     1      -0.576  -0.444  25.208  0.00  0.00    -0.076 NA
BRANCH   4   2
ATOM      1  O   UNL     1      -0.822  -1.089  24.268  0.00  0.00    -0.152 OA
ATOM      2  S   UNL     1      -1.123  -1.036  25.034  0.00  0.00    +0.077 S 
ATOM      3  O   UNL     1      -1.424  -0.983  25.801  0.00  0.00    -0.152 OA
BRANCH   2  28
ATOM     28  C   UNL     1      -1.670  -1.629  24.861  0.00  0.00    +0.124 A 
ATOM     29  C   UNL     1      -1.422  -2.326  24.496  0.00  0.00    +0.020 A 
ATOM     30  C   UNL     1      -1.969  -2.919  24.323  0.00  0.00    +0.001 A 
ATOM     31  C   UNL     1      -2.765  -2.814  24.515  0.00  0.00    +0.000 A 
ATOM     32  C   UNL     1      -3.013  -2.117  24.881  0.00  0.00    +0.001 A 
ATOM     33  C   UNL     1      -2.465  -1.525  25.053  0.00  0.00    +0.020 A 
ENDBRANCH   2  28
ENDBRANCH   4   2
ENDBRANCH   5   4
ENDBRANCH   6   5
BRANCH  13  14
ATOM     14  C   UNL     1      -1.563   3.350  25.133  0.00  0.00    +0.073 C 
BRANCH  14  15
ATOM     15  N   UNL     1      -2.379   3.465  25.176  0.00  0.00    -0.273 NA
ATOM     16  C   UNL     1      -2.830   3.474  24.486  0.00  0.00    +0.072 C 
ATOM     17  C   UNL     1      -3.647   3.590  24.529  0.00  0.00    +0.018 C 
ATOM     18  C   UNL     1      -4.010   3.696  25.262  0.00  0.00    +0.007 C 
ATOM     26  C   UNL     1      -3.558   3.687  25.953  0.00  0.00    +0.018 C 
ATOM     27  C   UNL     1      -2.741   3.571  25.909  0.00  0.00    +0.072 C 
BRANCH  18  19
ATOM     19  C   UNL     1      -4.825   3.811  25.306  0.00  0.00    +0.026 C 
BRANCH  19  20
ATOM     20  C   UNL     1      -5.329   3.164  25.401  0.00  0.00    -0.022 A 
ATOM     21  C   UNL     1      -5.518   2.690  24.753  0.00  0.00    -0.004 A 
ATOM     22  C   UNL     1      -6.022   2.043  24.848  0.00  0.00    -0.000 A 
ATOM     23  C   UNL     1      -6.336   1.871  25.591  0.00  0.00    -0.000 A 
ATOM     24  C   UNL     1      -6.146   2.344  26.239  0.00  0.00    -0.000 A 
ATOM     25  C   UNL     1      -5.642   2.992  26.144  0.00  0.00    -0.004 A 
ENDBRANCH  19  20
ENDBRANCH  18  19
ENDBRANCH  14  15
ENDBRANCH  13  14
TORSDOF 8
ENDMDL
MODEL 5
REMARK VINA RESULT:     -10.6      3.646      5.045
REMARK  Name = 
REMARK  8 active torsions:
REMARK  status: ('A' for Active; 'I' for Inactive)
REMARK    1  A    between atoms: S_2  and  N_4
REMARK    2  A    between atoms: S_2  and  C_28
REMARK    3  A    between atoms: N_4  and  C_5
REMARK    4  A    between atoms: C_5  and  C_6
REMARK    5  A    between atoms: C_13  and  C_14
REMARK    6  A    between atoms: C_14  and  N_15
REMARK    7  A    between atoms: C_18  and  C_19
REMARK    8  A    between atoms: C_19  and  C_20
REMARK                            x       y       z     vdW  Elec       q    Type
REMARK                         _______ _______ _______ _____ _____    ______ ____
ROOT
ATOM      6  C   UNL     1       0.667   1.262  23.841  0.00  0.00    +0.077 C 
ATOM      7  C   UNL     1       0.364   1.950  24.041  0.00  0.00    +0.018 C 
ATOM      8  C   UNL     1      -0.421   2.097  24.177  0.00  0.00    +0.005 C 
ATOM      9  C   UNL     1      -0.566   2.955  24.396  0.00  0.00    +0.017 C 
ATOM     10  C   UNL     1      -0.206   2.436  24.228  0.00  0.00    +0.072 C 
ATOM     11  N   UNL     1      -0.131   1.420  23.981  0.00  0.00    -0.272 NA
ATOM     12  C   UNL     1      -0.873   0.889  23.953  0.00  0.00    +0.073 C 
ATOM     13  C   UNL     1      -1.130   1.581  24.148  0.00  0.00    +0.032 C 
ENDROOT
BRANCH   6   5
ATOM      5  C   UNL     1       1.294   0.764  23.643  0.00  0.00    +0.131 C 
BRANCH   5   4
ATOM      4  N   UNL     1       1.819   0.979  23.044  0.00  0.00    -0.076 NA
BRANCH   4   2
ATOM      1  O   UNL     1       2.344  -0.011  22.721  0.00  0.00    -0.152 OA
ATOM      2  S   UNL     1       2.595   0.700  23.055  0.00  0.00    +0.077 S 
ATOM      3  O   UNL     1       2.846   1.412  23.390  0.00  0.00    -0.152 OA
BRANCH   2  28
ATOM     28  C   UNL     1       3.371   0.421  23.067  0.00  0.00    +0.124 A 
ATOM     29  C   UNL     1       3.530  -0.348  23.318  0.00  0.00    +0.020 A 
ATOM     30  C   UNL     1       4.307  -0.626  23.330  0.00  0.00    +0.001 A 
ATOM     31  C   UNL     1       4.924  -0.135  23.090  0.00  0.00    +0.000 A 
ATOM     32  C   UNL     1       4.765   0.635  22.839  0.00  0.00    +0.001 A 
ATOM     33  C   UNL     1       3.989   0.913  22.827  0.00  0.00    +0.020 A 
ENDBRANCH   2  28
ENDBRANCH   4   2
ENDBRANCH   5   4
ENDBRANCH   6   5
BRANCH  13  14
ATOM     14  C   UNL     1      -1.912   1.798  24.300  0.00  0.00    +0.073 C 
BRANCH  14  15
ATOM     15  N   UNL     1      -2.490   1.217  24.393  0.00  0.00    -0.273 NA
ATOM     16  C   UNL     1      -2.942   0.977  23.746  0.00  0.00    +0.072 C 
ATOM     17  C   UNL     1      -3.520   0.395  23.840  0.00  0.00    +0.018 C 
ATOM     18  C   UNL     1      -3.645   0.055  24.580  0.00  0.00    +0.007 C 
ATOM     26  C   UNL     1      -3.193   0.294  25.228  0.00  0.00    +0.018 C 
ATOM     27  C   UNL     1      -2.615   0.876  25.133  0.00  0.00    +0.072 C 
BRANCH  18  19
ATOM     19  C   UNL     1      -4.223  -0.527  24.674  0.00  0.00    +0.026 C 
BRANCH  19  20
ATOM     20  C   UNL     1      -4.031  -1.322  24.563  0.00  0.00    -0.022 A 
ATOM     21  C   UNL     1      -4.241  -1.702  23.861  0.00  0.00    -0.004 A 
ATOM     22  C   UNL     1      -4.048  -2.497  23.750  0.00  0.00    -0.000 A 
ATOM     23  C   UNL     1      -3.646  -2.910  24.340  0.00  0.00    -0.000 A 
ATOM     24  C   UNL     1      -3.437  -2.530  25.041  0.00  0.00    -0.000 A 
ATOM     25  C   UNL     1      -3.629  -1.735  25.152  0.00  0.00    -0.004 A 
ENDBRANCH  19  20
ENDBRANCH  18  19
ENDBRANCH  14  15
ENDBRANCH  13  14
TORSDOF 8
ENDMDL
MODEL 6
REMARK VINA RESULT:     -10.4      2.606      6.272
REMARK  Name = 
REMARK  8 active torsions:
REMARK  status: ('A' for Active; 'I' for Inactive)
REMARK    1  A    between atoms: S_2  and  N_4
REMARK    2  A    between atoms: S_2  and  C_28
REMARK    3  A    between atoms: N_4  and  C_5
REMARK    4  A    between atoms: C_5  and  C_6
REMARK    5  A    between atoms: C_13  and  C_14
REMARK    6  A    between atoms: C_14  and  N_15
REMARK    7  A    between atoms: C_18  and  C_19
REMARK    8  A    between atoms: C_19  and  C_20
REMARK                            x       y       z     vdW  Elec       q    Type
REMARK                         _______ _______ _______ _____ _____    ______ ____
ROOT
ATOM      6  C   UNL     1      -0.321  -0.351  23.866  0.00  0.00    +0.077 C 
ATOM      7  C   UNL     1       0.365  -0.005  23.744  0.00  0.00    +0.018 C 
ATOM      8  C   UNL     1       0.542   0.766  23.916  0.00  0.00    +0.005 C 
ATOM      9  C   UNL     1       1.389   0.970  23.701  0.00  0.00    +0.017 C 
ATOM     10  C   UNL     1       0.866   0.583  23.756  0.00  0.00    +0.072 C 
ATOM     11  N   UNL     1      -0.133   0.434  24.038  0.00  0.00    -0.272 NA
ATOM     12  C   UNL     1      -0.623   1.114  24.401  0.00  0.00    +0.073 C 
ATOM     13  C   UNL     1       0.066   1.415  24.265  0.00  0.00    +0.032 C 
ENDROOT
BRANCH   6   5
ATOM      5  C   UNL     1      -0.835  -0.995  23.841  0.00  0.00    +0.131 C 
BRANCH   5   4
ATOM      4  N   UNL     1      -1.183  -1.272  24.537  0.00  0.00    -0.076 NA
BRANCH   4   2
ATOM      1  O   UNL     1      -1.604  -2.157  23.905  0.00  0.00    -0.152 OA
ATOM      2  S   UNL     1      -1.901  -1.676  24.506  0.00  0.00    +0.077 S 
ATOM      3  O   UNL     1      -2.198  -1.195  25.108  0.00  0.00    -0.152 OA
BRANCH   2  28
ATOM     28  C   UNL     1      -2.620  -2.081  24.475  0.00  0.00    +0.124 A 
ATOM     29  C   UNL     1      -2.665  -2.863  24.733  0.00  0.00    +0.020 A 
ATOM     30  C   UNL     1      -3.384  -3.267  24.702  0.00  0.00    +0.001 A 
ATOM     31  C   UNL     1      -4.057  -2.888  24.414  0.00  0.00    +0.000 A 
ATOM     32  C   UNL     1      -4.012  -2.105  24.156  0.00  0.00    +0.001 A 
ATOM     33  C   UNL     1      -3.294  -1.702  24.187  0.00  0.00    +0.020 A 
ENDBRANCH   2  28
ENDBRANCH   4   2
ENDBRANCH   5   4
ENDBRANCH   6   5
BRANCH  13  14
ATOM     14  C   UNL     1       0.310   2.189  24.416  0.00  0.00    +0.073 C 
BRANCH  14  15
ATOM     15  N   UNL     1      -0.237   2.752  24.671  0.00  0.00    -0.273 NA
ATOM     16  C   UNL     1      -0.597   3.253  24.125  0.00  0.00    +0.072 C 
ATOM     17  C   UNL     1      -1.144   3.816  24.380  0.00  0.00    +0.018 C 
ATOM     18  C   UNL     1      -1.331   3.876  25.181  0.00  0.00    +0.007 C 
ATOM     26  C   UNL     1      -0.971   3.374  25.728  0.00  0.00    +0.018 C 
ATOM     27  C   UNL     1      -0.423   2.811  25.472  0.00  0.00    +0.072 C 
BRANCH  18  19
ATOM     19  C   UNL     1      -1.877   4.438  25.436  0.00  0.00    +0.026 C 
BRANCH  19  20
ATOM     20  C   UNL     1      -2.672   4.232  25.523  0.00  0.00    -0.022 A 
ATOM     21  C   UNL     1      -2.983   4.094  26.275  0.00  0.00    -0.004 A 
ATOM     22  C   UNL     1      -3.777   3.888  26.361  0.00  0.00    -0.000 A 
ATOM     23  C   UNL     1      -4.260   3.819  25.695  0.00  0.00    -0.000 A 
ATOM     24  C   UNL     1      -3.949   3.956  24.944  0.00  0.00    -0.000 A 
ATOM     25  C   UNL     1      -3.154   4.163  24.858  0.00  0.00    -0.004 A 
ENDBRANCH  19  20
ENDBRANCH  18  19
ENDBRANCH  14  15
ENDBRANCH  13  14
TORSDOF 8
ENDMDL
