MODEL 1
REMARK VINA RESULT:     -10.0      0.000      0.000
REMARK  Name = 
REMARK  11 active torsions:
REMARK  status: ('A' for Active; 'I' for Inactive)
REMARK    1  A    between atoms: O_2  and  C_3
REMARK    2  A    between atoms: C_3  and  C_4
REMARK    3  A    between atoms: C_4  and  N_5
REMARK    4  A    between atoms: C_6  and  C_8
REMARK    5  A    between atoms: C_8  and  C_9
REMARK    6  A    between atoms: C_11  and  C_12
REMARK    7  A    between atoms: C_15  and  C_16
REMARK    8  A    between atoms: C_16  and  N_17
REMARK    9  A    between atoms: N_17  and  S_18
REMARK   10  A    between atoms: S_18  and  C_21
REMARK   11  A    between atoms: C_25  and  C_27
REMARK                            x       y       z     vdW  Elec       q    Type
REMARK                         _______ _______ _______ _____ _____    ______ ____
ROOT
ATOM      9  C   UNL     1      -3.994   2.992  24.841  0.00  0.00    +0.027 C 
ATOM     10  C   UNL     1      -3.384   2.781  24.325  0.00  0.00    +0.005 C 
ATOM     11  C   UNL     1      -3.317   2.004  24.061  0.00  0.00    +0.006 C 
ATOM     15  C   UNL     1      -3.860   1.434  24.312  0.00  0.00    +0.041 C 
ATOM     29  C   UNL     1      -4.468   1.643  24.827  0.00  0.00    -0.033 C 
ATOM     30  C   UNL     1      -4.536   2.422  25.092  0.00  0.00    -0.048 C 
ATOM     31  C   UNL     1      -5.145   2.631  25.607  0.00  0.00    +0.026 C 
ENDROOT
BRANCH  11  12
ATOM     12  C   UNL     1      -2.708   1.794  23.545  0.00  0.00    +0.000 C 
ATOM     13  C   UNL     1      -1.975   1.564  23.844  0.00  0.00    +0.000 C 
ATOM     14  C   UNL     1      -2.833   1.814  22.730  0.00  0.00    +0.000 C 
ENDBRANCH  11  12
BRANCH   9   8
ATOM      8  C   UNL     1      -4.061   3.769  25.105  0.00  0.00    +0.091 C 
BRANCH   8   6
ATOM      5  N   UNL     1      -2.904   4.608  25.100  0.00  0.00    -0.203 NA
ATOM      6  C   UNL     1      -3.434   4.125  25.507  0.00  0.00    +0.242 C 
ATOM      7  O   UNL     1      -3.338   3.998  26.317  0.00  0.00    -0.273 OA
BRANCH   5   4
ATOM      4  C   UNL     1      -2.277   4.964  25.502  0.00  0.00    +0.147 C 
BRANCH   4   3
ATOM      3  C   UNL     1      -1.688   5.358  25.081  0.00  0.00    +0.166 C 
BRANCH   3   2
ATOM      1  C   UNL     1      -0.394   5.046  24.562  0.00  0.00    +0.174 C 
ATOM      2  O   UNL     1      -0.895   5.168  25.205  0.00  0.00    -0.349 OA
ENDBRANCH   3   2
ENDBRANCH   4   3
ENDBRANCH   5   4
ENDBRANCH   8   6
ENDBRANCH   9   8
BRANCH  15  16
ATOM     16  C   UNL     1      -3.792   0.655  24.047  0.00  0.00    +0.120 C 
BRANCH  16  17
ATOM     17  N   UNL     1      -4.265   0.065  24.376  0.00  0.00    -0.077 NA
BRANCH  17  18
ATOM     18  S   UNL     1      -4.021  -0.722  24.350  0.00  0.00    +0.077 S 
ATOM     19  O   UNL     1      -4.170  -0.741  23.538  0.00  0.00    -0.152 OA
ATOM     20  O   UNL     1      -3.872  -0.704  25.161  0.00  0.00    -0.152 OA
BRANCH  18  21
ATOM     21  C   UNL     1      -3.777  -1.510  24.323  0.00  0.00    +0.124 A 
ATOM     22  C   UNL     1      -4.318  -2.102  24.128  0.00  0.00    +0.020 A 
ATOM     23  C   UNL     1      -4.073  -2.890  24.102  0.00  0.00    +0.002 A 
ATOM     24  C   UNL     1      -3.289  -3.085  24.269  0.00  0.00    +0.010 A 
ATOM     25  C   UNL     1      -2.750  -2.492  24.464  0.00  0.00    +0.070 A 
ATOM     26  C   UNL     1      -2.993  -1.705  24.490  0.00  0.00    +0.030 A 
BRANCH  25  27
ATOM     27  C   UNL     1      -1.965  -2.687  24.631  0.00  0.00    +0.100 C 
ATOM     28  N   UNL     1      -1.181  -2.882  24.799  0.00  0.00    -0.191 NA
ENDBRANCH  25  27
ENDBRANCH  18  21
ENDBRANCH  17  18
ENDBRANCH  16  17
ENDBRANCH  15  16
TORSDOF 11
ENDMDL
MODEL 2
REMARK VINA RESULT:      -9.4      2.833      4.967
REMARK  Name = 
REMARK  11 active torsions:
REMARK  status: ('A' for Active; 'I' for Inactive)
REMARK    1  A    between atoms: O_2  and  C_3
REMARK    2  A    between atoms: C_3  and  C_4
REMARK    3  A    between atoms: C_4  and  N_5
REMARK    4  A    between atoms: C_6  and  C_8
REMARK    5  A    between atoms: C_8  and  C_9
REMARK    6  A    between atoms: C_11  and  C_12
REMARK    7  A    between atoms: C_15  and  C_16
REMARK    8  A    between atoms: C_16  and  N_17
REMARK    9  A    between atoms: N_17  and  S_18
REMARK   10  A    between atoms: S_18  and  C_21
REMARK   11  A    between atoms: C_25  and  C_27
REMARK                            x       y       z     vdW  Elec       q    Type
REMARK                         _______ _______ _______ _____ _____    ______ ____
ROOT
ATOM      9  C   UNL     1      -0.273  -0.073  24.014  0.00  0.00    +0.027 C 
ATOM     10  C   UNL     1      -0.295   0.752  24.030  0.00  0.00    +0.005 C 
ATOM     11  C   UNL     1      -1.000   1.143  24.200  0.00  0.00    +0.006 C 
ATOM     15  C   UNL     1      -1.686   0.709  24.354  0.00  0.00    +0.041 C 
ATOM     29  C   UNL     1      -1.665  -0.115  24.338  0.00  0.00    -0.033 C 
ATOM     30  C   UNL     1      -0.959  -0.507  24.168  0.00  0.00    -0.048 C 
ATOM     31  C   UNL     1      -0.937  -1.331  24.152  0.00  0.00    +0.026 C 
ENDROOT
BRANCH  11  12
ATOM     12  C   UNL     1      -1.022   1.968  24.216  0.00  0.00    +0.000 C 
ATOM     13  C   UNL     1      -0.837   2.372  24.911  0.00  0.00    +0.000 C 
ATOM     14  C   UNL     1      -1.229   2.388  23.537  0.00  0.00    +0.000 C 
ENDBRANCH  11  12
BRANCH   9   8
ATOM      8  C   UNL     1       0.433  -0.464  23.844  0.00  0.00    +0.091 C 
BRANCH   8   6
ATOM      5  N   UNL     1       1.680  -0.036  23.293  0.00  0.00    -0.203 NA
ATOM      6  C   UNL     1       0.886  -0.235  23.193  0.00  0.00    +0.242 C 
ATOM      7  O   UNL     1       0.544  -0.205  22.442  0.00  0.00    -0.273 OA
BRANCH   5   4
ATOM      4  C   UNL     1       2.133   0.193  22.643  0.00  0.00    +0.147 C 
BRANCH   4   3
ATOM      3  C   UNL     1       2.955   0.143  22.674  0.00  0.00    +0.166 C 
BRANCH   3   2
ATOM      1  C   UNL     1       4.235   0.778  22.658  0.00  0.00    +0.174 C 
ATOM      2  O   UNL     1       3.412   0.828  22.629  0.00  0.00    -0.349 OA
ENDBRANCH   3   2
ENDBRANCH   4   3
ENDBRANCH   5   4
ENDBRANCH   8   6
ENDBRANCH   9   8
BRANCH  15  16
ATOM     16  C   UNL     1      -2.392   1.101  24.524  0.00  0.00    +0.120 C 
BRANCH  16  17
ATOM     17  N   UNL     1      -3.103   0.683  24.534  0.00  0.00    -0.077 NA
BRANCH  17  18
ATOM     18  S   UNL     1      -3.806   1.070  24.725  0.00  0.00    +0.077 S 
ATOM     19  O   UNL     1      -3.664   0.934  25.526  0.00  0.00    -0.152 OA
ATOM     20  O   UNL     1      -3.949   1.206  23.924  0.00  0.00    -0.152 OA
BRANCH  18  21
ATOM     21  C   UNL     1      -4.509   1.457  24.916  0.00  0.00    +0.124 A 
ATOM     22  C   UNL     1      -5.217   1.034  24.944  0.00  0.00    +0.020 A 
ATOM     23  C   UNL     1      -5.921   1.422  25.136  0.00  0.00    +0.002 A 
ATOM     24  C   UNL     1      -5.916   2.230  25.298  0.00  0.00    +0.010 A 
ATOM     25  C   UNL     1      -5.207   2.652  25.270  0.00  0.00    +0.070 A 
ATOM     26  C   UNL     1      -4.504   2.266  25.079  0.00  0.00    +0.030 A 
BRANCH  25  27
ATOM     27  C   UNL     1      -5.202   3.462  25.432  0.00  0.00    +0.100 C 
ATOM     28  N   UNL     1      -5.197   4.271  25.595  0.00  0.00    -0.191 NA
ENDBRANCH  25  27
ENDBRANCH  18  21
ENDBRANCH  17  18
ENDBRANCH  16  17
ENDBRANCH  15  16
TORSDOF 11
ENDMDL
MODEL 3
REMARK VINA RESULT:      -8.4      1.442      5.522
REMARK  Name = 
REMARK  11 active torsions:
REMARK  status: ('A' for Active; 'I' for Inactive)
REMARK    1  A    between atoms: O_2  and  C_3
REMARK    2  A    between atoms: C_3  and  C_4
REMARK    3  A    between atoms: C_4  and  N_5
REMARK    4  A    between atoms: C_6  and  C_8
REMARK    5  A    between atoms: C_8  and  C_9
REMARK    6  A    between atoms: C_11  and  C_12
REMARK    7  A    between atoms: C_15  and  C_16
REMARK    8  A    between atoms: C_16  and  N_17
REMARK    9  A    between atoms: N_17  and  S_18
REMARK   10  A    between atoms: S_18  and  C_21
REMARK   11  A    between atoms: C_25  and  C_27
REMARK                            x       y       z     vdW  Elec       q    Type
REMARK                         _______ _______ _______ _____ _____    ______ ____
ROOT
ATOM      9  C   UNL     1      -4.233  -0.061  24.363  0.00  0.00    +0.027 C 
ATOM     10  C   UNL     1      -3.642   0.149  23.827  0.00  0.00    +0.005 C 
ATOM     11  C   UNL     1      -3.308   0.902  23.855  0.00  0.00    +0.006 C 
ATOM     15  C   UNL     1      -3.567   1.447  24.420  0.00  0.00    +0.041 C 
ATOM     29  C   UNL     1      -4.157   1.238  24.955  0.00  0.00    -0.033 C 
ATOM     30  C   UNL     1      -4.491   0.483  24.927  0.00  0.00    -0.048 C 
ATOM     31  C   UNL     1      -5.082   0.274  25.462  0.00  0.00    +0.026 C 
ENDROOT
BRANCH  11  12
ATOM     12  C   UNL     1      -2.717   1.113  23.319  0.00  0.00    +0.000 C 
ATOM     13  C   UNL     1      -1.927   0.955  23.494  0.00  0.00    +0.000 C 
ATOM     14  C   UNL     1      -2.917   1.482  22.609  0.00  0.00    +0.000 C 
ENDBRANCH  11  12
BRANCH   9   8
ATOM      8  C   UNL     1      -4.567  -0.815  24.335  0.00  0.00    +0.091 C 
BRANCH   8   6
ATOM      5  N   UNL     1      -3.607  -1.838  24.609  0.00  0.00    -0.203 NA
ATOM      6  C   UNL     1      -4.115  -1.458  24.082  0.00  0.00    +0.242 C 
ATOM      7  O   UNL     1      -4.172  -1.720  23.301  0.00  0.00    -0.273 OA
BRANCH   5   4
ATOM      4  C   UNL     1      -3.155  -2.481  24.356  0.00  0.00    +0.147 C 
BRANCH   4   3
ATOM      3  C   UNL     1      -2.504  -2.727  24.798  0.00  0.00    +0.166 C 
BRANCH   3   2
ATOM      1  C   UNL     1      -1.101  -2.470  24.887  0.00  0.00    +0.174 C 
ATOM      2  O   UNL     1      -1.754  -2.735  24.456  0.00  0.00    -0.349 OA
ENDBRANCH   3   2
ENDBRANCH   4   3
ENDBRANCH   5   4
ENDBRANCH   8   6
ENDBRANCH   9   8
BRANCH  15  16
ATOM     16  C   UNL     1      -3.233   2.201  24.447  0.00  0.00    +0.120 C 
BRANCH  16  17
ATOM     17  N   UNL     1      -3.422   2.714  25.066  0.00  0.00    -0.077 NA
BRANCH  17  18
ATOM     18  S   UNL     1      -3.016   3.426  25.150  0.00  0.00    +0.077 S 
ATOM     19  O   UNL     1      -2.517   3.076  25.706  0.00  0.00    -0.152 OA
ATOM     20  O   UNL     1      -3.514   3.777  24.594  0.00  0.00    -0.152 OA
BRANCH  18  21
ATOM     21  C   UNL     1      -2.608   4.139  25.235  0.00  0.00    +0.124 A 
ATOM     22  C   UNL     1      -2.958   4.767  25.639  0.00  0.00    +0.020 A 
ATOM     23  C   UNL     1      -2.551   5.481  25.724  0.00  0.00    +0.002 A 
ATOM     24  C   UNL     1      -1.795   5.564  25.405  0.00  0.00    +0.010 A 
ATOM     25  C   UNL     1      -1.446   4.935  25.001  0.00  0.00    +0.070 A 
ATOM     26  C   UNL     1      -1.852   4.223  24.916  0.00  0.00    +0.030 A 
BRANCH  25  27
ATOM     27  C   UNL     1      -0.689   5.019  24.681  0.00  0.00    +0.100 C 
ATOM     28  N   UNL     1       0.067   5.103  24.362  0.00  0.00    -0.191 NA
ENDBRANCH  25  27
ENDBRANCH  18  21
ENDBRANCH  17  18
ENDBRANCH  16  17
ENDBRANCH  15  16
TORSDOF 11
ENDMDL
MODEL 4
REMARK VINA RESULT:      -8.1      3.072      4.293
REMARK  Name = 
REMARK  11 active torsions:
REMARK  status: ('A' for Active; 'I' for Inactive)
REMARK    1  A    between atoms: O_2  and  C_3
REMARK    2  A    between atoms: C_3  and  C_4
REMARK    3  A    between atoms: C_4  and  N_5
REMARK    4  A    between atoms: C_6  and  C_8
REMARK    5  A    between atoms: C_8  and  C_9
REMARK    6  A    between atoms: C_11  and  C_12
REMARK    7  A    between atoms: C_15  and  C_16
REMARK    8  A    between atoms: C_16  and  N_17
REMARK    9  A    between atoms: N_17  and  S_18
REMARK   10  A    between atoms: S_18  and  C_21
REMARK   11  A    between atoms: C_25  and  C_27
REMARK                            x       y       z     vdW  Elec       q    Type
REMARK                         _______ _______ _______ _____ _____    ______ ____
ROOT
ATOM      9  C   UNL     1      -2.246   3.066  25.139  0.00  0.00    +0.027 C 
ATOM     10  C   UNL     1      -2.547   2.628  24.508  0.00  0.00    +0.005 C 
ATOM     11  C   UNL     1      -2.061   2.099  24.104  0.00  0.00    +0.006 C 
ATOM     15  C   UNL     1      -1.272   2.008  24.330  0.00  0.00    +0.041 C 
ATOM     29  C   UNL     1      -0.971   2.445  24.961  0.00  0.00    -0.033 C 
ATOM     30  C   UNL     1      -1.457   2.975  25.366  0.00  0.00    -0.048 C 
ATOM     31  C   UNL     1      -1.157   3.412  25.997  0.00  0.00    +0.026 C 
ENDROOT
BRANCH  11  12
ATOM     12  C   UNL     1      -2.362   1.661  23.472  0.00  0.00    +0.000 C 
ATOM     13  C   UNL     1      -2.711   0.927  23.608  0.00  0.00    +0.000 C 
ATOM     14  C   UNL     1      -2.312   1.958  22.704  0.00  0.00    +0.000 C 
ENDBRANCH  11  12
BRANCH   9   8
ATOM      8  C   UNL     1      -2.733   3.595  25.544  0.00  0.00    +0.091 C 
BRANCH   8   6
ATOM      5  N   UNL     1      -4.120   3.309  25.731  0.00  0.00    -0.203 NA
ATOM      6  C   UNL     1      -3.520   3.691  25.315  0.00  0.00    +0.242 C 
ATOM      7  O   UNL     1      -3.706   4.169  24.668  0.00  0.00    -0.273 OA
BRANCH   5   4
ATOM      4  C   UNL     1      -4.907   3.405  25.503  0.00  0.00    +0.147 C 
BRANCH   4   3
ATOM      3  C   UNL     1      -5.485   2.890  25.786  0.00  0.00    +0.166 C 
BRANCH   3   2
ATOM      1  C   UNL     1      -6.318   1.822  25.330  0.00  0.00    +0.174 C 
ATOM      2  O   UNL     1      -6.071   2.608  25.279  0.00  0.00    -0.349 OA
ENDBRANCH   3   2
ENDBRANCH   4   3
ENDBRANCH   5   4
ENDBRANCH   8   6
ENDBRANCH   9   8
BRANCH  15  16
ATOM     16  C   UNL     1      -0.786   1.478  23.925  0.00  0.00    +0.120 C 
BRANCH  16  17
ATOM     17  N   UNL     1      -0.049   1.275  24.236  0.00  0.00    -0.077 NA
BRANCH  17  18
ATOM     18  S   UNL     1       0.511   0.904  23.759  0.00  0.00    +0.077 S 
ATOM     19  O   UNL     1       0.824   1.639  23.552  0.00  0.00    -0.152 OA
ATOM     20  O   UNL     1       0.200   0.168  23.965  0.00  0.00    -0.152 OA
BRANCH  18  21
ATOM     21  C   UNL     1       1.073   0.532  23.281  0.00  0.00    +0.124 A 
ATOM     22  C   UNL     1       0.846  -0.088  22.786  0.00  0.00    +0.020 A 
ATOM     23  C   UNL     1       1.408  -0.460  22.308  0.00  0.00    +0.002 A 
ATOM     24  C   UNL     1       2.194  -0.211  22.326  0.00  0.00    +0.010 A 
ATOM     25  C   UNL     1       2.420   0.409  22.822  0.00  0.00    +0.070 A 
ATOM     26  C   UNL     1       1.859   0.780  23.299  0.00  0.00    +0.030 A 
BRANCH  25  27
ATOM     27  C   UNL     1       3.207   0.657  22.840  0.00  0.00    +0.100 C 
ATOM     28  N   UNL     1       3.994   0.905  22.858  0.00  0.00    -0.191 NA
ENDBRANCH  25  27
ENDBRANCH  18  21
ENDBRANCH  17  18
ENDBRANCH  16  17
ENDBRANCH  15  16
TORSDOF 11
ENDMDL
MODEL 5
REMARK VINA RESULT:      -8.1      1.602      2.642
REMARK  Name = 
REMARK  11 active torsions:
REMARK  status: ('A' for Active; 'I' for Inactive)
REMARK    1  A    between atoms: O_2  and  C_3
REMARK    2  A    between atoms: C_3  and  C_4
REMARK    3  A    between atoms: C_4  and  N_5
REMARK    4  A    between atoms: C_6  and  C_8
REMARK    5  A    between atoms: C_8  and  C_9
REMARK    6  A    between atoms: C_11  and  C_12
REMARK    7  A    between atoms: C_15  and  C_16
REMARK    8  A    between atoms: C_16  and  N_17
REMARK    9  A    between atoms: N_17  and  S_18
REMARK   10  A    between atoms: S_18  and  C_21
REMARK   11  A    between atoms: C_25  and  C_27
REMARK                            x       y       z     vdW  Elec       q    Type
REMARK                         _______ _______ _______ _____ _____    ______ ____
ROOT
ATOM      9  C   UNL     1      -1.066   2.952  25.212  0.00  0.00    +0.027 C 
ATOM     10  C   UNL     1      -1.460   2.785  24.506  0.00  0.00    +0.005 C 
ATOM     11  C   UNL     1      -1.530   2.006  24.247  0.00  0.00    +0.006 C 
ATOM     15  C   UNL     1      -1.207   1.391  24.695  0.00  0.00    +0.041 C 
ATOM     29  C   UNL     1      -0.813   1.558  25.400  0.00  0.00    -0.033 C 
ATOM     30  C   UNL     1      -0.743   2.338  25.660  0.00  0.00    -0.048 C 
ATOM     31  C   UNL     1      -0.350   2.504  26.365  0.00  0.00    +0.026 C 
ENDROOT
BRANCH  11  12
ATOM     12  C   UNL     1      -1.923   1.839  23.541  0.00  0.00    +0.000 C 
ATOM     13  C   UNL     1      -1.497   1.751  22.842  0.00  0.00    +0.000 C 
ATOM     14  C   UNL     1      -2.745   1.759  23.536  0.00  0.00    +0.000 C 
ENDBRANCH  11  12
BRANCH   9   8
ATOM      8  C   UNL     1      -0.996   3.732  25.471  0.00  0.00    +0.091 C 
BRANCH   8   6
ATOM      5  N   UNL     1      -2.308   4.072  25.924  0.00  0.00    -0.203 NA
ATOM      6  C   UNL     1      -1.650   4.234  25.453  0.00  0.00    +0.242 C 
ATOM      7  O   UNL     1      -1.646   4.899  24.964  0.00  0.00    -0.273 OA
BRANCH   5   4
ATOM      4  C   UNL     1      -2.962   4.575  25.906  0.00  0.00    +0.147 C 
BRANCH   4   3
ATOM      3  C   UNL     1      -3.694   4.309  26.177  0.00  0.00    +0.166 C 
BRANCH   3   2
ATOM      1  C   UNL     1      -4.959   3.733  25.844  0.00  0.00    +0.174 C 
ATOM      2  O   UNL     1      -4.322   4.223  25.651  0.00  0.00    -0.349 OA
ENDBRANCH   3   2
ENDBRANCH   4   3
ENDBRANCH   5   4
ENDBRANCH   8   6
ENDBRANCH   9   8
BRANCH  15  16
ATOM     16  C   UNL     1      -1.277   0.611  24.435  0.00  0.00    +0.120 C 
BRANCH  16  17
ATOM     17  N   UNL     1      -1.091  -0.011  24.944  0.00  0.00    -0.077 NA
BRANCH  17  18
ATOM     18  S   UNL     1      -1.417  -0.758  24.818  0.00  0.00    +0.077 S 
ATOM     19  O   UNL     1      -0.882  -0.888  24.203  0.00  0.00    -0.152 OA
ATOM     20  O   UNL     1      -1.952  -0.629  25.432  0.00  0.00    -0.152 OA
BRANCH  18  21
ATOM     21  C   UNL     1      -1.743  -1.506  24.691  0.00  0.00    +0.124 A 
ATOM     22  C   UNL     1      -1.273  -2.179  24.774  0.00  0.00    +0.020 A 
ATOM     23  C   UNL     1      -1.599  -2.927  24.647  0.00  0.00    +0.002 A 
ATOM     24  C   UNL     1      -2.394  -3.001  24.439  0.00  0.00    +0.010 A 
ATOM     25  C   UNL     1      -2.863  -2.327  24.357  0.00  0.00    +0.070 A 
ATOM     26  C   UNL     1      -2.538  -1.580  24.483  0.00  0.00    +0.030 A 
BRANCH  25  27
ATOM     27  C   UNL     1      -3.658  -2.401  24.148  0.00  0.00    +0.100 C 
ATOM     28  N   UNL     1      -4.453  -2.475  23.940  0.00  0.00    -0.191 NA
ENDBRANCH  25  27
ENDBRANCH  18  21
ENDBRANCH  17  18
ENDBRANCH  16  17
ENDBRANCH  15  16
TORSDOF 11
ENDMDL
MODEL 6
REMARK VINA RESULT:      -8.0      2.162      6.072
REMARK  Name = 
REMARK  11 active torsions:
REMARK  status: ('A' for Active; 'I' for Inactive)
REMARK    1  A    between atoms: O_2  and  C_3
REMARK    2  A    between atoms: C_3  and  C_4
REMARK    3  A    between atoms: C_4  and  N_5
REMARK    4  A    between atoms: C_6  and  C_8
REMARK    5  A    between atoms: C_8  and  C_9
REMARK    6  A    between atoms: C_11  and  C_12
REMARK    7  A    between atoms: C_15  and  C_16
REMARK    8  A    between atoms: C_16  and  N_17
REMARK    9  A    between atoms: N_17  and  S_18
REMARK   10  A    between atoms: S_18  and  C_21
REMARK   11  A    between atoms: C_25  and  C_27
REMARK                            x       y       z     vdW  Elec       q    Type
REMARK                         _______ _______ _______ _____ _____    ______ ____
ROOT
ATOM      9  C   UNL     1      -0.942  -1.131  25.139  0.00  0.00    +0.027 C 
ATOM     10  C   UNL     1      -0.666  -0.803  24.434  0.00  0.00    +0.005 C 
ATOM     11  C   UNL     1      -0.557   0.012  24.373  0.00  0.00    +0.006 C 
ATOM     15  C   UNL     1      -0.723   0.500  25.018  0.00  0.00    +0.041 C 
ATOM     29  C   UNL     1      -0.999   0.172  25.722  0.00  0.00    -0.033 C 
ATOM     30  C   UNL     1      -1.108  -0.643  25.784  0.00  0.00    -0.048 C 
ATOM     31  C   UNL     1      -1.384  -0.971  26.488  0.00  0.00    +0.026 C 
ENDROOT
BRANCH  11  12
ATOM     12  C   UNL     1      -0.281   0.341  23.668  0.00  0.00    +0.000 C 
ATOM     13  C   UNL     1       0.529   0.387  23.523  0.00  0.00    +0.000 C 
ATOM     14  C   UNL     1      -0.817   0.622  23.107  0.00  0.00    +0.000 C 
ENDBRANCH  11  12
BRANCH   9   8
ATOM      8  C   UNL     1      -1.051  -1.946  25.200  0.00  0.00    +0.091 C 
BRANCH   8   6
ATOM      5  N   UNL     1      -2.351  -2.386  24.803  0.00  0.00    -0.203 NA
ATOM      6  C   UNL     1      -1.540  -2.339  24.663  0.00  0.00    +0.242 C 
ATOM      7  O   UNL     1      -1.217  -2.684  23.986  0.00  0.00    -0.273 OA
BRANCH   5   4
ATOM      4  C   UNL     1      -2.841  -2.779  24.267  0.00  0.00    +0.147 C 
BRANCH   4   3
ATOM      3  C   UNL     1      -3.657  -2.784  24.380  0.00  0.00    +0.166 C 
BRANCH   3   2
ATOM      1  C   UNL     1      -4.619  -1.919  23.773  0.00  0.00    +0.174 C 
ATOM      2  O   UNL     1      -4.162  -2.605  23.753  0.00  0.00    -0.349 OA
ENDBRANCH   3   2
ENDBRANCH   4   3
ENDBRANCH   5   4
ENDBRANCH   8   6
ENDBRANCH   9   8
BRANCH  15  16
ATOM     16  C   UNL     1      -0.613   1.316  24.957  0.00  0.00    +0.120 C 
BRANCH  16  17
ATOM     17  N   UNL     1      -0.715   1.796  25.620  0.00  0.00    -0.077 NA
BRANCH  17  18
ATOM     18  S   UNL     1      -0.929   2.587  25.526  0.00  0.00    +0.077 S 
ATOM     19  O   UNL     1      -1.704   2.358  25.359  0.00  0.00    -0.152 OA
ATOM     20  O   UNL     1      -0.155   2.817  25.694  0.00  0.00    -0.152 OA
BRANCH  18  21
ATOM     21  C   UNL     1      -1.144   3.379  25.433  0.00  0.00    +0.124 A 
ATOM     22  C   UNL     1      -0.628   3.904  25.062  0.00  0.00    +0.020 A 
ATOM     23  C   UNL     1      -0.843   4.696  24.969  0.00  0.00    +0.002 A 
ATOM     24  C   UNL     1      -1.573   4.961  25.246  0.00  0.00    +0.010 A 
ATOM     25  C   UNL     1      -2.088   4.434  25.617  0.00  0.00    +0.070 A 
ATOM     26  C   UNL     1      -1.874   3.644  25.711  0.00  0.00    +0.030 A 
BRANCH  25  27
ATOM     27  C   UNL     1      -2.820   4.699  25.896  0.00  0.00    +0.100 C 
ATOM     28  N   UNL     1      -3.550   4.964  26.173  0.00  0.00    -0.191 NA
ENDBRANCH  25  27
ENDBRANCH  18  21
ENDBRANCH  17  18
ENDBRANCH  16  17
ENDBRANCH  15  16
TORSDOF 11
ENDMDL
