MODEL 1
REMARK VINA RESULT:     -11.6      0.000      0.000
REMARK  Name = 
REMARK  4 active torsions:
REMARK  status: ('A' for Active; 'I' for Inactive)
REMARK    1  A    between atoms: C_4  and  C_8
REMARK    2  A    between atoms: C_11  and  C_13
REMARK    3  A    between atoms: N_18  and  C_19
REMARK    4  A    between atoms: C_19  and  C_20
REMARK                            x       y       z     vdW  Elec       q    Type
REMARK                         _______ _______ _______ _____ _____    ______ ____
ROOT
ATOM      8  C   UNL     1      -3.889   0.202  24.476  0.00  0.00    +0.102 A 
ATOM      9  C   UNL     1      -3.604   0.629  23.830  0.00  0.00    +0.119 A 
ATOM     10  N   UNL     1      -3.827   1.418  23.926  0.00  0.00    -0.226 NA
ATOM     11  C   UNL     1      -4.251   1.477  24.631  0.00  0.00    +0.156 A 
ATOM     12  N   UNL     1      -4.290   0.727  24.971  0.00  0.00    -0.228 NA
ENDROOT
BRANCH   8   4
ATOM      1  F   UNL     1      -4.365  -2.503  23.689  0.00  0.00    -0.204 F 
ATOM      2  C   UNL     1      -4.030  -1.960  24.210  0.00  0.00    +0.140 A 
ATOM      3  C   UNL     1      -4.127  -1.150  24.082  0.00  0.00    +0.031 A 
ATOM      4  C   UNL     1      -3.792  -0.607  24.604  0.00  0.00    +0.021 A 
ATOM      5  C   UNL     1      -3.358  -0.872  25.253  0.00  0.00    +0.002 A 
ATOM      6  C   UNL     1      -3.260  -1.681  25.381  0.00  0.00    +0.002 A 
ATOM      7  C   UNL     1      -3.596  -2.225  24.860  0.00  0.00    +0.030 A 
ENDBRANCH   8   4
BRANCH  11  13
ATOM     13  C   UNL     1      -4.580   2.168  24.942  0.00  0.00    +0.147 C 
ATOM     14  C   UNL     1      -5.399   2.239  25.015  0.00  0.00    +0.166 C 
ATOM     15  O   UNL     1      -5.727   2.929  25.325  0.00  0.00    -0.350 OA
ATOM     16  C   UNL     1      -5.236   3.549  25.564  0.00  0.00    +0.160 C 
ATOM     17  C   UNL     1      -4.417   3.477  25.491  0.00  0.00    +0.105 C 
ATOM     18  N   UNL     1      -4.089   2.787  25.180  0.00  0.00    -0.264 NA
BRANCH  18  19
ATOM     19  C   UNL     1      -3.271   2.716  25.108  0.00  0.00    +0.073 C 
BRANCH  19  20
ATOM     20  C   UNL     1      -2.779   3.323  25.374  0.00  0.00    +0.016 C 
ATOM     21  C   UNL     1      -2.348   4.010  25.225  0.00  0.00    +0.001 C 
ATOM     22  C   UNL     1      -2.359   3.686  25.983  0.00  0.00    +0.001 C 
ENDBRANCH  19  20
ENDBRANCH  18  19
ENDBRANCH  11  13
TORSDOF 4
ENDMDL
MODEL 2
REMARK VINA RESULT:     -11.2      1.367      1.946
REMARK  Name = 
REMARK  4 active torsions:
REMARK  status: ('A' for Active; 'I' for Inactive)
REMARK    1  A    between atoms: C_4  and  C_8
REMARK    2  A    between atoms: C_11  and  C_13
REMARK    3  A    between atoms: N_18  and  C_19
REMARK    4  A    between atoms: C_19  and  C_20
REMARK                            x       y       z     vdW  Elec       q    Type
REMARK                         _______ _______ _______ _____ _____    ______ ____
ROOT
ATOM      8  C   UNL     1      -3.293  -0.505  24.595  0.00  0.00    +0.102 A 
ATOM      9  C   UNL     1      -2.757  -0.166  25.123  0.00  0.00    +0.119 A 
ATOM     10  N   UNL     1      -2.759   0.650  25.000  0.00  0.00    -0.226 NA
ATOM     11  C   UNL     1      -3.297   0.815  24.397  0.00  0.00    +0.156 A 
ATOM     12  N   UNL     1      -3.627   0.102  24.146  0.00  0.00    -0.228 NA
ENDROOT
BRANCH   8   4
ATOM      1  F   UNL     1      -4.718  -2.634  23.329  0.00  0.00    -0.204 F 
ATOM      2  C   UNL     1      -4.178  -2.373  23.895  0.00  0.00    +0.140 A 
ATOM      3  C   UNL     1      -4.006  -1.569  23.962  0.00  0.00    +0.031 A 
ATOM      4  C   UNL     1      -3.465  -1.309  24.528  0.00  0.00    +0.021 A 
ATOM      5  C   UNL     1      -3.097  -1.852  25.027  0.00  0.00    +0.002 A 
ATOM      6  C   UNL     1      -3.269  -2.657  24.960  0.00  0.00    +0.002 A 
ATOM      7  C   UNL     1      -3.809  -2.917  24.395  0.00  0.00    +0.030 A 
ENDBRANCH   8   4
BRANCH  11  13
ATOM     13  C   UNL     1      -3.473   1.563  24.096  0.00  0.00    +0.147 C 
ATOM     14  C   UNL     1      -3.040   1.866  23.463  0.00  0.00    +0.166 C 
ATOM     15  O   UNL     1      -3.216   2.614  23.163  0.00  0.00    -0.350 OA
ATOM     16  C   UNL     1      -3.826   3.059  23.496  0.00  0.00    +0.160 C 
ATOM     17  C   UNL     1      -4.259   2.756  24.129  0.00  0.00    +0.105 C 
ATOM     18  N   UNL     1      -4.083   2.008  24.429  0.00  0.00    -0.264 NA
BRANCH  18  19
ATOM     19  C   UNL     1      -4.516   1.705  25.062  0.00  0.00    +0.073 C 
BRANCH  19  20
ATOM     20  C   UNL     1      -5.182   2.109  25.337  0.00  0.00    +0.016 C 
ATOM     21  C   UNL     1      -5.516   2.699  25.807  0.00  0.00    +0.001 C 
ATOM     22  C   UNL     1      -5.999   2.218  25.343  0.00  0.00    +0.001 C 
ENDBRANCH  19  20
ENDBRANCH  18  19
ENDBRANCH  11  13
TORSDOF 4
ENDMDL
MODEL 3
REMARK VINA RESULT:     -11.0      2.224      4.479
REMARK  Name = 
REMARK  4 active torsions:
REMARK  status: ('A' for Active; 'I' for Inactive)
REMARK    1  A    between atoms: C_4  and  C_8
REMARK    2  A    between atoms: C_11  and  C_13
REMARK    3  A    between atoms: N_18  and  C_19
REMARK    4  A    between atoms: C_19  and  C_20
REMARK                            x       y       z     vdW  Elec       q    Type
REMARK                         _______ _______ _______ _____ _____    ______ ____
ROOT
ATOM      8  C   UNL     1      -3.787   1.446  24.599  0.00  0.00    +0.102 A 
ATOM      9  C   UNL     1      -3.581   1.362  23.804  0.00  0.00    +0.119 A 
ATOM     10  N   UNL     1      -2.958   0.823  23.758  0.00  0.00    -0.226 NA
ATOM     11  C   UNL     1      -2.779   0.574  24.524  0.00  0.00    +0.156 A 
ATOM     12  N   UNL     1      -3.291   0.959  25.044  0.00  0.00    -0.228 NA
ENDROOT
BRANCH   8   4
ATOM      1  F   UNL     1      -4.652   3.987  25.578  0.00  0.00    -0.204 F 
ATOM      2  C   UNL     1      -4.816   3.202  25.386  0.00  0.00    +0.140 A 
ATOM      3  C   UNL     1      -4.219   2.716  25.089  0.00  0.00    +0.031 A 
ATOM      4  C   UNL     1      -4.384   1.932  24.896  0.00  0.00    +0.021 A 
ATOM      5  C   UNL     1      -5.145   1.631  25.001  0.00  0.00    +0.002 A 
ATOM      6  C   UNL     1      -5.742   2.117  25.299  0.00  0.00    +0.002 A 
ATOM      7  C   UNL     1      -5.578   2.902  25.491  0.00  0.00    +0.030 A 
ENDBRANCH   8   4
BRANCH  11  13
ATOM     13  C   UNL     1      -2.190   0.034  24.733  0.00  0.00    +0.147 C 
ATOM     14  C   UNL     1      -1.428   0.301  24.902  0.00  0.00    +0.166 C 
ATOM     15  O   UNL     1      -0.840  -0.238  25.111  0.00  0.00    -0.350 OA
ATOM     16  C   UNL     1      -1.014  -1.044  25.152  0.00  0.00    +0.160 C 
ATOM     17  C   UNL     1      -1.776  -1.309  24.984  0.00  0.00    +0.105 C 
ATOM     18  N   UNL     1      -2.365  -0.770  24.775  0.00  0.00    -0.264 NA
BRANCH  18  19
ATOM     19  C   UNL     1      -3.127  -1.036  24.607  0.00  0.00    +0.073 C 
BRANCH  19  20
ATOM     20  C   UNL     1      -3.309  -1.839  24.679  0.00  0.00    +0.016 C 
ATOM     21  C   UNL     1      -3.448  -2.574  24.331  0.00  0.00    +0.001 C 
ATOM     22  C   UNL     1      -3.485  -2.491  25.151  0.00  0.00    +0.001 C 
ENDBRANCH  19  20
ENDBRANCH  18  19
ENDBRANCH  11  13
TORSDOF 4
ENDMDL
MODEL 4
REMARK VINA RESULT:     -10.8      2.131      4.282
REMARK  Name = 
REMARK  4 active torsions:
REMARK  status: ('A' for Active; 'I' for Inactive)
REMARK    1  A    between atoms: C_4  and  C_8
REMARK    2  A    between atoms: C_11  and  C_13
REMARK    3  A    between atoms: N_18  and  C_19
REMARK    4  A    between atoms: C_19  and  C_20
REMARK                            x       y       z     vdW  Elec       q    Type
REMARK                         _______ _______ _______ _____ _____    ______ ____
ROOT
ATOM      8  C   UNL     1      -2.909   3.399  24.642  0.00  0.00    +0.102 A 
ATOM      9  C   UNL     1      -3.242   3.342  23.889  0.00  0.00    +0.119 A 
ATOM     10  N   UNL     1      -3.965   2.950  23.959  0.00  0.00    -0.226 NA
ATOM     11  C   UNL     1      -4.078   2.765  24.755  0.00  0.00    +0.156 A 
ATOM     12  N   UNL     1      -3.426   3.042  25.177  0.00  0.00    -0.228 NA
ENDROOT
BRANCH   8   4
ATOM      1  F   UNL     1      -1.391   5.719  25.333  0.00  0.00    -0.204 F 
ATOM      2  C   UNL     1      -1.427   4.911  25.173  0.00  0.00    +0.140 A 
ATOM      3  C   UNL     1      -2.151   4.559  24.988  0.00  0.00    +0.031 A 
ATOM      4  C   UNL     1      -2.186   3.751  24.827  0.00  0.00    +0.021 A 
ATOM      5  C   UNL     1      -1.500   3.294  24.850  0.00  0.00    +0.002 A 
ATOM      6  C   UNL     1      -0.777   3.647  25.035  0.00  0.00    +0.002 A 
ATOM      7  C   UNL     1      -0.740   4.454  25.196  0.00  0.00    +0.030 A 
ENDBRANCH   8   4
BRANCH  11  13
ATOM     13  C   UNL     1      -4.730   2.370  25.074  0.00  0.00    +0.147 C 
ATOM     14  C   UNL     1      -5.352   2.802  25.402  0.00  0.00    +0.166 C 
ATOM     15  O   UNL     1      -6.004   2.408  25.720  0.00  0.00    -0.350 OA
ATOM     16  C   UNL     1      -6.033   1.583  25.710  0.00  0.00    +0.160 C 
ATOM     17  C   UNL     1      -5.410   1.153  25.381  0.00  0.00    +0.105 C 
ATOM     18  N   UNL     1      -4.759   1.546  25.063  0.00  0.00    -0.264 NA
BRANCH  18  19
ATOM     19  C   UNL     1      -4.137   1.116  24.735  0.00  0.00    +0.073 C 
BRANCH  19  20
ATOM     20  C   UNL     1      -4.133   0.292  24.787  0.00  0.00    +0.016 C 
ATOM     21  C   UNL     1      -4.300  -0.445  24.456  0.00  0.00    +0.001 C 
ATOM     22  C   UNL     1      -3.960  -0.396  25.206  0.00  0.00    +0.001 C 
ENDBRANCH  19  20
ENDBRANCH  18  19
ENDBRANCH  11  13
TORSDOF 4
ENDMDL
MODEL 5
REMARK VINA RESULT:     -10.6      2.805      5.022
REMARK  Name = 
REMARK  4 active torsions:
REMARK  status: ('A' for Active; 'I' for Inactive)
REMARK    1  A    between atoms: C_4  and  C_8
REMARK    2  A    between atoms: C_11  and  C_13
REMARK    3  A    between atoms: N_18  and  C_19
REMARK    4  A    between atoms: C_19  and  C_20
REMARK                            x       y       z     vdW  Elec       q    Type
REMARK                         _______ _______ _______ _____ _____    ______ ____
ROOT
ATOM      8  C   UNL     1      -1.881   2.334  24.608  0.00  0.00    +0.102 A 
ATOM      9  C   UNL     1      -2.171   2.122  23.865  0.00  0.00    +0.119 A 
ATOM     10  N   UNL     1      -1.992   1.325  23.740  0.00  0.00    -0.226 NA
ATOM     11  C   UNL     1      -1.593   1.047  24.406  0.00  0.00    +0.156 A 
ATOM     12  N   UNL     1      -1.524   1.669  24.942  0.00  0.00    -0.228 NA
ENDROOT
BRANCH   8   4
ATOM      1  F   UNL     1      -0.795   4.934  25.083  0.00  0.00    -0.204 F 
ATOM      2  C   UNL     1      -1.395   4.380  25.193  0.00  0.00    +0.140 A 
ATOM      3  C   UNL     1      -1.338   3.634  24.845  0.00  0.00    +0.031 A 
ATOM      4  C   UNL     1      -1.939   3.080  24.956  0.00  0.00    +0.021 A 
ATOM      5  C   UNL     1      -2.597   3.271  25.414  0.00  0.00    +0.002 A 
ATOM      6  C   UNL     1      -2.655   4.017  25.762  0.00  0.00    +0.002 A 
ATOM      7  C   UNL     1      -2.055   4.571  25.652  0.00  0.00    +0.030 A 
ENDBRANCH   8   4
BRANCH  11  13
ATOM     13  C   UNL     1      -1.311   0.278  24.515  0.00  0.00    +0.147 C 
ATOM     14  C   UNL     1      -0.521   0.102  24.356  0.00  0.00    +0.166 C 
ATOM     15  O   UNL     1      -0.239  -0.665  24.465  0.00  0.00    -0.350 OA
ATOM     16  C   UNL     1      -0.748  -1.257  24.735  0.00  0.00    +0.160 C 
ATOM     17  C   UNL     1      -1.538  -1.080  24.894  0.00  0.00    +0.105 C 
ATOM     18  N   UNL     1      -1.819  -0.313  24.784  0.00  0.00    -0.264 NA
BRANCH  18  19
ATOM     19  C   UNL     1      -2.609  -0.136  24.943  0.00  0.00    +0.073 C 
BRANCH  19  20
ATOM     20  C   UNL     1      -3.118  -0.729  25.212  0.00  0.00    +0.016 C 
ATOM     21  C   UNL     1      -3.470  -1.139  25.835  0.00  0.00    +0.001 C 
ATOM     22  C   UNL     1      -3.645  -1.343  25.055  0.00  0.00    +0.001 C 
ENDBRANCH  19  20
ENDBRANCH  18  19
ENDBRANCH  11  13
TORSDOF 4
ENDMDL
