MODEL 1
REMARK VINA RESULT:     -12.4      0.000      0.000
REMARK  Name = 
REMARK  6 active torsions:
REMARK  status: ('A' for Active; 'I' for Inactive)
REMARK    1  A    between atoms: O_2  and  C_3
REMARK    2  A    between atoms: C_6  and  N_9
REMARK    3  A    between atoms: C_13  and  C_14
REMARK    4  A    between atoms: C_16  and  N_17
REMARK    5  A    between atoms: N_17  and  C_18
REMARK    6  A    between atoms: C_18  and  C_19
REMARK                            x       y       z     vdW  Elec       q    Type
REMARK                         _______ _______ _______ _____ _____    ______ ____
ROOT
ATOM      9  N   UNL     1      -4.382   0.037  24.863  0.00  0.00    -0.234 N 
ATOM     10  N   UNL     1      -5.046   0.278  25.288  0.00  0.00    -0.170 NA
ATOM     11  C   UNL     1      -5.102   1.099  25.231  0.00  0.00    +0.077 A 
ATOM     12  C   UNL     1      -5.685   1.570  25.574  0.00  0.00    +0.054 C 
ATOM     13  C   UNL     1      -4.473   1.366  24.770  0.00  0.00    +0.010 A 
ATOM     28  C   UNL     1      -4.027   0.709  24.543  0.00  0.00    +0.058 A 
ATOM     29  C   UNL     1      -3.346   0.723  24.076  0.00  0.00    +0.052 C 
ENDROOT
BRANCH   9   6
ATOM      3  C   UNL     1      -3.591  -2.293  24.595  0.00  0.00    +0.139 A 
ATOM      4  C   UNL     1      -4.050  -1.942  24.005  0.00  0.00    +0.038 A 
ATOM      5  C   UNL     1      -4.313  -1.165  24.094  0.00  0.00    +0.022 A 
ATOM      6  C   UNL     1      -4.118  -0.740  24.773  0.00  0.00    +0.083 A 
ATOM      7  C   UNL     1      -3.660  -1.089  25.364  0.00  0.00    +0.022 A 
ATOM      8  C   UNL     1      -3.396  -1.866  25.274  0.00  0.00    +0.038 A 
BRANCH   3   2
ATOM      1  C   UNL     1      -2.575  -3.217  24.201  0.00  0.00    +0.252 C 
ATOM      2  O   UNL     1      -3.327  -3.069  24.505  0.00  0.00    -0.471 OA
ENDBRANCH   3   2
ENDBRANCH   9   6
BRANCH  13  14
ATOM     14  C   UNL     1      -4.315   2.151  24.571  0.00  0.00    +0.048 C 
ATOM     15  C   UNL     1      -3.747   2.635  24.922  0.00  0.00    +0.031 C 
ATOM     16  C   UNL     1      -3.779   3.373  24.554  0.00  0.00    +0.095 C 
ATOM     26  C   UNL     1      -4.367   3.345  23.977  0.00  0.00    -0.013 C 
ATOM     27  C   UNL     1      -4.699   2.589  23.987  0.00  0.00    -0.025 C 
BRANCH  16  17
ATOM     17  N   UNL     1      -3.306   4.024  24.733  0.00  0.00    -0.210 NA
BRANCH  17  18
ATOM     18  C   UNL     1      -2.703   3.955  25.292  0.00  0.00    +0.115 C 
BRANCH  18  19
ATOM     19  C   UNL     1      -1.982   4.337  25.171  0.00  0.00    -0.004 A 
ATOM     20  C   UNL     1      -1.950   5.161  25.144  0.00  0.00    -0.003 A 
ATOM     21  C   UNL     1      -1.230   5.543  25.023  0.00  0.00    +0.001 A 
ATOM     22  C   UNL     1      -0.540   5.101  24.927  0.00  0.00    +0.011 A 
ATOM     23  C   UNL     1      -0.571   4.277  24.953  0.00  0.00    +0.057 A 
ATOM     24 CL   UNL     1       0.119   3.835  24.858  0.00  0.00    -0.082 Cl
ATOM     25  C   UNL     1      -1.291   3.895  25.075  0.00  0.00    +0.009 A 
ENDBRANCH  18  19
ENDBRANCH  17  18
ENDBRANCH  16  17
ENDBRANCH  13  14
TORSDOF 6
ENDMDL
MODEL 2
REMARK VINA RESULT:     -11.7      2.197      5.541
REMARK  Name = 
REMARK  6 active torsions:
REMARK  status: ('A' for Active; 'I' for Inactive)
REMARK    1  A    between atoms: O_2  and  C_3
REMARK    2  A    between atoms: C_6  and  N_9
REMARK    3  A    between atoms: C_13  and  C_14
REMARK    4  A    between atoms: C_16  and  N_17
REMARK    5  A    between atoms: N_17  and  C_18
REMARK    6  A    between atoms: C_18  and  C_19
REMARK                            x       y       z     vdW  Elec       q    Type
REMARK                         _______ _______ _______ _____ _____    ______ ____
ROOT
ATOM      9  N   UNL     1      -3.558   3.391  25.333  0.00  0.00    -0.234 N 
ATOM     10  N   UNL     1      -4.274   3.535  25.716  0.00  0.00    -0.170 NA
ATOM     11  C   UNL     1      -4.744   2.860  25.641  0.00  0.00    +0.077 A 
ATOM     12  C   UNL     1      -5.505   2.764  25.942  0.00  0.00    +0.054 C 
ATOM     13  C   UNL     1      -4.317   2.300  25.212  0.00  0.00    +0.010 A 
ATOM     28  C   UNL     1      -3.584   2.628  25.022  0.00  0.00    +0.058 A 
ATOM     29  C   UNL     1      -2.983   2.257  24.595  0.00  0.00    +0.052 C 
ENDROOT
BRANCH   9   6
ATOM      3  C   UNL     1      -1.663   4.973  25.152  0.00  0.00    +0.139 A 
ATOM      4  C   UNL     1      -1.679   4.415  25.761  0.00  0.00    +0.038 A 
ATOM      5  C   UNL     1      -2.310   3.888  25.821  0.00  0.00    +0.022 A 
ATOM      6  C   UNL     1      -2.926   3.918  25.273  0.00  0.00    +0.083 A 
ATOM      7  C   UNL     1      -2.911   4.475  24.664  0.00  0.00    +0.022 A 
ATOM      8  C   UNL     1      -2.279   5.002  24.603  0.00  0.00    +0.038 A 
BRANCH   3   2
ATOM      1  C   UNL     1      -0.366   5.296  24.647  0.00  0.00    +0.252 C 
ATOM      2  O   UNL     1      -1.031   5.500  25.091  0.00  0.00    -0.471 OA
ENDBRANCH   3   2
ENDBRANCH   9   6
BRANCH  13  14
ATOM     14  C   UNL     1      -4.577   1.544  25.009  0.00  0.00    +0.048 C 
ATOM     15  C   UNL     1      -4.162   0.841  25.127  0.00  0.00    +0.031 C 
ATOM     16  C   UNL     1      -4.627   0.221  24.843  0.00  0.00    +0.095 C 
ATOM     26  C   UNL     1      -5.328   0.540  24.550  0.00  0.00    -0.013 C 
ATOM     27  C   UNL     1      -5.298   1.358  24.653  0.00  0.00    -0.025 C 
BRANCH  16  17
ATOM     17  N   UNL     1      -4.424  -0.579  24.850  0.00  0.00    -0.210 NA
BRANCH  17  18
ATOM     18  C   UNL     1      -4.042  -0.914  24.200  0.00  0.00    +0.115 C 
BRANCH  18  19
ATOM     19  C   UNL     1      -3.659  -1.641  24.276  0.00  0.00    -0.004 A 
ATOM     20  C   UNL     1      -4.084  -2.343  24.190  0.00  0.00    -0.003 A 
ATOM     21  C   UNL     1      -3.702  -3.069  24.266  0.00  0.00    +0.001 A 
ATOM     22  C   UNL     1      -2.894  -3.095  24.429  0.00  0.00    +0.011 A 
ATOM     23  C   UNL     1      -2.468  -2.393  24.516  0.00  0.00    +0.057 A 
ATOM     24 CL   UNL     1      -1.660  -2.420  24.679  0.00  0.00    -0.082 Cl
ATOM     25  C   UNL     1      -2.850  -1.667  24.440  0.00  0.00    +0.009 A 
ENDBRANCH  18  19
ENDBRANCH  17  18
ENDBRANCH  16  17
ENDBRANCH  13  14
TORSDOF 6
ENDMDL
MODEL 3
REMARK VINA RESULT:     -10.3      3.065      4.620
REMARK  Name = 
REMARK  6 active torsions:
REMARK  status: ('A' for Active; 'I' for Inactive)
REMARK    1  A    between atoms: O_2  and  C_3
REMARK    2  A    between atoms: C_6  and  N_9
REMARK    3  A    between atoms: C_13  and  C_14
REMARK    4  A    between atoms: C_16  and  N_17
REMARK    5  A    between atoms: N_17  and  C_18
REMARK    6  A    between atoms: C_18  and  C_19
REMARK                            x       y       z     vdW  Elec       q    Type
REMARK                         _______ _______ _______ _____ _____    ______ ____
ROOT
ATOM      9  N   UNL     1       0.151   1.788  24.634  0.00  0.00    -0.234 N 
ATOM     10  N   UNL     1       0.385   1.921  25.414  0.00  0.00    -0.170 NA
ATOM     11  C   UNL     1      -0.136   2.468  25.747  0.00  0.00    +0.077 A 
ATOM     12  C   UNL     1      -0.106   2.758  26.518  0.00  0.00    +0.054 C 
ATOM     13  C   UNL     1      -0.691   2.672  25.174  0.00  0.00    +0.010 A 
ATOM     28  C   UNL     1      -0.514   2.252  24.486  0.00  0.00    +0.058 A 
ATOM     29  C   UNL     1      -0.930   2.290  23.774  0.00  0.00    +0.052 C 
ENDROOT
BRANCH   9   6
ATOM      3  C   UNL     1       1.251   0.263  23.025  0.00  0.00    +0.139 A 
ATOM      4  C   UNL     1       0.523   0.058  23.356  0.00  0.00    +0.038 A 
ATOM      5  C   UNL     1       0.156   0.567  23.893  0.00  0.00    +0.022 A 
ATOM      6  C   UNL     1       0.517   1.280  24.098  0.00  0.00    +0.083 A 
ATOM      7  C   UNL     1       1.245   1.485  23.767  0.00  0.00    +0.022 A 
ATOM      8  C   UNL     1       1.612   0.977  23.230  0.00  0.00    +0.038 A 
BRANCH   3   2
ATOM      1  C   UNL     1       2.410  -0.132  22.289  0.00  0.00    +0.252 C 
ATOM      2  O   UNL     1       1.617  -0.245  22.488  0.00  0.00    -0.471 OA
ENDBRANCH   3   2
ENDBRANCH   9   6
BRANCH  13  14
ATOM     14  C   UNL     1      -1.315   3.204  25.270  0.00  0.00    +0.048 C 
ATOM     15  C   UNL     1      -2.104   3.006  25.409  0.00  0.00    +0.031 C 
ATOM     16  C   UNL     1      -2.535   3.706  25.469  0.00  0.00    +0.095 C 
ATOM     26  C   UNL     1      -2.014   4.337  25.367  0.00  0.00    -0.013 C 
ATOM     27  C   UNL     1      -1.259   4.026  25.244  0.00  0.00    -0.025 C 
BRANCH  16  17
ATOM     17  N   UNL     1      -3.346   3.765  25.608  0.00  0.00    -0.210 NA
BRANCH  17  18
ATOM     18  C   UNL     1      -3.881   3.600  25.001  0.00  0.00    +0.115 C 
BRANCH  18  19
ATOM     19  C   UNL     1      -4.623   3.285  25.180  0.00  0.00    -0.004 A 
ATOM     20  C   UNL     1      -5.155   3.717  25.639  0.00  0.00    -0.003 A 
ATOM     21  C   UNL     1      -5.895   3.403  25.817  0.00  0.00    +0.001 A 
ATOM     22  C   UNL     1      -6.106   2.656  25.536  0.00  0.00    +0.011 A 
ATOM     23  C   UNL     1      -5.574   2.224  25.076  0.00  0.00    +0.057 A 
ATOM     24 CL   UNL     1      -5.784   1.478  24.795  0.00  0.00    -0.082 Cl
ATOM     25  C   UNL     1      -4.833   2.538  24.898  0.00  0.00    +0.009 A 
ENDBRANCH  18  19
ENDBRANCH  17  18
ENDBRANCH  16  17
ENDBRANCH  13  14
TORSDOF 6
ENDMDL
MODEL 4
REMARK VINA RESULT:     -10.2      3.055      4.553
REMARK  Name = 
REMARK  6 active torsions:
REMARK  status: ('A' for Active; 'I' for Inactive)
REMARK    1  A    between atoms: O_2  and  C_3
REMARK    2  A    between atoms: C_6  and  N_9
REMARK    3  A    between atoms: C_13  and  C_14
REMARK    4  A    between atoms: C_16  and  N_17
REMARK    5  A    between atoms: N_17  and  C_18
REMARK    6  A    between atoms: C_18  and  C_19
REMARK                            x       y       z     vdW  Elec       q    Type
REMARK                         _______ _______ _______ _____ _____    ______ ____
ROOT
ATOM      9  N   UNL     1      -0.592  -0.284  24.271  0.00  0.00    -0.234 N 
ATOM     10  N   UNL     1      -0.634  -0.850  24.869  0.00  0.00    -0.170 NA
ATOM     11  C   UNL     1      -1.426  -0.936  25.085  0.00  0.00    +0.077 A 
ATOM     12  C   UNL     1      -1.718  -1.445  25.664  0.00  0.00    +0.054 C 
ATOM     13  C   UNL     1      -1.873  -0.423  24.620  0.00  0.00    +0.010 A 
ATOM     28  C   UNL     1      -1.358  -0.020  24.117  0.00  0.00    +0.058 A 
ATOM     29  C   UNL     1      -1.572   0.548  23.557  0.00  0.00    +0.052 C 
ENDROOT
BRANCH   9   6
ATOM      3  C   UNL     1       1.469   0.485  23.137  0.00  0.00    +0.139 A 
ATOM      4  C   UNL     1       1.141  -0.248  22.945  0.00  0.00    +0.038 A 
ATOM      5  C   UNL     1       0.454  -0.504  23.323  0.00  0.00    +0.022 A 
ATOM      6  C   UNL     1       0.095  -0.028  23.893  0.00  0.00    +0.083 A 
ATOM      7  C   UNL     1       0.422   0.705  24.085  0.00  0.00    +0.022 A 
ATOM      8  C   UNL     1       1.109   0.962  23.707  0.00  0.00    +0.038 A 
BRANCH   3   2
ATOM      1  C   UNL     1       2.703   0.191  22.480  0.00  0.00    +0.252 C 
ATOM      2  O   UNL     1       2.156   0.742  22.759  0.00  0.00    -0.471 OA
ENDBRANCH   3   2
ENDBRANCH   9   6
BRANCH  13  14
ATOM     14  C   UNL     1      -2.692  -0.329  24.653  0.00  0.00    +0.048 C 
ATOM     15  C   UNL     1      -3.094   0.288  25.025  0.00  0.00    +0.031 C 
ATOM     16  C   UNL     1      -3.903   0.163  24.920  0.00  0.00    +0.095 C 
ATOM     26  C   UNL     1      -4.001  -0.529  24.484  0.00  0.00    -0.013 C 
ATOM     27  C   UNL     1      -3.252  -0.834  24.318  0.00  0.00    -0.025 C 
BRANCH  16  17
ATOM     17  N   UNL     1      -4.508   0.647  25.202  0.00  0.00    -0.210 NA
BRANCH  17  18
ATOM     18  C   UNL     1      -4.800   1.260  24.733  0.00  0.00    +0.115 C 
BRANCH  18  19
ATOM     19  C   UNL     1      -5.156   1.916  25.084  0.00  0.00    -0.004 A 
ATOM     20  C   UNL     1      -5.873   1.832  25.484  0.00  0.00    -0.003 A 
ATOM     21  C   UNL     1      -6.229   2.487  25.835  0.00  0.00    +0.001 A 
ATOM     22  C   UNL     1      -5.869   3.228  25.788  0.00  0.00    +0.011 A 
ATOM     23  C   UNL     1      -5.152   3.312  25.387  0.00  0.00    +0.057 A 
ATOM     24 CL   UNL     1      -4.792   4.053  25.340  0.00  0.00    -0.082 Cl
ATOM     25  C   UNL     1      -4.796   2.657  25.036  0.00  0.00    +0.009 A 
ENDBRANCH  18  19
ENDBRANCH  17  18
ENDBRANCH  16  17
ENDBRANCH  13  14
TORSDOF 6
ENDMDL
MODEL 5
REMARK VINA RESULT:     -10.1      3.274      4.717
REMARK  Name = 
REMARK  6 active torsions:
REMARK  status: ('A' for Active; 'I' for Inactive)
REMARK    1  A    between atoms: O_2  and  C_3
REMARK    2  A    between atoms: C_6  and  N_9
REMARK    3  A    between atoms: C_13  and  C_14
REMARK    4  A    between atoms: C_16  and  N_17
REMARK    5  A    between atoms: N_17  and  C_18
REMARK    6  A    between atoms: C_18  and  C_19
REMARK                            x       y       z     vdW  Elec       q    Type
REMARK                         _______ _______ _______ _____ _____    ______ ____
ROOT
ATOM      9  N   UNL     1      -3.757   0.503  24.733  0.00  0.00    -0.234 N 
ATOM     10  N   UNL     1      -3.961  -0.263  24.506  0.00  0.00    -0.170 NA
ATOM     11  C   UNL     1      -3.267  -0.706  24.452  0.00  0.00    +0.077 A 
ATOM     12  C   UNL     1      -3.216  -1.502  24.241  0.00  0.00    +0.054 C 
ATOM     13  C   UNL     1      -2.635  -0.214  24.645  0.00  0.00    +0.010 A 
ATOM     28  C   UNL     1      -2.938   0.534  24.819  0.00  0.00    +0.058 A 
ATOM     29  C   UNL     1      -2.498   1.196  25.040  0.00  0.00    +0.052 C 
ENDROOT
BRANCH   9   6
ATOM      3  C   UNL     1      -5.329   2.381  25.093  0.00  0.00    +0.139 A 
ATOM      4  C   UNL     1      -4.763   2.425  24.493  0.00  0.00    +0.038 A 
ATOM      5  C   UNL     1      -4.240   1.799  24.373  0.00  0.00    +0.022 A 
ATOM      6  C   UNL     1      -4.281   1.129  24.853  0.00  0.00    +0.083 A 
ATOM      7  C   UNL     1      -4.846   1.085  25.453  0.00  0.00    +0.022 A 
ATOM      8  C   UNL     1      -5.370   1.711  25.573  0.00  0.00    +0.038 A 
BRANCH   3   2
ATOM      1  C   UNL     1      -5.582   3.714  25.541  0.00  0.00    +0.252 C 
ATOM      2  O   UNL     1      -5.853   3.007  25.213  0.00  0.00    -0.471 OA
ENDBRANCH   3   2
ENDBRANCH   9   6
BRANCH  13  14
ATOM     14  C   UNL     1      -1.839  -0.431  24.662  0.00  0.00    +0.048 C 
ATOM     15  C   UNL     1      -1.296  -0.327  24.049  0.00  0.00    +0.031 C 
ATOM     16  C   UNL     1      -0.568  -0.621  24.303  0.00  0.00    +0.095 C 
ATOM     26  C   UNL     1      -0.661  -0.906  25.071  0.00  0.00    -0.013 C 
ATOM     27  C   UNL     1      -1.447  -0.788  25.293  0.00  0.00    -0.025 C 
BRANCH  16  17
ATOM     17  N   UNL     1       0.131  -0.629  23.865  0.00  0.00    -0.210 NA
BRANCH  17  18
ATOM     18  C   UNL     1       0.368   0.046  23.453  0.00  0.00    +0.115 C 
BRANCH  18  19
ATOM     19  C   UNL     1       1.051   0.030  22.992  0.00  0.00    -0.004 A 
ATOM     20  C   UNL     1       1.059  -0.386  22.280  0.00  0.00    -0.003 A 
ATOM     21  C   UNL     1       1.742  -0.403  21.819  0.00  0.00    +0.001 A 
ATOM     22  C   UNL     1       2.419  -0.003  22.069  0.00  0.00    +0.011 A 
ATOM     23  C   UNL     1       2.411   0.414  22.782  0.00  0.00    +0.057 A 
ATOM     24 CL   UNL     1       3.088   0.815  23.032  0.00  0.00    -0.082 Cl
ATOM     25  C   UNL     1       1.728   0.431  23.243  0.00  0.00    +0.009 A 
ENDBRANCH  18  19
ENDBRANCH  17  18
ENDBRANCH  16  17
ENDBRANCH  13  14
TORSDOF 6
ENDMDL
MODEL 6
REMARK VINA RESULT:     -10.0      3.104      4.768
REMARK  Name = 
REMARK  6 active torsions:
REMARK  status: ('A' for Active; 'I' for Inactive)
REMARK    1  A    between atoms: O_2  and  C_3
REMARK    2  A    between atoms: C_6  and  N_9
REMARK    3  A    between atoms: C_13  and  C_14
REMARK    4  A    between atoms: C_16  and  N_17
REMARK    5  A    between atoms: N_17  and  C_18
REMARK    6  A    between atoms: C_18  and  C_19
REMARK                            x       y       z     vdW  Elec       q    Type
REMARK                         _______ _______ _______ _____ _____    ______ ____
ROOT
ATOM      9  N   UNL     1      -3.040   3.176  25.104  0.00  0.00    -0.234 N 
ATOM     10  N   UNL     1      -2.712   3.932  25.116  0.00  0.00    -0.170 NA
ATOM     11  C   UNL     1      -1.891   3.856  25.083  0.00  0.00    +0.077 A 
ATOM     12  C   UNL     1      -1.346   4.474  25.083  0.00  0.00    +0.054 C 
ATOM     13  C   UNL     1      -1.711   3.052  25.050  0.00  0.00    +0.010 A 
ATOM     28  C   UNL     1      -2.422   2.631  25.063  0.00  0.00    +0.058 A 
ATOM     29  C   UNL     1      -2.499   1.810  25.039  0.00  0.00    +0.052 C 
ENDROOT
BRANCH   9   6
ATOM      3  C   UNL     1      -5.454   2.634  25.176  0.00  0.00    +0.139 A 
ATOM      4  C   UNL     1      -5.023   2.511  24.483  0.00  0.00    +0.038 A 
ATOM      5  C   UNL     1      -4.219   2.692  24.458  0.00  0.00    +0.022 A 
ATOM      6  C   UNL     1      -3.844   2.995  25.128  0.00  0.00    +0.083 A 
ATOM      7  C   UNL     1      -4.274   3.119  25.822  0.00  0.00    +0.022 A 
ATOM      8  C   UNL     1      -5.078   2.938  25.846  0.00  0.00    +0.038 A 
BRANCH   3   2
ATOM      1  C   UNL     1      -6.505   1.667  25.166  0.00  0.00    +0.252 C 
ATOM      2  O   UNL     1      -6.258   2.454  25.201  0.00  0.00    -0.471 OA
ENDBRANCH   3   2
ENDBRANCH   9   6
BRANCH  13  14
ATOM     14  C   UNL     1      -0.955   2.725  25.011  0.00  0.00    +0.048 C 
ATOM     15  C   UNL     1      -0.589   2.430  24.333  0.00  0.00    +0.031 C 
ATOM     16  C   UNL     1       0.160   2.158  24.546  0.00  0.00    +0.095 C 
ATOM     26  C   UNL     1       0.257   2.285  25.355  0.00  0.00    -0.013 C 
ATOM     27  C   UNL     1      -0.432   2.635  25.643  0.00  0.00    -0.025 C 
BRANCH  16  17
ATOM     17  N   UNL     1       0.715   1.819  24.039  0.00  0.00    -0.210 NA
BRANCH  17  18
ATOM     18  C   UNL     1       0.825   1.001  24.035  0.00  0.00    +0.115 C 
BRANCH  18  19
ATOM     19  C   UNL     1       1.276   0.648  23.441  0.00  0.00    -0.004 A 
ATOM     20  C   UNL     1       0.927   0.109  22.923  0.00  0.00    -0.003 A 
ATOM     21  C   UNL     1       1.377  -0.244  22.330  0.00  0.00    +0.001 A 
ATOM     22  C   UNL     1       2.177  -0.057  22.252  0.00  0.00    +0.011 A 
ATOM     23  C   UNL     1       2.527   0.483  22.770  0.00  0.00    +0.057 A 
ATOM     24 CL   UNL     1       3.326   0.669  22.692  0.00  0.00    -0.082 Cl
ATOM     25  C   UNL     1       2.076   0.835  23.363  0.00  0.00    +0.009 A 
ENDBRANCH  18  19
ENDBRANCH  17  18
ENDBRANCH  16  17
ENDBRANCH  13  14
TORSDOF 6
ENDMDL
MODEL 7
REMARK VINA RESULT:      -9.7      2.290      3.185
REMARK  Name = 
REMARK  6 active torsions:
REMARK  status: ('A' for Active; 'I' for Inactive)
REMARK    1  A    between atoms: O_2  and  C_3
REMARK    2  A    between atoms: C_6  and  N_9
REMARK    3  A    between atoms: C_13  and  C_14
REMARK    4  A    between atoms: C_16  and  N_17
REMARK    5  A    between atoms: N_17  and  C_18
REMARK    6  A    between atoms: C_18  and  C_19
REMARK                            x       y       z     vdW  Elec       q    Type
REMARK                         _______ _______ _______ _____ _____    ______ ____
ROOT
ATOM      9  N   UNL     1      -1.227  -0.833  24.211  0.00  0.00    -0.234 N 
ATOM     10  N   UNL     1      -0.592  -0.928  23.694  0.00  0.00    -0.170 NA
ATOM     11  C   UNL     1      -0.150  -0.230  23.702  0.00  0.00    +0.077 A 
ATOM     12  C   UNL     1       0.534  -0.085  23.264  0.00  0.00    +0.054 C 
ATOM     13  C   UNL     1      -0.512   0.295  24.224  0.00  0.00    +0.010 A 
ATOM     28  C   UNL     1      -1.178  -0.078  24.539  0.00  0.00    +0.058 A 
ATOM     29  C   UNL     1      -1.703   0.249  25.086  0.00  0.00    +0.052 C 
ENDROOT
BRANCH   9   6
ATOM      3  C   UNL     1      -2.973  -2.519  24.696  0.00  0.00    +0.139 A 
ATOM      4  C   UNL     1      -3.183  -1.786  24.379  0.00  0.00    +0.038 A 
ATOM      5  C   UNL     1      -2.601  -1.224  24.218  0.00  0.00    +0.022 A 
ATOM      6  C   UNL     1      -1.809  -1.395  24.373  0.00  0.00    +0.083 A 
ATOM      7  C   UNL     1      -1.598  -2.127  24.689  0.00  0.00    +0.022 A 
ATOM      8  C   UNL     1      -2.180  -2.689  24.850  0.00  0.00    +0.038 A 
BRANCH   3   2
ATOM      1  C   UNL     1      -4.118  -3.268  24.283  0.00  0.00    +0.252 C 
ATOM      2  O   UNL     1      -3.555  -3.081  24.857  0.00  0.00    -0.471 OA
ENDBRANCH   3   2
ENDBRANCH   9   6
BRANCH  13  14
ATOM     14  C   UNL     1      -0.255   1.058  24.400  0.00  0.00    +0.048 C 
ATOM     15  C   UNL     1      -0.698   1.750  24.321  0.00  0.00    +0.031 C 
ATOM     16  C   UNL     1      -0.225   2.383  24.559  0.00  0.00    +0.095 C 
ATOM     26  C   UNL     1       0.509   2.084  24.785  0.00  0.00    -0.013 C 
ATOM     27  C   UNL     1       0.491   1.264  24.687  0.00  0.00    -0.025 C 
BRANCH  16  17
ATOM     17  N   UNL     1      -0.449   3.177  24.569  0.00  0.00    -0.210 NA
BRANCH  17  18
ATOM     18  C   UNL     1      -0.634   3.545  25.285  0.00  0.00    +0.115 C 
BRANCH  18  19
ATOM     19  C   UNL     1      -1.170   4.171  25.300  0.00  0.00    -0.004 A 
ATOM     20  C   UNL     1      -0.970   4.895  24.959  0.00  0.00    -0.003 A 
ATOM     21  C   UNL     1      -1.505   5.521  24.974  0.00  0.00    +0.001 A 
ATOM     22  C   UNL     1      -2.243   5.425  25.331  0.00  0.00    +0.011 A 
ATOM     23  C   UNL     1      -2.443   4.701  25.674  0.00  0.00    +0.057 A 
ATOM     24 CL   UNL     1      -3.181   4.605  26.031  0.00  0.00    -0.082 Cl
ATOM     25  C   UNL     1      -1.908   4.075  25.658  0.00  0.00    +0.009 A 
ENDBRANCH  18  19
ENDBRANCH  17  18
ENDBRANCH  16  17
ENDBRANCH  13  14
TORSDOF 6
ENDMDL
MODEL 8
REMARK VINA RESULT:      -9.7      3.061      6.271
REMARK  Name = 
REMARK  6 active torsions:
REMARK  status: ('A' for Active; 'I' for Inactive)
REMARK    1  A    between atoms: O_2  and  C_3
REMARK    2  A    between atoms: C_6  and  N_9
REMARK    3  A    between atoms: C_13  and  C_14
REMARK    4  A    between atoms: C_16  and  N_17
REMARK    5  A    between atoms: N_17  and  C_18
REMARK    6  A    between atoms: C_18  and  C_19
REMARK                            x       y       z     vdW  Elec       q    Type
REMARK                         _______ _______ _______ _____ _____    ______ ____
ROOT
ATOM      9  N   UNL     1      -0.882   2.933  25.452  0.00  0.00    -0.234 N 
ATOM     10  N   UNL     1      -0.521   2.622  26.126  0.00  0.00    -0.170 NA
ATOM     11  C   UNL     1      -0.439   1.808  26.018  0.00  0.00    +0.077 A 
ATOM     12  C   UNL     1      -0.105   1.279  26.556  0.00  0.00    +0.054 C 
ATOM     13  C   UNL     1      -0.749   1.616  25.279  0.00  0.00    +0.010 A 
ATOM     28  C   UNL     1      -1.023   2.311  24.929  0.00  0.00    +0.058 A 
ATOM     29  C   UNL     1      -1.376   2.373  24.186  0.00  0.00    +0.052 C 
ENDROOT
BRANCH   9   6
ATOM      3  C   UNL     1      -1.443   5.313  25.070  0.00  0.00    +0.139 A 
ATOM      4  C   UNL     1      -0.707   5.020  24.839  0.00  0.00    +0.038 A 
ATOM      5  C   UNL     1      -0.520   4.227  24.966  0.00  0.00    +0.022 A 
ATOM      6  C   UNL     1      -1.069   3.726  25.325  0.00  0.00    +0.083 A 
ATOM      7  C   UNL     1      -1.806   4.018  25.556  0.00  0.00    +0.022 A 
ATOM      8  C   UNL     1      -1.993   4.811  25.428  0.00  0.00    +0.038 A 
BRANCH   3   2
ATOM      1  C   UNL     1      -2.297   6.306  24.499  0.00  0.00    +0.252 C 
ATOM      2  O   UNL     1      -1.631   6.106  24.942  0.00  0.00    -0.471 OA
ENDBRANCH   3   2
ENDBRANCH   9   6
BRANCH  13  14
ATOM     14  C   UNL     1      -0.780   0.861  24.947  0.00  0.00    +0.048 C 
ATOM     15  C   UNL     1      -1.372   0.300  25.073  0.00  0.00    +0.031 C 
ATOM     16  C   UNL     1      -1.182  -0.372  24.635  0.00  0.00    +0.095 C 
ATOM     26  C   UNL     1      -0.474  -0.228  24.238  0.00  0.00    -0.013 C 
ATOM     27  C   UNL     1      -0.225   0.535  24.432  0.00  0.00    -0.025 C 
BRANCH  16  17
ATOM     17  N   UNL     1      -1.624  -1.068  24.599  0.00  0.00    -0.210 NA
BRANCH  17  18
ATOM     18  C   UNL     1      -2.389  -1.088  24.911  0.00  0.00    +0.115 C 
BRANCH  18  19
ATOM     19  C   UNL     1      -2.901  -1.703  24.709  0.00  0.00    -0.004 A 
ATOM     20  C   UNL     1      -2.760  -2.466  24.989  0.00  0.00    -0.003 A 
ATOM     21  C   UNL     1      -3.271  -3.080  24.788  0.00  0.00    +0.001 A 
ATOM     22  C   UNL     1      -3.924  -2.932  24.307  0.00  0.00    +0.011 A 
ATOM     23  C   UNL     1      -4.066  -2.168  24.027  0.00  0.00    +0.057 A 
ATOM     24 CL   UNL     1      -4.719  -2.021  23.545  0.00  0.00    -0.082 Cl
ATOM     25  C   UNL     1      -3.555  -1.554  24.228  0.00  0.00    +0.009 A 
ENDBRANCH  18  19
ENDBRANCH  17  18
ENDBRANCH  16  17
ENDBRANCH  13  14
TORSDOF 6
ENDMDL
MODEL 9
REMARK VINA RESULT:      -9.6      4.253      5.430
REMARK  Name = 
REMARK  6 active torsions:
REMARK  status: ('A' for Active; 'I' for Inactive)
REMARK    1  A    between atoms: O_2  and  C_3
REMARK    2  A    between atoms: C_6  and  N_9
REMARK    3  A    between atoms: C_13  and  C_14
REMARK    4  A    between atoms: C_16  and  N_17
REMARK    5  A    between atoms: N_17  and  C_18
REMARK    6  A    between atoms: C_18  and  C_19
REMARK                            x       y       z     vdW  Elec       q    Type
REMARK                         _______ _______ _______ _____ _____    ______ ____
ROOT
ATOM      9  N   UNL     1      -2.021   1.120  24.618  0.00  0.00    -0.234 N 
ATOM     10  N   UNL     1      -1.829   0.538  25.170  0.00  0.00    -0.170 NA
ATOM     11  C   UNL     1      -1.124   0.182  24.932  0.00  0.00    +0.077 A 
ATOM     12  C   UNL     1      -0.733  -0.429  25.324  0.00  0.00    +0.054 C 
ATOM     13  C   UNL     1      -0.880   0.543  24.233  0.00  0.00    +0.010 A 
ATOM     28  C   UNL     1      -1.434   1.123  24.039  0.00  0.00    +0.058 A 
ATOM     29  C   UNL     1      -1.406   1.620  23.380  0.00  0.00    +0.052 C 
ENDROOT
BRANCH   9   6
ATOM      3  C   UNL     1      -4.006   2.596  24.688  0.00  0.00    +0.139 A 
ATOM      4  C   UNL     1      -3.294   2.845  25.024  0.00  0.00    +0.038 A 
ATOM      5  C   UNL     1      -2.632   2.353  25.001  0.00  0.00    +0.022 A 
ATOM      6  C   UNL     1      -2.682   1.612  24.641  0.00  0.00    +0.083 A 
ATOM      7  C   UNL     1      -3.393   1.362  24.305  0.00  0.00    +0.022 A 
ATOM      8  C   UNL     1      -4.055   1.854  24.329  0.00  0.00    +0.038 A 
BRANCH   3   2
ATOM      1  C   UNL     1      -5.110   3.152  25.406  0.00  0.00    +0.252 C 
ATOM      2  O   UNL     1      -4.668   3.088  24.712  0.00  0.00    -0.471 OA
ENDBRANCH   3   2
ENDBRANCH   9   6
BRANCH  13  14
ATOM     14  C   UNL     1      -0.201   0.358  23.802  0.00  0.00    +0.048 C 
ATOM     15  C   UNL     1       0.518   0.763  23.833  0.00  0.00    +0.031 C 
ATOM     16  C   UNL     1       1.041   0.391  23.315  0.00  0.00    +0.095 C 
ATOM     26  C   UNL     1       0.648  -0.243  22.965  0.00  0.00    -0.013 C 
ATOM     27  C   UNL     1      -0.121  -0.263  23.266  0.00  0.00    -0.025 C 
BRANCH  16  17
ATOM     17  N   UNL     1       1.822   0.614  23.173  0.00  0.00    -0.210 NA
BRANCH  17  18
ATOM     18  C   UNL     1       2.367   0.059  22.896  0.00  0.00    +0.115 C 
BRANCH  18  19
ATOM     19  C   UNL     1       3.176   0.218  22.937  0.00  0.00    -0.004 A 
ATOM     20  C   UNL     1       3.477   0.914  22.613  0.00  0.00    -0.003 A 
ATOM     21  C   UNL     1       4.284   1.073  22.654  0.00  0.00    +0.001 A 
ATOM     22  C   UNL     1       4.793   0.536  23.019  0.00  0.00    +0.011 A 
ATOM     23  C   UNL     1       4.492  -0.161  23.344  0.00  0.00    +0.057 A 
ATOM     24 CL   UNL     1       5.000  -0.698  23.709  0.00  0.00    -0.082 Cl
ATOM     25  C   UNL     1       3.684  -0.320  23.303  0.00  0.00    +0.009 A 
ENDBRANCH  18  19
ENDBRANCH  17  18
ENDBRANCH  16  17
ENDBRANCH  13  14
TORSDOF 6
ENDMDL
