REMARK  Name = 
REMARK  4 active torsions:
REMARK  status: ('A' for Active; 'I' for Inactive)
REMARK    1  A    between atoms: O_2  and  C_3
REMARK    2  A    between atoms: C_8  and  C_10
REMARK    3  A    between atoms: N_17  and  C_18
REMARK    4  A    between atoms: C_22  and  O_23
REMARK                            x       y       z     vdW  Elec       q    Type
REMARK                         _______ _______ _______ _____ _____    ______ ____
ROOT
ATOM     10  C   UNL     1      -1.453   1.523   0.000  0.00  0.00    +0.080 C 
ATOM     11  C   UNL     1      -1.938   0.856   0.000  0.00  0.00    +0.031 C 
ATOM     12  C   UNL     1      -2.723   1.110   0.000  0.00  0.00    +0.096 C 
ATOM     13  N   UNL     1      -2.723   1.935   0.000  0.00  0.00    -0.262 N 
ATOM     14  C   UNL     1      -1.938   2.190   0.000  0.00  0.00    +0.103 C 
ATOM     15  C   UNL     1      -3.390   2.420   0.000  0.00  0.00    +0.327 C 
ATOM     16  O   UNL     1      -4.144   2.085   0.000  0.00  0.00    -0.250 OA
ATOM     17  N   UNL     1      -3.304   3.241   0.000  0.00  0.00    -0.162 NA
ENDROOT
BRANCH  10   8
ATOM      3  C   UNL     1       2.070   1.110   0.000  0.00  0.00    +0.140 A 
ATOM      4  C   UNL     1       1.356   0.698   0.000  0.00  0.00    +0.058 A 
ATOM      5  C   UNL     1       0.641   1.110   0.000  0.00  0.00    +0.103 A 
ATOM      6  C   UNL     1       0.641   1.935   0.000  0.00  0.00    +0.100 A 
ATOM      7  N   UNL     1      -0.143   2.190   0.000  0.00  0.00    -0.229 NA
ATOM      8  C   UNL     1      -0.628   1.523   0.000  0.00  0.00    +0.140 A 
ATOM      9  N   UNL     1      -0.143   0.856   0.000  0.00  0.00    -0.229 NA
ATOM     26  C   UNL     1       1.356   2.348   0.000  0.00  0.00    +0.024 A 
ATOM     27  C   UNL     1       2.070   1.935   0.000  0.00  0.00    +0.039 A 
BRANCH   3   2
ATOM      1  C   UNL     1       3.499   1.110   0.000  0.00  0.00    +0.252 C 
ATOM      2  O   UNL     1       2.784   0.698   0.000  0.00  0.00    -0.471 OA
ENDBRANCH   3   2
ENDBRANCH  10   8
BRANCH  17  18
ATOM     18  C   UNL     1      -3.972   3.726   0.000  0.00  0.00    +0.078 A 
ATOM     19  C   UNL     1      -4.725   3.390   0.000  0.00  0.00    +0.017 A 
ATOM     20  C   UNL     1      -5.393   3.875   0.000  0.00  0.00    +0.004 A 
ATOM     21  C   UNL     1      -5.306   4.696   0.000  0.00  0.00    +0.037 A 
ATOM     22  C   UNL     1      -4.553   5.031   0.000  0.00  0.00    +0.140 A 
ATOM     25  C   UNL     1      -3.885   4.546   0.000  0.00  0.00    +0.054 A 
BRANCH  22  23
ATOM     23  O   UNL     1      -4.467   5.852   0.000  0.00  0.00    -0.471 OA
ATOM     24  C   UNL     1      -5.134   6.337   0.000  0.00  0.00    +0.252 C 
ENDBRANCH  22  23
ENDBRANCH  17  18
TORSDOF 4
