MODEL 1
REMARK VINA RESULT:     -11.4      0.000      0.000
REMARK  Name = 
REMARK  6 active torsions:
REMARK  status: ('A' for Active; 'I' for Inactive)
REMARK    1  A    between atoms: C_2  and  C_4
REMARK    2  A    between atoms: C_4  and  C_5
REMARK    3  A    between atoms: C_4  and  N_12
REMARK    4  A    between atoms: C_5  and  C_6
REMARK    5  A    between atoms: C_13  and  C_15
REMARK    6  A    between atoms: C_21  and  C_23
REMARK                            x       y       z     vdW  Elec       q    Type
REMARK                         _______ _______ _______ _____ _____    ______ ____
ROOT
ATOM     12  N   UNL     1      -2.653   0.176  24.284  0.00  0.00    -0.196 NA
ATOM     13  C   UNL     1      -2.711   0.960  24.533  0.00  0.00    +0.261 C 
ATOM     14  O   UNL     1      -2.565   1.156  25.321  0.00  0.00    -0.271 OA
ENDROOT
BRANCH  13  15
ATOM     15  C   UNL     1      -2.915   1.549  23.992  0.00  0.00    +0.171 C 
ATOM     16  C   UNL     1      -2.566   1.562  23.245  0.00  0.00    +0.118 C 
ATOM     17  N   UNL     1      -2.771   2.151  22.704  0.00  0.00    -0.214 NA
ATOM     18  C   UNL     1      -3.323   2.727  22.912  0.00  0.00    +0.110 C 
ATOM     19  C   UNL     1      -3.671   2.715  23.659  0.00  0.00    +0.113 C 
ATOM     20  N   UNL     1      -3.468   2.126  24.200  0.00  0.00    -0.266 N 
ATOM     21  C   UNL     1      -3.816   2.113  24.947  0.00  0.00    +0.255 C 
ATOM     22  O   UNL     1      -3.612   1.524  25.487  0.00  0.00    -0.269 OA
BRANCH  21  23
ATOM     23  C   UNL     1      -4.368   2.689  25.154  0.00  0.00    +0.083 A 
ATOM     24  C   UNL     1      -5.188   2.621  25.090  0.00  0.00    +0.012 A 
ATOM     25  C   UNL     1      -5.525   3.325  25.358  0.00  0.00    +0.008 A 
ATOM     26  C   UNL     1      -4.913   3.829  25.589  0.00  0.00    +0.036 A 
ATOM     27  S   UNL     1      -4.199   3.436  25.463  0.00  0.00    -0.082 S 
ENDBRANCH  21  23
ENDBRANCH  13  15
BRANCH  12   4
ATOM      4  C   UNL     1      -2.449  -0.414  24.825  0.00  0.00    +0.174 C 
BRANCH   4   2
ATOM      1  N   UNL     1      -1.403  -0.587  25.783  0.00  0.00    -0.086 NA
ATOM      2  C   UNL     1      -1.656  -0.559  24.997  0.00  0.00    +0.281 C 
ATOM      3  O   UNL     1      -1.116  -0.676  24.385  0.00  0.00    -0.270 OA
ENDBRANCH   4   2
BRANCH   4   5
ATOM      5  C   UNL     1      -3.040  -0.858  25.193  0.00  0.00    +0.031 C 
BRANCH   5   6
ATOM      6  C   UNL     1      -3.362  -1.513  24.809  0.00  0.00    +0.002 C 
ATOM      7  C   UNL     1      -3.955  -1.412  24.245  0.00  0.00    +0.000 C 
ATOM      8  C   UNL     1      -4.276  -2.067  23.862  0.00  0.00    +0.000 C 
ATOM      9  C   UNL     1      -4.004  -2.825  24.043  0.00  0.00    +0.000 C 
ATOM     10  C   UNL     1      -3.411  -2.927  24.607  0.00  0.00    +0.000 C 
ATOM     11  C   UNL     1      -3.090  -2.271  24.991  0.00  0.00    +0.000 C 
ENDBRANCH   5   6
ENDBRANCH   4   5
ENDBRANCH  12   4
TORSDOF 6
ENDMDL
MODEL 2
REMARK VINA RESULT:     -10.6      1.999      4.691
REMARK  Name = 
REMARK  6 active torsions:
REMARK  status: ('A' for Active; 'I' for Inactive)
REMARK    1  A    between atoms: C_2  and  C_4
REMARK    2  A    between atoms: C_4  and  C_5
REMARK    3  A    between atoms: C_4  and  N_12
REMARK    4  A    between atoms: C_5  and  C_6
REMARK    5  A    between atoms: C_13  and  C_15
REMARK    6  A    between atoms: C_21  and  C_23
REMARK                            x       y       z     vdW  Elec       q    Type
REMARK                         _______ _______ _______ _____ _____    ______ ____
ROOT
ATOM     12  N   UNL     1      -2.065   1.711  24.380  0.00  0.00    -0.196 NA
ATOM     13  C   UNL     1      -2.241   0.998  24.756  0.00  0.00    +0.261 C 
ATOM     14  O   UNL     1      -2.919   0.933  25.221  0.00  0.00    -0.271 OA
ENDROOT
BRANCH  13  15
ATOM     15  C   UNL     1      -1.738   0.351  24.667  0.00  0.00    +0.171 C 
ATOM     16  C   UNL     1      -0.927   0.468  24.573  0.00  0.00    +0.118 C 
ATOM     17  N   UNL     1      -0.424  -0.181  24.484  0.00  0.00    -0.214 NA
ATOM     18  C   UNL     1      -0.733  -0.945  24.490  0.00  0.00    +0.110 C 
ATOM     19  C   UNL     1      -1.543  -1.062  24.584  0.00  0.00    +0.113 C 
ATOM     20  N   UNL     1      -2.046  -0.415  24.673  0.00  0.00    -0.266 N 
ATOM     21  C   UNL     1      -2.858  -0.532  24.767  0.00  0.00    +0.255 C 
ATOM     22  O   UNL     1      -3.360   0.117  24.856  0.00  0.00    -0.269 OA
BRANCH  21  23
ATOM     23  C   UNL     1      -3.165  -1.297  24.773  0.00  0.00    +0.083 A 
ATOM     24  C   UNL     1      -3.152  -1.821  25.410  0.00  0.00    +0.012 A 
ATOM     25  C   UNL     1      -3.520  -2.520  25.173  0.00  0.00    +0.008 A 
ATOM     26  C   UNL     1      -3.761  -2.430  24.389  0.00  0.00    +0.036 A 
ATOM     27  S   UNL     1      -3.542  -1.674  24.142  0.00  0.00    -0.082 S 
ENDBRANCH  21  23
ENDBRANCH  13  15
BRANCH  12   4
ATOM      4  C   UNL     1      -2.568   2.359  24.469  0.00  0.00    +0.174 C 
BRANCH   4   2
ATOM      1  N   UNL     1      -3.902   2.709  24.094  0.00  0.00    -0.086 NA
ATOM      2  C   UNL     1      -3.123   2.534  23.884  0.00  0.00    +0.281 C 
ATOM      3  O   UNL     1      -2.900   2.532  23.090  0.00  0.00    -0.270 OA
ENDBRANCH   4   2
BRANCH   4   5
ATOM      5  C   UNL     1      -2.516   2.833  25.143  0.00  0.00    +0.031 C 
BRANCH   5   6
ATOM      6  C   UNL     1      -2.048   3.513  25.133  0.00  0.00    +0.002 C 
ATOM      7  C   UNL     1      -1.244   3.458  24.956  0.00  0.00    +0.000 C 
ATOM      8  C   UNL     1      -0.777   4.138  24.946  0.00  0.00    +0.000 C 
ATOM      9  C   UNL     1      -1.114   4.873  25.113  0.00  0.00    +0.000 C 
ATOM     10  C   UNL     1      -1.918   4.927  25.290  0.00  0.00    +0.000 C 
ATOM     11  C   UNL     1      -2.385   4.247  25.300  0.00  0.00    +0.000 C 
ENDBRANCH   5   6
ENDBRANCH   4   5
ENDBRANCH  12   4
TORSDOF 6
ENDMDL
MODEL 3
REMARK VINA RESULT:     -10.4      1.534      4.330
REMARK  Name = 
REMARK  6 active torsions:
REMARK  status: ('A' for Active; 'I' for Inactive)
REMARK    1  A    between atoms: C_2  and  C_4
REMARK    2  A    between atoms: C_4  and  C_5
REMARK    3  A    between atoms: C_4  and  N_12
REMARK    4  A    between atoms: C_5  and  C_6
REMARK    5  A    between atoms: C_13  and  C_15
REMARK    6  A    between atoms: C_21  and  C_23
REMARK                            x       y       z     vdW  Elec       q    Type
REMARK                         _______ _______ _______ _____ _____    ______ ____
ROOT
ATOM     12  N   UNL     1      -2.889   1.552  24.596  0.00  0.00    -0.196 NA
ATOM     13  C   UNL     1      -2.578   0.822  24.371  0.00  0.00    +0.261 C 
ATOM     14  O   UNL     1      -2.724   0.527  23.615  0.00  0.00    -0.271 OA
ENDROOT
BRANCH  13  15
ATOM     15  C   UNL     1      -2.120   0.388  24.903  0.00  0.00    +0.171 C 
ATOM     16  C   UNL     1      -1.528   0.762  25.338  0.00  0.00    +0.118 C 
ATOM     17  N   UNL     1      -1.071   0.327  25.870  0.00  0.00    -0.214 NA
ATOM     18  C   UNL     1      -1.206  -0.481  25.966  0.00  0.00    +0.110 C 
ATOM     19  C   UNL     1      -1.798  -0.854  25.530  0.00  0.00    +0.113 C 
ATOM     20  N   UNL     1      -2.256  -0.420  24.999  0.00  0.00    -0.266 N 
ATOM     21  C   UNL     1      -2.848  -0.794  24.563  0.00  0.00    +0.255 C 
ATOM     22  O   UNL     1      -3.305  -0.359  24.031  0.00  0.00    -0.269 OA
BRANCH  21  23
ATOM     23  C   UNL     1      -2.983  -1.602  24.659  0.00  0.00    +0.083 A 
ATOM     24  C   UNL     1      -3.538  -1.945  25.164  0.00  0.00    +0.012 A 
ATOM     25  C   UNL     1      -3.485  -2.764  25.084  0.00  0.00    +0.008 A 
ATOM     26  C   UNL     1      -2.897  -2.929  24.529  0.00  0.00    +0.036 A 
ATOM     27  S   UNL     1      -2.587  -2.210  24.266  0.00  0.00    -0.082 S 
ENDBRANCH  21  23
ENDBRANCH  13  15
BRANCH  12   4
ATOM      4  C   UNL     1      -3.347   1.987  24.065  0.00  0.00    +0.174 C 
BRANCH   4   2
ATOM      1  N   UNL     1      -3.224   2.446  22.717  0.00  0.00    -0.086 NA
ATOM      2  C   UNL     1      -2.982   2.472  23.506  0.00  0.00    +0.281 C 
ATOM      3  O   UNL     1      -2.375   2.982  23.736  0.00  0.00    -0.270 OA
ENDBRANCH   4   2
BRANCH   4   5
ATOM      5  C   UNL     1      -4.171   1.936  24.092  0.00  0.00    +0.031 C 
BRANCH   5   6
ATOM      6  C   UNL     1      -4.588   2.333  24.683  0.00  0.00    +0.002 C 
ATOM      7  C   UNL     1      -4.440   3.131  24.829  0.00  0.00    +0.000 C 
ATOM      8  C   UNL     1      -4.858   3.526  25.420  0.00  0.00    +0.000 C 
ATOM      9  C   UNL     1      -5.423   3.124  25.866  0.00  0.00    +0.000 C 
ATOM     10  C   UNL     1      -5.570   2.325  25.721  0.00  0.00    +0.000 C 
ATOM     11  C   UNL     1      -5.152   1.929  25.129  0.00  0.00    +0.000 C 
ENDBRANCH   5   6
ENDBRANCH   4   5
ENDBRANCH  12   4
TORSDOF 6
ENDMDL
MODEL 4
REMARK VINA RESULT:     -10.4      1.793      2.580
REMARK  Name = 
REMARK  6 active torsions:
REMARK  status: ('A' for Active; 'I' for Inactive)
REMARK    1  A    between atoms: C_2  and  C_4
REMARK    2  A    between atoms: C_4  and  C_5
REMARK    3  A    between atoms: C_4  and  N_12
REMARK    4  A    between atoms: C_5  and  C_6
REMARK    5  A    between atoms: C_13  and  C_15
REMARK    6  A    between atoms: C_21  and  C_23
REMARK                            x       y       z     vdW  Elec       q    Type
REMARK                         _______ _______ _______ _____ _____    ______ ____
ROOT
ATOM     12  N   UNL     1      -2.864   0.515  25.104  0.00  0.00    -0.196 NA
ATOM     13  C   UNL     1      -2.423   1.146  24.807  0.00  0.00    +0.261 C 
ATOM     14  O   UNL     1      -2.677   1.546  24.132  0.00  0.00    -0.271 OA
ENDROOT
BRANCH  13  15
ATOM     15  C   UNL     1      -1.727   1.376  25.186  0.00  0.00    +0.171 C 
ATOM     16  C   UNL     1      -1.208   0.807  25.478  0.00  0.00    +0.118 C 
ATOM     17  N   UNL     1      -0.512   1.038  25.857  0.00  0.00    -0.214 NA
ATOM     18  C   UNL     1      -0.338   1.839  25.945  0.00  0.00    +0.110 C 
ATOM     19  C   UNL     1      -0.857   2.409  25.653  0.00  0.00    +0.113 C 
ATOM     20  N   UNL     1      -1.552   2.178  25.274  0.00  0.00    -0.266 N 
ATOM     21  C   UNL     1      -2.072   2.749  24.983  0.00  0.00    +0.255 C 
ATOM     22  O   UNL     1      -2.768   2.517  24.603  0.00  0.00    -0.269 OA
BRANCH  21  23
ATOM     23  C   UNL     1      -1.897   3.549  25.070  0.00  0.00    +0.083 A 
ATOM     24  C   UNL     1      -1.316   3.967  24.660  0.00  0.00    +0.012 A 
ATOM     25  C   UNL     1      -1.332   4.750  24.920  0.00  0.00    +0.008 A 
ATOM     26  C   UNL     1      -1.923   4.817  25.492  0.00  0.00    +0.036 A 
ATOM     27  S   UNL     1      -2.272   4.075  25.585  0.00  0.00    -0.082 S 
ENDBRANCH  21  23
ENDBRANCH  13  15
BRANCH  12   4
ATOM      4  C   UNL     1      -3.560   0.284  24.725  0.00  0.00    +0.174 C 
BRANCH   4   2
ATOM      1  N   UNL     1      -4.823   0.915  24.507  0.00  0.00    -0.086 NA
ATOM      2  C   UNL     1      -4.290   0.538  25.012  0.00  0.00    +0.281 C 
ATOM      3  O   UNL     1      -4.486   0.416  25.804  0.00  0.00    -0.270 OA
ENDBRANCH   4   2
BRANCH   4   5
ATOM      5  C   UNL     1      -3.524  -0.202  24.058  0.00  0.00    +0.031 C 
BRANCH   5   6
ATOM      6  C   UNL     1      -3.594  -1.019  24.140  0.00  0.00    +0.002 C 
ATOM      7  C   UNL     1      -3.031  -1.440  24.572  0.00  0.00    +0.000 C 
ATOM      8  C   UNL     1      -3.100  -2.258  24.653  0.00  0.00    +0.000 C 
ATOM      9  C   UNL     1      -3.733  -2.655  24.303  0.00  0.00    +0.000 C 
ATOM     10  C   UNL     1      -4.296  -2.235  23.871  0.00  0.00    +0.000 C 
ATOM     11  C   UNL     1      -4.226  -1.416  23.790  0.00  0.00    +0.000 C 
ENDBRANCH   5   6
ENDBRANCH   4   5
ENDBRANCH  12   4
TORSDOF 6
ENDMDL
MODEL 5
REMARK VINA RESULT:     -10.3      2.239      4.510
REMARK  Name = 
REMARK  6 active torsions:
REMARK  status: ('A' for Active; 'I' for Inactive)
REMARK    1  A    between atoms: C_2  and  C_4
REMARK    2  A    between atoms: C_4  and  C_5
REMARK    3  A    between atoms: C_4  and  N_12
REMARK    4  A    between atoms: C_5  and  C_6
REMARK    5  A    between atoms: C_13  and  C_15
REMARK    6  A    between atoms: C_21  and  C_23
REMARK                            x       y       z     vdW  Elec       q    Type
REMARK                         _______ _______ _______ _____ _____    ______ ____
ROOT
ATOM     12  N   UNL     1      -2.241   2.041  24.544  0.00  0.00    -0.196 NA
ATOM     13  C   UNL     1      -2.492   1.345  24.908  0.00  0.00    +0.261 C 
ATOM     14  O   UNL     1      -1.962   0.897  25.354  0.00  0.00    -0.271 OA
ENDROOT
BRANCH  13  15
ATOM     15  C   UNL     1      -3.274   1.096  24.826  0.00  0.00    +0.171 C 
ATOM     16  C   UNL     1      -3.871   1.649  24.692  0.00  0.00    +0.118 C 
ATOM     17  N   UNL     1      -4.654   1.400  24.609  0.00  0.00    -0.214 NA
ATOM     18  C   UNL     1      -4.838   0.597  24.661  0.00  0.00    +0.110 C 
ATOM     19  C   UNL     1      -4.242   0.045  24.795  0.00  0.00    +0.113 C 
ATOM     20  N   UNL     1      -3.459   0.293  24.877  0.00  0.00    -0.266 N 
ATOM     21  C   UNL     1      -2.862  -0.260  25.011  0.00  0.00    +0.255 C 
ATOM     22  O   UNL     1      -2.080  -0.010  25.094  0.00  0.00    -0.269 OA
BRANCH  21  23
ATOM     23  C   UNL     1      -3.047  -1.061  25.063  0.00  0.00    +0.083 A 
ATOM     24  C   UNL     1      -3.313  -1.456  25.737  0.00  0.00    +0.012 A 
ATOM     25  C   UNL     1      -3.429  -2.249  25.540  0.00  0.00    +0.008 A 
ATOM     26  C   UNL     1      -3.235  -2.345  24.744  0.00  0.00    +0.036 A 
ATOM     27  S   UNL     1      -2.999  -1.612  24.449  0.00  0.00    -0.082 S 
ENDBRANCH  21  23
ENDBRANCH  13  15
BRANCH  12   4
ATOM      4  C   UNL     1      -1.458   2.290  24.626  0.00  0.00    +0.174 C 
BRANCH   4   2
ATOM      1  N   UNL     1      -0.157   1.800  24.297  0.00  0.00    -0.086 NA
ATOM      2  C   UNL     1      -0.897   2.080  24.060  0.00  0.00    +0.281 C 
ATOM      3  O   UNL     1      -1.075   2.149  23.257  0.00  0.00    -0.270 OA
ENDBRANCH   4   2
BRANCH   4   5
ATOM      5  C   UNL     1      -1.238   2.751  25.275  0.00  0.00    +0.031 C 
BRANCH   5   6
ATOM      6  C   UNL     1      -1.326   3.570  25.248  0.00  0.00    +0.002 C 
ATOM      7  C   UNL     1      -0.738   4.038  24.907  0.00  0.00    +0.000 C 
ATOM      8  C   UNL     1      -0.826   4.857  24.880  0.00  0.00    +0.000 C 
ATOM      9  C   UNL     1      -1.503   5.210  25.194  0.00  0.00    +0.000 C 
ATOM     10  C   UNL     1      -2.091   4.743  25.535  0.00  0.00    +0.000 C 
ATOM     11  C   UNL     1      -2.003   3.922  25.562  0.00  0.00    +0.000 C 
ENDBRANCH   5   6
ENDBRANCH   4   5
ENDBRANCH  12   4
TORSDOF 6
ENDMDL
