MODEL 1
REMARK VINA RESULT:     -13.6      0.000      0.000
REMARK  Name = 
REMARK  4 active torsions:
REMARK  status: ('A' for Active; 'I' for Inactive)
REMARK    1  A    between atoms: C_2  and  C_5
REMARK    2  A    between atoms: C_12  and  C_14
REMARK    3  A    between atoms: N_17  and  C_18
REMARK    4  A    between atoms: C_18  and  C_19
REMARK                            x       y       z     vdW  Elec       q    Type
REMARK                         _______ _______ _______ _____ _____    ______ ____
ROOT
ATOM      5  C   UNL     1      -1.352   4.415  25.117  0.00  0.00    +0.073 A 
ATOM      6  C   UNL     1      -2.015   4.114  24.730  0.00  0.00    +0.025 A 
ATOM      7  C   UNL     1      -2.152   3.301  24.716  0.00  0.00    +0.100 A 
ATOM      8  C   UNL     1      -1.625   2.788  25.091  0.00  0.00    +0.100 A 
ATOM      9  C   UNL     1      -0.962   3.089  25.479  0.00  0.00    +0.021 A 
ATOM     10  C   UNL     1      -0.826   3.902  25.492  0.00  0.00    +0.005 A 
ATOM     11  N   UNL     1      -1.901   2.018  24.986  0.00  0.00    -0.229 NA
ATOM     12  C   UNL     1      -2.598   2.054  24.547  0.00  0.00    +0.140 A 
ATOM     13  N   UNL     1      -2.753   2.847  24.380  0.00  0.00    -0.229 NA
ENDROOT
BRANCH  12  14
ATOM     14  C   UNL     1      -3.060   1.411  24.316  0.00  0.00    +0.076 C 
ATOM     15  C   UNL     1      -3.169   1.146  23.542  0.00  0.00    +0.026 C 
ATOM     16  C   UNL     1      -3.670   0.491  23.565  0.00  0.00    +0.073 C 
ATOM     17  N   UNL     1      -3.871   0.351  24.352  0.00  0.00    -0.269 NA
ATOM     26  C   UNL     1      -3.494   0.920  24.816  0.00  0.00    +0.080 C 
BRANCH  17  18
ATOM     18  C   UNL     1      -4.362  -0.251  24.628  0.00  0.00    +0.099 C 
BRANCH  18  19
ATOM     19  C   UNL     1      -4.095  -1.032  24.635  0.00  0.00    -0.006 A 
ATOM     20  C   UNL     1      -3.670  -1.318  25.282  0.00  0.00    -0.002 A 
ATOM     21  C   UNL     1      -3.404  -2.098  25.288  0.00  0.00    +0.011 A 
ATOM     22  C   UNL     1      -3.561  -2.593  24.648  0.00  0.00    +0.058 A 
ATOM     23 CL   UNL     1      -3.294  -3.373  24.654  0.00  0.00    -0.082 Cl
ATOM     24  C   UNL     1      -3.986  -2.308  24.000  0.00  0.00    +0.011 A 
ATOM     25  C   UNL     1      -4.253  -1.527  23.994  0.00  0.00    -0.002 A 
ENDBRANCH  18  19
ENDBRANCH  17  18
ENDBRANCH  12  14
BRANCH   5   2
ATOM      1  F   UNL     1      -1.079   6.042  25.144  0.00  0.00    -0.166 F 
ATOM      2  C   UNL     1      -1.216   5.228  25.131  0.00  0.00    +0.419 C 
ATOM      3  F   UNL     1      -1.845   5.326  25.655  0.00  0.00    -0.166 F 
ATOM      4  F   UNL     1      -0.586   5.131  24.606  0.00  0.00    -0.166 F 
ENDBRANCH   5   2
TORSDOF 4
ENDMDL
MODEL 2
REMARK VINA RESULT:     -13.2      3.627      5.967
REMARK  Name = 
REMARK  4 active torsions:
REMARK  status: ('A' for Active; 'I' for Inactive)
REMARK    1  A    between atoms: C_2  and  C_5
REMARK    2  A    between atoms: C_12  and  C_14
REMARK    3  A    between atoms: N_17  and  C_18
REMARK    4  A    between atoms: C_18  and  C_19
REMARK                            x       y       z     vdW  Elec       q    Type
REMARK                         _______ _______ _______ _____ _____    ______ ____
ROOT
ATOM      5  C   UNL     1      -3.562  -2.008  24.436  0.00  0.00    +0.073 A 
ATOM      6  C   UNL     1      -2.796  -1.775  24.631  0.00  0.00    +0.025 A 
ATOM      7  C   UNL     1      -2.595  -0.975  24.631  0.00  0.00    +0.100 A 
ATOM      8  C   UNL     1      -3.161  -0.408  24.437  0.00  0.00    +0.100 A 
ATOM      9  C   UNL     1      -3.929  -0.640  24.242  0.00  0.00    +0.021 A 
ATOM     10  C   UNL     1      -4.129  -1.441  24.242  0.00  0.00    +0.005 A 
ATOM     11  N   UNL     1      -2.805   0.335  24.484  0.00  0.00    -0.229 NA
ATOM     12  C   UNL     1      -2.019   0.227  24.707  0.00  0.00    +0.140 A 
ATOM     13  N   UNL     1      -1.889  -0.583  24.798  0.00  0.00    -0.229 NA
ENDROOT
BRANCH  12  14
ATOM     14  C   UNL     1      -1.460   0.823  24.820  0.00  0.00    +0.076 C 
ATOM     15  C   UNL     1      -0.780   0.942  24.369  0.00  0.00    +0.026 C 
ATOM     16  C   UNL     1      -0.382   1.598  24.673  0.00  0.00    +0.073 C 
ATOM     17  N   UNL     1      -0.817   1.884  25.313  0.00  0.00    -0.269 NA
ATOM     26  C   UNL     1      -1.483   1.405  25.404  0.00  0.00    +0.080 C 
BRANCH  17  18
ATOM     18  C   UNL     1      -0.621   2.535  25.781  0.00  0.00    +0.099 C 
BRANCH  18  19
ATOM     19  C   UNL     1      -0.912   3.283  25.591  0.00  0.00    -0.006 A 
ATOM     20  C   UNL     1      -1.644   3.528  25.884  0.00  0.00    -0.002 A 
ATOM     21  C   UNL     1      -1.934   4.276  25.693  0.00  0.00    +0.011 A 
ATOM     22  C   UNL     1      -1.494   4.779  25.211  0.00  0.00    +0.058 A 
ATOM     23 CL   UNL     1      -1.785   5.527  25.021  0.00  0.00    -0.082 Cl
ATOM     24  C   UNL     1      -0.762   4.535  24.918  0.00  0.00    +0.011 A 
ATOM     25  C   UNL     1      -0.471   3.786  25.108  0.00  0.00    -0.002 A 
ENDBRANCH  18  19
ENDBRANCH  17  18
ENDBRANCH  12  14
BRANCH   5   2
ATOM      1  F   UNL     1      -3.964  -3.608  24.436  0.00  0.00    -0.166 F 
ATOM      2  C   UNL     1      -3.763  -2.808  24.436  0.00  0.00    +0.419 C 
ATOM      3  F   UNL     1      -3.939  -2.764  23.631  0.00  0.00    -0.166 F 
ATOM      4  F   UNL     1      -3.587  -2.853  25.241  0.00  0.00    -0.166 F 
ENDBRANCH   5   2
TORSDOF 4
ENDMDL
MODEL 3
REMARK VINA RESULT:     -13.1      3.575      5.723
REMARK  Name = 
REMARK  4 active torsions:
REMARK  status: ('A' for Active; 'I' for Inactive)
REMARK    1  A    between atoms: C_2  and  C_5
REMARK    2  A    between atoms: C_12  and  C_14
REMARK    3  A    between atoms: N_17  and  C_18
REMARK    4  A    between atoms: C_18  and  C_19
REMARK                            x       y       z     vdW  Elec       q    Type
REMARK                         _______ _______ _______ _____ _____    ______ ____
ROOT
ATOM      5  C   UNL     1      -3.672  -2.160  24.502  0.00  0.00    +0.073 A 
ATOM      6  C   UNL     1      -4.028  -1.510  24.142  0.00  0.00    +0.025 A 
ATOM      7  C   UNL     1      -4.105  -0.799  24.554  0.00  0.00    +0.100 A 
ATOM      8  C   UNL     1      -3.826  -0.739  25.327  0.00  0.00    +0.100 A 
ATOM      9  C   UNL     1      -3.469  -1.390  25.689  0.00  0.00    +0.021 A 
ATOM     10  C   UNL     1      -3.392  -2.100  25.276  0.00  0.00    +0.005 A 
ATOM     11  N   UNL     1      -3.977   0.026  25.595  0.00  0.00    -0.229 NA
ATOM     12  C   UNL     1      -4.351   0.439  24.986  0.00  0.00    +0.140 A 
ATOM     13  N   UNL     1      -4.429  -0.071  24.343  0.00  0.00    -0.229 NA
ENDROOT
BRANCH  12  14
ATOM     14  C   UNL     1      -4.601   1.225  25.016  0.00  0.00    +0.076 C 
ATOM     15  C   UNL     1      -5.318   1.494  25.322  0.00  0.00    +0.026 C 
ATOM     16  C   UNL     1      -5.339   2.315  25.240  0.00  0.00    +0.073 C 
ATOM     17  N   UNL     1      -4.635   2.553  24.883  0.00  0.00    -0.269 NA
ATOM     26  C   UNL     1      -4.179   1.879  24.744  0.00  0.00    +0.080 C 
BRANCH  17  18
ATOM     18  C   UNL     1      -4.423   3.328  24.697  0.00  0.00    +0.099 C 
BRANCH  18  19
ATOM     19  C   UNL     1      -3.692   3.626  24.937  0.00  0.00    -0.006 A 
ATOM     20  C   UNL     1      -3.590   3.897  25.710  0.00  0.00    -0.002 A 
ATOM     21  C   UNL     1      -2.859   4.195  25.949  0.00  0.00    +0.011 A 
ATOM     22  C   UNL     1      -2.229   4.221  25.417  0.00  0.00    +0.058 A 
ATOM     23 CL   UNL     1      -1.499   4.518  25.657  0.00  0.00    -0.082 Cl
ATOM     24  C   UNL     1      -2.331   3.949  24.644  0.00  0.00    +0.011 A 
ATOM     25  C   UNL     1      -3.062   3.651  24.404  0.00  0.00    -0.002 A 
ENDBRANCH  18  19
ENDBRANCH  17  18
ENDBRANCH  12  14
BRANCH   5   2
ATOM      1  F   UNL     1      -3.517  -3.580  23.678  0.00  0.00    -0.166 F 
ATOM      2  C   UNL     1      -3.595  -2.869  24.091  0.00  0.00    +0.419 C 
ATOM      3  F   UNL     1      -4.416  -2.936  24.049  0.00  0.00    -0.166 F 
ATOM      4  F   UNL     1      -2.773  -2.804  24.131  0.00  0.00    -0.166 F 
ENDBRANCH   5   2
TORSDOF 4
ENDMDL
