MODEL 1
REMARK VINA RESULT:     -11.8      0.000      0.000
REMARK  Name = 
REMARK  3 active torsions:
REMARK  status: ('A' for Active; 'I' for Inactive)
REMARK    1  A    between atoms: C_5  and  C_6
REMARK    2  A    between atoms: C_6  and  N_7
REMARK    3  A    between atoms: C_17  and  C_19
REMARK                            x       y       z     vdW  Elec       q    Type
REMARK                         _______ _______ _______ _____ _____    ______ ____
ROOT
ATOM      7  N   UNL     1      -3.988   0.746  24.834  0.00  0.00    -0.258 N 
ATOM      8  C   UNL     1      -3.190   0.763  25.045  0.00  0.00    +0.117 C 
ATOM      9  C   UNL     1      -2.934   1.546  25.008  0.00  0.00    +0.116 C 
ATOM     10  C   UNL     1      -2.201   1.895  25.157  0.00  0.00    +0.115 C 
ATOM     11  N   UNL     1      -2.107   2.710  25.073  0.00  0.00    -0.270 N 
ATOM     12  C   UNL     1      -2.746   3.176  24.839  0.00  0.00    +0.115 C 
ATOM     13  C   UNL     1      -3.479   2.829  24.690  0.00  0.00    +0.116 C 
ATOM     14  N   UNL     1      -3.573   2.013  24.775  0.00  0.00    -0.261 N 
ATOM     15  C   UNL     1      -4.224   1.519  24.667  0.00  0.00    +0.308 C 
ATOM     16  O   UNL     1      -4.979   1.755  24.433  0.00  0.00    -0.252 OA
ATOM     17  C   UNL     1      -1.374   3.059  25.222  0.00  0.00    +0.287 C 
ATOM     18  O   UNL     1      -0.735   2.592  25.455  0.00  0.00    -0.266 OA
ENDROOT
BRANCH  17  19
ATOM     19  C   UNL     1      -1.280   3.873  25.137  0.00  0.00    +0.230 A 
ATOM     20  C   UNL     1      -0.790   4.251  24.592  0.00  0.00    +0.069 A 
ATOM     21  C   UNL     1      -0.866   5.065  24.701  0.00  0.00    +0.144 A 
ATOM     22  N   UNL     1      -1.405   5.191  25.314  0.00  0.00    -0.075 NA
ATOM     23  O   UNL     1      -1.660   4.454  25.583  0.00  0.00    -0.349 OA
ENDBRANCH  17  19
BRANCH   7   6
ATOM      6  C   UNL     1      -4.466   0.075  24.797  0.00  0.00    +0.122 C 
BRANCH   6   5
ATOM      1  F   UNL     1      -3.093  -2.921  24.612  0.00  0.00    -0.204 F 
ATOM      2  C   UNL     1      -3.436  -2.172  24.659  0.00  0.00    +0.140 A 
ATOM      3  C   UNL     1      -3.492  -1.788  25.386  0.00  0.00    +0.029 A 
ATOM      4  C   UNL     1      -3.836  -1.039  25.433  0.00  0.00    -0.000 A 
ATOM      5  C   UNL     1      -4.122  -0.674  24.751  0.00  0.00    -0.002 A 
ATOM     24  C   UNL     1      -4.066  -1.058  24.022  0.00  0.00    -0.000 A 
ATOM     25  C   UNL     1      -3.723  -1.806  23.977  0.00  0.00    +0.029 A 
ENDBRANCH   6   5
ENDBRANCH   7   6
TORSDOF 3
ENDMDL
MODEL 2
REMARK VINA RESULT:     -11.3      2.360      5.029
REMARK  Name = 
REMARK  3 active torsions:
REMARK  status: ('A' for Active; 'I' for Inactive)
REMARK    1  A    between atoms: C_5  and  C_6
REMARK    2  A    between atoms: C_6  and  N_7
REMARK    3  A    between atoms: C_17  and  C_19
REMARK                            x       y       z     vdW  Elec       q    Type
REMARK                         _______ _______ _______ _____ _____    ______ ____
ROOT
ATOM      7  N   UNL     1      -4.028   2.335  24.907  0.00  0.00    -0.258 N 
ATOM      8  C   UNL     1      -3.323   1.931  24.762  0.00  0.00    +0.117 C 
ATOM      9  C   UNL     1      -3.492   1.125  24.740  0.00  0.00    +0.116 C 
ATOM     10  C   UNL     1      -3.014   0.463  24.618  0.00  0.00    +0.115 C 
ATOM     11  N   UNL     1      -3.345  -0.292  24.626  0.00  0.00    -0.270 N 
ATOM     12  C   UNL     1      -4.154  -0.387  24.758  0.00  0.00    +0.115 C 
ATOM     13  C   UNL     1      -4.632   0.274  24.880  0.00  0.00    +0.116 C 
ATOM     14  N   UNL     1      -4.301   1.030  24.871  0.00  0.00    -0.261 N 
ATOM     15  C   UNL     1      -4.632   1.778  24.974  0.00  0.00    +0.308 C 
ATOM     16  O   UNL     1      -5.428   1.941  25.119  0.00  0.00    -0.252 OA
ATOM     17  C   UNL     1      -2.867  -0.954  24.504  0.00  0.00    +0.287 C 
ATOM     18  O   UNL     1      -2.058  -0.859  24.373  0.00  0.00    -0.266 OA
ENDROOT
BRANCH  17  19
ATOM     19  C   UNL     1      -3.197  -1.709  24.513  0.00  0.00    +0.230 A 
ATOM     20  C   UNL     1      -3.149  -2.253  25.131  0.00  0.00    +0.069 A 
ATOM     21  C   UNL     1      -3.556  -2.934  24.905  0.00  0.00    +0.144 A 
ATOM     22  N   UNL     1      -3.857  -2.811  24.146  0.00  0.00    -0.075 NA
ATOM     23  O   UNL     1      -3.635  -2.054  23.904  0.00  0.00    -0.349 OA
ENDBRANCH  17  19
BRANCH   7   6
ATOM      6  C   UNL     1      -4.113   3.153  24.972  0.00  0.00    +0.122 C 
BRANCH   6   5
ATOM      1  F   UNL     1      -1.491   5.039  25.649  0.00  0.00    -0.204 F 
ATOM      2  C   UNL     1      -2.146   4.567  25.479  0.00  0.00    +0.140 A 
ATOM      3  C   UNL     1      -2.345   4.403  24.696  0.00  0.00    +0.029 A 
ATOM      4  C   UNL     1      -3.000   3.931  24.526  0.00  0.00    -0.000 A 
ATOM      5  C   UNL     1      -3.458   3.625  25.141  0.00  0.00    -0.002 A 
ATOM     24  C   UNL     1      -3.259   3.789  25.925  0.00  0.00    -0.000 A 
ATOM     25  C   UNL     1      -2.604   4.261  26.094  0.00  0.00    +0.029 A 
ENDBRANCH   6   5
ENDBRANCH   7   6
TORSDOF 3
ENDMDL
MODEL 3
REMARK VINA RESULT:     -11.0      2.354      5.336
REMARK  Name = 
REMARK  3 active torsions:
REMARK  status: ('A' for Active; 'I' for Inactive)
REMARK    1  A    between atoms: C_5  and  C_6
REMARK    2  A    between atoms: C_6  and  N_7
REMARK    3  A    between atoms: C_17  and  C_19
REMARK                            x       y       z     vdW  Elec       q    Type
REMARK                         _______ _______ _______ _____ _____    ______ ____
ROOT
ATOM      7  N   UNL     1      -1.016   1.636  25.233  0.00  0.00    -0.258 N 
ATOM      8  C   UNL     1      -1.829   1.601  25.373  0.00  0.00    +0.117 C 
ATOM      9  C   UNL     1      -2.095   0.856  25.139  0.00  0.00    +0.116 C 
ATOM     10  C   UNL     1      -2.844   0.510  25.148  0.00  0.00    +0.115 C 
ATOM     11  N   UNL     1      -2.945  -0.261  24.874  0.00  0.00    -0.270 N 
ATOM     12  C   UNL     1      -2.298  -0.686  24.589  0.00  0.00    +0.115 C 
ATOM     13  C   UNL     1      -1.549  -0.340  24.580  0.00  0.00    +0.116 C 
ATOM     14  N   UNL     1      -1.448   0.432  24.855  0.00  0.00    -0.261 N 
ATOM     15  C   UNL     1      -0.781   0.913  24.913  0.00  0.00    +0.308 C 
ATOM     16  O   UNL     1      -0.013   0.708  24.690  0.00  0.00    -0.252 OA
ATOM     17  C   UNL     1      -3.694  -0.608  24.883  0.00  0.00    +0.287 C 
ATOM     18  O   UNL     1      -4.341  -0.183  25.167  0.00  0.00    -0.266 OA
ENDROOT
BRANCH  17  19
ATOM     19  C   UNL     1      -3.795  -1.378  24.608  0.00  0.00    +0.230 A 
ATOM     20  C   UNL     1      -4.131  -1.597  23.886  0.00  0.00    +0.069 A 
ATOM     21  C   UNL     1      -4.122  -2.420  23.839  0.00  0.00    +0.144 A 
ATOM     22  N   UNL     1      -3.780  -2.712  24.532  0.00  0.00    -0.075 NA
ATOM     23  O   UNL     1      -3.579  -2.068  25.007  0.00  0.00    -0.349 OA
ENDBRANCH  17  19
BRANCH   7   6
ATOM      6  C   UNL     1      -0.525   2.281  25.386  0.00  0.00    +0.122 C 
BRANCH   6   5
ATOM      1  F   UNL     1      -1.659   5.354  24.980  0.00  0.00    -0.204 F 
ATOM      2  C   UNL     1      -1.376   4.585  25.082  0.00  0.00    +0.140 A 
ATOM      3  C   UNL     1      -1.563   4.164  25.765  0.00  0.00    +0.029 A 
ATOM      4  C   UNL     1      -1.279   3.396  25.868  0.00  0.00    -0.000 A 
ATOM      5  C   UNL     1      -0.809   3.049  25.285  0.00  0.00    -0.002 A 
ATOM     24  C   UNL     1      -0.622   3.471  24.601  0.00  0.00    -0.000 A 
ATOM     25  C   UNL     1      -0.905   4.239  24.500  0.00  0.00    +0.029 A 
ENDBRANCH   6   5
ENDBRANCH   7   6
TORSDOF 3
ENDMDL
MODEL 4
REMARK VINA RESULT:     -10.7      1.365      1.920
REMARK  Name = 
REMARK  3 active torsions:
REMARK  status: ('A' for Active; 'I' for Inactive)
REMARK    1  A    between atoms: C_5  and  C_6
REMARK    2  A    between atoms: C_6  and  N_7
REMARK    3  A    between atoms: C_17  and  C_19
REMARK                            x       y       z     vdW  Elec       q    Type
REMARK                         _______ _______ _______ _____ _____    ______ ____
ROOT
ATOM      7  N   UNL     1      -2.478  -0.451  25.466  0.00  0.00    -0.258 N 
ATOM      8  C   UNL     1      -2.909   0.176  25.145  0.00  0.00    +0.117 C 
ATOM      9  C   UNL     1      -2.413   0.833  25.107  0.00  0.00    +0.116 C 
ATOM     10  C   UNL     1      -2.536   1.604  24.840  0.00  0.00    +0.115 C 
ATOM     11  N   UNL     1      -1.923   2.154  24.869  0.00  0.00    -0.270 N 
ATOM     12  C   UNL     1      -1.185   1.934  25.166  0.00  0.00    +0.115 C 
ATOM     13  C   UNL     1      -1.061   1.164  25.433  0.00  0.00    +0.116 C 
ATOM     14  N   UNL     1      -1.675   0.613  25.403  0.00  0.00    -0.261 N 
ATOM     15  C   UNL     1      -1.715  -0.180  25.625  0.00  0.00    +0.308 C 
ATOM     16  O   UNL     1      -1.101  -0.625  25.950  0.00  0.00    -0.252 OA
ATOM     17  C   UNL     1      -2.047   2.925  24.602  0.00  0.00    +0.287 C 
ATOM     18  O   UNL     1      -2.784   3.145  24.306  0.00  0.00    -0.266 OA
ENDROOT
BRANCH  17  19
ATOM     19  C   UNL     1      -1.434   3.475  24.632  0.00  0.00    +0.230 A 
ATOM     20  C   UNL     1      -1.384   4.120  25.144  0.00  0.00    +0.069 A 
ATOM     21  C   UNL     1      -0.681   4.521  24.983  0.00  0.00    +0.144 A 
ATOM     22  N   UNL     1      -0.296   4.125  24.369  0.00  0.00    -0.075 NA
ATOM     23  O   UNL     1      -0.761   3.478  24.153  0.00  0.00    -0.349 OA
ENDBRANCH  17  19
BRANCH   7   6
ATOM      6  C   UNL     1      -2.760  -1.214  25.603  0.00  0.00    +0.122 C 
BRANCH   6   5
ATOM      1  F   UNL     1      -4.507  -2.773  23.278  0.00  0.00    -0.204 F 
ATOM      2  C   UNL     1      -4.071  -2.382  23.859  0.00  0.00    +0.140 A 
ATOM      3  C   UNL     1      -4.396  -1.737  24.256  0.00  0.00    +0.029 A 
ATOM      4  C   UNL     1      -3.960  -1.347  24.838  0.00  0.00    -0.000 A 
ATOM      5  C   UNL     1      -3.198  -1.603  25.022  0.00  0.00    -0.002 A 
ATOM     24  C   UNL     1      -2.871  -2.249  24.624  0.00  0.00    -0.000 A 
ATOM     25  C   UNL     1      -3.309  -2.638  24.043  0.00  0.00    +0.029 A 
ENDBRANCH   6   5
ENDBRANCH   7   6
TORSDOF 3
ENDMDL
MODEL 5
REMARK VINA RESULT:      -9.2     15.976     18.328
REMARK  Name = 
REMARK  3 active torsions:
REMARK  status: ('A' for Active; 'I' for Inactive)
REMARK    1  A    between atoms: C_5  and  C_6
REMARK    2  A    between atoms: C_6  and  N_7
REMARK    3  A    between atoms: C_17  and  C_19
REMARK                            x       y       z     vdW  Elec       q    Type
REMARK                         _______ _______ _______ _____ _____    ______ ____
ROOT
ATOM      7  N   UNL     1      12.290   7.732  19.916  0.00  0.00    -0.258 N 
ATOM      8  C   UNL     1      12.790   7.438  20.502  0.00  0.00    +0.117 C 
ATOM      9  C   UNL     1      13.501   7.221  20.145  0.00  0.00    +0.116 C 
ATOM     10  C   UNL     1      14.196   6.898  20.450  0.00  0.00    +0.115 C 
ATOM     11  N   UNL     1      14.830   6.735  19.949  0.00  0.00    -0.270 N 
ATOM     12  C   UNL     1      14.769   6.895  19.142  0.00  0.00    +0.115 C 
ATOM     13  C   UNL     1      14.075   7.218  18.836  0.00  0.00    +0.116 C 
ATOM     14  N   UNL     1      13.440   7.381  19.338  0.00  0.00    -0.261 N 
ATOM     15  C   UNL     1      12.692   7.697  19.196  0.00  0.00    +0.308 C 
ATOM     16  O   UNL     1      12.397   7.936  18.464  0.00  0.00    -0.252 OA
ATOM     17  C   UNL     1      15.526   6.412  20.253  0.00  0.00    +0.287 C 
ATOM     18  O   UNL     1      15.587   6.252  21.060  0.00  0.00    -0.266 OA
ENDROOT
BRANCH  17  19
ATOM     19  C   UNL     1      16.160   6.250  19.752  0.00  0.00    +0.230 A 
ATOM     20  C   UNL     1      16.903   6.606  19.778  0.00  0.00    +0.069 A 
ATOM     21  C   UNL     1      17.365   6.279  19.178  0.00  0.00    +0.144 A 
ATOM     22  N   UNL     1      16.907   5.719  18.781  0.00  0.00    -0.075 NA
ATOM     23  O   UNL     1      16.162   5.701  19.135  0.00  0.00    -0.349 OA
ENDBRANCH  17  19
BRANCH   7   6
ATOM      6  C   UNL     1      11.522   8.012  20.029  0.00  0.00    +0.122 C 
BRANCH   6   5
ATOM      1  F   UNL     1      10.324   8.359  23.085  0.00  0.00    -0.204 F 
ATOM      2  C   UNL     1      10.624   8.272  22.321  0.00  0.00    +0.140 A 
ATOM      3  C   UNL     1      10.563   7.547  21.934  0.00  0.00    +0.029 A 
ATOM      4  C   UNL     1      10.862   7.459  21.170  0.00  0.00    -0.000 A 
ATOM      5  C   UNL     1      11.222   8.098  20.793  0.00  0.00    -0.002 A 
ATOM     24  C   UNL     1      11.284   8.825  21.180  0.00  0.00    -0.000 A 
ATOM     25  C   UNL     1      10.984   8.911  21.944  0.00  0.00    +0.029 A 
ENDBRANCH   6   5
ENDBRANCH   7   6
TORSDOF 3
ENDMDL
MODEL 6
REMARK VINA RESULT:      -8.7     17.598     19.055
REMARK  Name = 
REMARK  3 active torsions:
REMARK  status: ('A' for Active; 'I' for Inactive)
REMARK    1  A    between atoms: C_5  and  C_6
REMARK    2  A    between atoms: C_6  and  N_7
REMARK    3  A    between atoms: C_17  and  C_19
REMARK                            x       y       z     vdW  Elec       q    Type
REMARK                         _______ _______ _______ _____ _____    ______ ____
ROOT
ATOM      7  N   UNL     1      14.284   6.848  20.128  0.00  0.00    -0.258 N 
ATOM      8  C   UNL     1      14.448   7.128  19.369  0.00  0.00    +0.117 C 
ATOM      9  C   UNL     1      13.731   7.316  19.007  0.00  0.00    +0.116 C 
ATOM     10  C   UNL     1      13.552   7.615  18.259  0.00  0.00    +0.115 C 
ATOM     11  N   UNL     1      12.767   7.751  18.046  0.00  0.00    -0.270 N 
ATOM     12  C   UNL     1      12.160   7.587  18.581  0.00  0.00    +0.115 C 
ATOM     13  C   UNL     1      12.339   7.288  19.329  0.00  0.00    +0.116 C 
ATOM     14  N   UNL     1      13.125   7.153  19.542  0.00  0.00    -0.261 N 
ATOM     15  C   UNL     1      13.467   6.864  20.234  0.00  0.00    +0.308 C 
ATOM     16  O   UNL     1      13.062   6.630  20.915  0.00  0.00    -0.252 OA
ATOM     17  C   UNL     1      12.587   8.050  17.299  0.00  0.00    +0.287 C 
ATOM     18  O   UNL     1      13.194   8.213  16.764  0.00  0.00    -0.266 OA
ENDROOT
BRANCH  17  19
ATOM     19  C   UNL     1      11.802   8.185  17.086  0.00  0.00    +0.230 A 
ATOM     20  C   UNL     1      11.421   8.917  17.076  0.00  0.00    +0.069 A 
ATOM     21  C   UNL     1      10.644   8.797  16.829  0.00  0.00    +0.144 A 
ATOM     22  N   UNL     1      10.543   7.990  16.686  0.00  0.00    -0.075 NA
ATOM     23  O   UNL     1      11.259   7.612  16.845  0.00  0.00    -0.349 OA
ENDBRANCH  17  19
BRANCH   7   6
ATOM      6  C   UNL     1      14.841   6.597  20.683  0.00  0.00    +0.122 C 
BRANCH   6   5
ATOM      1  F   UNL     1      17.405   8.531  21.442  0.00  0.00    -0.204 F 
ATOM      2  C   UNL     1      16.764   8.048  21.252  0.00  0.00    +0.140 A 
ATOM      3  C   UNL     1      16.026   8.188  21.593  0.00  0.00    +0.029 A 
ATOM      4  C   UNL     1      15.385   7.705  21.404  0.00  0.00    -0.000 A 
ATOM      5  C   UNL     1      15.482   7.081  20.873  0.00  0.00    -0.002 A 
ATOM     24  C   UNL     1      16.220   6.940  20.531  0.00  0.00    -0.000 A 
ATOM     25  C   UNL     1      16.861   7.424  20.721  0.00  0.00    +0.029 A 
ENDBRANCH   6   5
ENDBRANCH   7   6
TORSDOF 3
ENDMDL
MODEL 7
REMARK VINA RESULT:      -8.4     16.144     18.760
REMARK  Name = 
REMARK  3 active torsions:
REMARK  status: ('A' for Active; 'I' for Inactive)
REMARK    1  A    between atoms: C_5  and  C_6
REMARK    2  A    between atoms: C_6  and  N_7
REMARK    3  A    between atoms: C_17  and  C_19
REMARK                            x       y       z     vdW  Elec       q    Type
REMARK                         _______ _______ _______ _____ _____    ______ ____
ROOT
ATOM      7  N   UNL     1      15.236   7.562  20.498  0.00  0.00    -0.258 N 
ATOM      8  C   UNL     1      14.626   7.202  20.075  0.00  0.00    +0.117 C 
ATOM      9  C   UNL     1      13.929   7.295  20.506  0.00  0.00    +0.116 C 
ATOM     10  C   UNL     1      13.153   7.054  20.362  0.00  0.00    +0.115 C 
ATOM     11  N   UNL     1      12.558   7.230  20.904  0.00  0.00    -0.270 N 
ATOM     12  C   UNL     1      12.738   7.648  21.592  0.00  0.00    +0.115 C 
ATOM     13  C   UNL     1      13.513   7.890  21.738  0.00  0.00    +0.116 C 
ATOM     14  N   UNL     1      14.109   7.713  21.194  0.00  0.00    -0.261 N 
ATOM     15  C   UNL     1      14.916   7.878  21.189  0.00  0.00    +0.308 C 
ATOM     16  O   UNL     1      15.332   8.288  21.773  0.00  0.00    -0.252 OA
ATOM     17  C   UNL     1      11.782   6.989  20.759  0.00  0.00    +0.287 C 
ATOM     18  O   UNL     1      11.602   6.571  20.071  0.00  0.00    -0.266 OA
ENDROOT
BRANCH  17  19
ATOM     19  C   UNL     1      11.187   7.165  21.301  0.00  0.00    +0.230 A 
ATOM     20  C   UNL     1      10.715   7.842  21.302  0.00  0.00    +0.069 A 
ATOM     21  C   UNL     1      10.195   7.791  21.940  0.00  0.00    +0.144 A 
ATOM     22  N   UNL     1      10.345   7.081  22.335  0.00  0.00    -0.075 NA
ATOM     23  O   UNL     1      10.958   6.695  21.940  0.00  0.00    -0.349 OA
ENDBRANCH  17  19
BRANCH   7   6
ATOM      6  C   UNL     1      16.028   7.600  20.268  0.00  0.00    +0.122 C 
BRANCH   6   5
ATOM      1  F   UNL     1      17.397   5.077  18.640  0.00  0.00    -0.204 F 
ATOM      2  C   UNL     1      17.055   5.708  19.048  0.00  0.00    +0.140 A 
ATOM      3  C   UNL     1      17.217   5.819  19.849  0.00  0.00    +0.029 A 
ATOM      4  C   UNL     1      16.875   6.449  20.256  0.00  0.00    -0.000 A 
ATOM      5  C   UNL     1      16.371   6.969  19.862  0.00  0.00    -0.002 A 
ATOM     24  C   UNL     1      16.208   6.859  19.060  0.00  0.00    -0.000 A 
ATOM     25  C   UNL     1      16.551   6.228  18.654  0.00  0.00    +0.029 A 
ENDBRANCH   6   5
ENDBRANCH   7   6
TORSDOF 3
ENDMDL
