MODEL 1
REMARK VINA RESULT:     -20.7      0.000      0.000
REMARK  Name = 
REMARK  2 active torsions:
REMARK  status: ('A' for Active; 'I' for Inactive)
REMARK    1  A    between atoms: C_2  and  C_3
REMARK    2  A    between atoms: C_18  and  C_19
REMARK                            x       y       z     vdW  Elec       q    Type
REMARK                         _______ _______ _______ _____ _____    ______ ____
ROOT
ATOM      1  O   UNL     1      -2.173   1.824  23.016  0.00  0.00    -0.275 OA
ATOM      2  C   UNL     1      -2.835   1.712  23.589  0.00  0.00    +0.225 C 
ATOM      9  N   UNL     1      -3.266   2.438  23.772  0.00  0.00    -0.279 N 
ATOM     10  C   UNL     1      -3.373   3.259  23.665  0.00  0.00    +0.095 C 
ATOM     11  C   UNL     1      -4.143   3.406  24.266  0.00  0.00    +0.043 C 
ATOM     12  C   UNL     1      -4.764   3.688  24.711  0.00  0.00    +0.011 C 
ATOM     13  C   UNL     1      -4.447   3.073  24.595  0.00  0.00    +0.058 C 
ATOM     14  C   UNL     1      -3.702   2.948  24.011  0.00  0.00    +0.099 C 
ATOM     15  C   UNL     1      -4.483   2.187  24.835  0.00  0.00    +0.041 A 
ATOM     16  C   UNL     1      -4.913   1.670  25.312  0.00  0.00    +0.013 A 
ATOM     17  C   UNL     1      -4.714   0.870  25.337  0.00  0.00    +0.006 A 
ATOM     18  C   UNL     1      -4.084   0.587  24.885  0.00  0.00    +0.056 A 
ATOM     29  C   UNL     1      -3.654   1.104  24.408  0.00  0.00    +0.261 A 
ATOM     30  O   UNL     1      -2.876   0.861  23.824  0.00  0.00    -0.267 OA
ATOM     31  N   UNL     1      -3.854   1.904  24.383  0.00  0.00    -0.299 N 
ATOM     32  C   UNL     1      -4.173   2.478  24.511  0.00  0.00    +0.110 C 
ENDROOT
BRANCH  18  19
ATOM     19  C   UNL     1      -3.886  -0.213  24.911  0.00  0.00    +0.005 A 
ATOM     20  C   UNL     1      -3.399  -0.498  25.513  0.00  0.00    +0.000 A 
ATOM     21  C   UNL     1      -3.199  -1.298  25.540  0.00  0.00    +0.000 A 
ATOM     22  C   UNL     1      -3.487  -1.813  24.964  0.00  0.00    +0.000 A 
ATOM     23  C   UNL     1      -3.288  -2.614  24.990  0.00  0.00    +0.000 A 
ATOM     24  C   UNL     1      -3.576  -3.130  24.413  0.00  0.00    +0.000 A 
ATOM     25  C   UNL     1      -4.062  -2.845  23.811  0.00  0.00    +0.000 A 
ATOM     26  C   UNL     1      -4.262  -2.045  23.785  0.00  0.00    +0.000 A 
ATOM     27  C   UNL     1      -3.974  -1.530  24.361  0.00  0.00    +0.000 A 
ATOM     28  C   UNL     1      -4.173  -0.729  24.335  0.00  0.00    +0.000 A 
ENDBRANCH  18  19
BRANCH   2   3
ATOM      3  C   UNL     1      -3.255   1.044  24.093  0.00  0.00    +0.077 C 
ATOM      4  C   UNL     1      -2.829   0.802  24.756  0.00  0.00    +0.009 C 
ATOM      5  C   UNL     1      -2.993   0.378  25.162  0.00  0.00    +0.000 C 
ATOM      6  C   UNL     1      -4.080  -0.370  25.215  0.00  0.00    +0.000 C 
ATOM      7  C   UNL     1      -4.363   0.036  24.462  0.00  0.00    +0.000 C 
ATOM      8  C   UNL     1      -3.986   0.703  23.923  0.00  0.00    +0.009 C 
ENDBRANCH   2   3
TORSDOF 2
ENDMDL
MODEL 2
REMARK VINA RESULT:     -20.0      1.077      1.716
REMARK  Name = 
REMARK  2 active torsions:
REMARK  status: ('A' for Active; 'I' for Inactive)
REMARK    1  A    between atoms: C_2  and  C_3
REMARK    2  A    between atoms: C_18  and  C_19
REMARK                            x       y       z     vdW  Elec       q    Type
REMARK                         _______ _______ _______ _____ _____    ______ ____
ROOT
ATOM      1  O   UNL     1      -6.250   1.969  25.000  0.00  0.00    -0.275 OA
ATOM      2  C   UNL     1      -5.372   1.889  24.965  0.00  0.00    +0.225 C 
ATOM      9  N   UNL     1      -4.946   2.621  25.131  0.00  0.00    -0.279 N 
ATOM     10  C   UNL     1      -4.957   3.434  25.324  0.00  0.00    +0.095 C 
ATOM     11  C   UNL     1      -3.986   3.612  25.349  0.00  0.00    +0.043 C 
ATOM     12  C   UNL     1      -3.233   3.917  25.408  0.00  0.00    +0.011 C 
ATOM     13  C   UNL     1      -3.532   3.299  25.266  0.00  0.00    +0.058 C 
ATOM     14  C   UNL     1      -4.474   3.142  25.246  0.00  0.00    +0.099 C 
ATOM     15  C   UNL     1      -3.323   2.429  25.056  0.00  0.00    +0.041 A 
ATOM     16  C   UNL     1      -2.672   1.939  24.928  0.00  0.00    +0.013 A 
ATOM     17  C   UNL     1      -2.785   1.144  24.741  0.00  0.00    +0.006 A 
ATOM     18  C   UNL     1      -3.549   0.838  24.682  0.00  0.00    +0.056 A 
ATOM     29  C   UNL     1      -4.200   1.327  24.810  0.00  0.00    +0.261 A 
ATOM     30  O   UNL     1      -5.163   1.054  24.763  0.00  0.00    -0.267 OA
ATOM     31  N   UNL     1      -4.087   2.123  24.997  0.00  0.00    -0.299 N 
ATOM     32  C   UNL     1      -3.778   2.701  25.129  0.00  0.00    +0.110 C 
ENDROOT
BRANCH  18  19
ATOM     19  C   UNL     1      -3.661   0.042  24.495  0.00  0.00    +0.005 A 
ATOM     20  C   UNL     1      -4.023  -0.167  23.784  0.00  0.00    +0.000 A 
ATOM     21  C   UNL     1      -4.136  -0.962  23.596  0.00  0.00    +0.000 A 
ATOM     22  C   UNL     1      -3.885  -1.549  24.119  0.00  0.00    +0.000 A 
ATOM     23  C   UNL     1      -3.997  -2.345  23.931  0.00  0.00    +0.000 A 
ATOM     24  C   UNL     1      -3.746  -2.931  24.455  0.00  0.00    +0.000 A 
ATOM     25  C   UNL     1      -3.384  -2.722  25.166  0.00  0.00    +0.000 A 
ATOM     26  C   UNL     1      -3.271  -1.927  25.353  0.00  0.00    +0.000 A 
ATOM     27  C   UNL     1      -3.522  -1.340  24.830  0.00  0.00    +0.000 A 
ATOM     28  C   UNL     1      -3.410  -0.544  25.018  0.00  0.00    +0.000 A 
ENDBRANCH  18  19
BRANCH   2   3
ATOM      3  C   UNL     1      -4.706   1.251  24.801  0.00  0.00    +0.077 C 
ATOM      4  C   UNL     1      -4.572   0.731  25.428  0.00  0.00    +0.009 C 
ATOM      5  C   UNL     1      -4.169   0.275  25.445  0.00  0.00    +0.000 C 
ATOM      6  C   UNL     1      -3.309  -0.133  24.531  0.00  0.00    +0.000 C 
ATOM      7  C   UNL     1      -3.612   0.522  23.992  0.00  0.00    +0.000 C 
ATOM      8  C   UNL     1      -4.269   1.181  24.106  0.00  0.00    +0.009 C 
ENDBRANCH   2   3
TORSDOF 2
ENDMDL
MODEL 3
REMARK VINA RESULT:     -19.6      1.206      3.970
REMARK  Name = 
REMARK  2 active torsions:
REMARK  status: ('A' for Active; 'I' for Inactive)
REMARK    1  A    between atoms: C_2  and  C_3
REMARK    2  A    between atoms: C_18  and  C_19
REMARK                            x       y       z     vdW  Elec       q    Type
REMARK                         _______ _______ _______ _____ _____    ______ ____
ROOT
ATOM      1  O   UNL     1      -1.616  -0.641  26.009  0.00  0.00    -0.275 OA
ATOM      2  C   UNL     1      -2.331  -0.720  25.498  0.00  0.00    +0.225 C 
ATOM      9  N   UNL     1      -2.495  -1.529  25.245  0.00  0.00    -0.279 N 
ATOM     10  C   UNL     1      -2.292  -2.340  25.248  0.00  0.00    +0.095 C 
ATOM     11  C   UNL     1      -3.020  -2.694  24.681  0.00  0.00    +0.043 C 
ATOM     12  C   UNL     1      -3.544  -3.136  24.240  0.00  0.00    +0.011 C 
ATOM     13  C   UNL     1      -3.454  -2.463  24.418  0.00  0.00    +0.058 C 
ATOM     14  C   UNL     1      -2.745  -2.136  24.968  0.00  0.00    +0.099 C 
ATOM     15  C   UNL     1      -3.826  -1.631  24.302  0.00  0.00    +0.041 A 
ATOM     16  C   UNL     1      -4.459  -1.259  23.925  0.00  0.00    +0.013 A 
ATOM     17  C   UNL     1      -4.559  -0.443  23.995  0.00  0.00    +0.006 A 
ATOM     18  C   UNL     1      -4.026   0.001  24.442  0.00  0.00    +0.056 A 
ATOM     29  C   UNL     1      -3.394  -0.371  24.818  0.00  0.00    +0.261 A 
ATOM     30  O   UNL     1      -2.695   0.077  25.381  0.00  0.00    -0.267 OA
ATOM     31  N   UNL     1      -3.294  -1.186  24.748  0.00  0.00    -0.299 N 
ATOM     32  C   UNL     1      -3.401  -1.821  24.565  0.00  0.00    +0.110 C 
ENDROOT
BRANCH  18  19
ATOM     19  C   UNL     1      -4.127   0.816  24.511  0.00  0.00    +0.005 A 
ATOM     20  C   UNL     1      -3.707   1.327  24.018  0.00  0.00    +0.000 A 
ATOM     21  C   UNL     1      -3.807   2.143  24.086  0.00  0.00    +0.000 A 
ATOM     22  C   UNL     1      -4.327   2.448  24.649  0.00  0.00    +0.000 A 
ATOM     23  C   UNL     1      -4.428   3.265  24.718  0.00  0.00    +0.000 A 
ATOM     24  C   UNL     1      -4.948   3.570  25.282  0.00  0.00    +0.000 A 
ATOM     25  C   UNL     1      -5.368   3.060  25.775  0.00  0.00    +0.000 A 
ATOM     26  C   UNL     1      -5.268   2.244  25.706  0.00  0.00    +0.000 A 
ATOM     27  C   UNL     1      -4.748   1.938  25.143  0.00  0.00    +0.000 A 
ATOM     28  C   UNL     1      -4.647   1.122  25.074  0.00  0.00    +0.000 A 
ENDBRANCH  18  19
BRANCH   2   3
ATOM      3  C   UNL     1      -3.011  -0.203  25.114  0.00  0.00    +0.077 C 
ATOM      4  C   UNL     1      -2.775   0.231  24.453  0.00  0.00    +0.009 C 
ATOM      5  C   UNL     1      -3.120   0.603  24.117  0.00  0.00    +0.000 C 
ATOM      6  C   UNL     1      -4.395   0.921  24.242  0.00  0.00    +0.000 C 
ATOM      7  C   UNL     1      -4.432   0.378  24.960  0.00  0.00    +0.000 C 
ATOM      8  C   UNL     1      -3.789  -0.157  25.382  0.00  0.00    +0.009 C 
ENDBRANCH   2   3
TORSDOF 2
ENDMDL
MODEL 4
REMARK VINA RESULT:     -18.3      1.650      2.530
REMARK  Name = 
REMARK  2 active torsions:
REMARK  status: ('A' for Active; 'I' for Inactive)
REMARK    1  A    between atoms: C_2  and  C_3
REMARK    2  A    between atoms: C_18  and  C_19
REMARK                            x       y       z     vdW  Elec       q    Type
REMARK                         _______ _______ _______ _____ _____    ______ ____
ROOT
ATOM      1  O   UNL     1      -4.330   3.654  25.831  0.00  0.00    -0.275 OA
ATOM      2  C   UNL     1      -3.594   3.342  25.456  0.00  0.00    +0.225 C 
ATOM      9  N   UNL     1      -2.938   3.903  25.448  0.00  0.00    -0.279 N 
ATOM     10  C   UNL     1      -2.634   4.659  25.635  0.00  0.00    +0.095 C 
ATOM     11  C   UNL     1      -1.717   4.560  25.280  0.00  0.00    +0.043 C 
ATOM     12  C   UNL     1      -0.941   4.638  25.043  0.00  0.00    +0.011 C 
ATOM     13  C   UNL     1      -1.442   4.146  25.026  0.00  0.00    +0.058 C 
ATOM     14  C   UNL     1      -2.325   4.257  25.373  0.00  0.00    +0.099 C 
ATOM     15  C   UNL     1      -1.597   3.285  24.746  0.00  0.00    +0.041 A 
ATOM     16  C   UNL     1      -1.218   2.655  24.372  0.00  0.00    +0.013 A 
ATOM     17  C   UNL     1      -1.625   1.949  24.240  0.00  0.00    +0.006 A 
ATOM     18  C   UNL     1      -2.410   1.874  24.481  0.00  0.00    +0.056 A 
ATOM     29  C   UNL     1      -2.789   2.504  24.855  0.00  0.00    +0.261 A 
ATOM     30  O   UNL     1      -3.735   2.512  25.185  0.00  0.00    -0.267 OA
ATOM     31  N   UNL     1      -2.383   3.209  24.988  0.00  0.00    -0.299 N 
ATOM     32  C   UNL     1      -1.888   3.660  24.992  0.00  0.00    +0.110 C 
ENDROOT
BRANCH  18  19
ATOM     19  C   UNL     1      -2.816   1.168  24.348  0.00  0.00    +0.005 A 
ATOM     20  C   UNL     1      -3.216   1.051  23.636  0.00  0.00    +0.000 A 
ATOM     21  C   UNL     1      -3.622   0.345  23.503  0.00  0.00    +0.000 A 
ATOM     22  C   UNL     1      -3.627  -0.243  24.081  0.00  0.00    +0.000 A 
ATOM     23  C   UNL     1      -4.034  -0.949  23.947  0.00  0.00    +0.000 A 
ATOM     24  C   UNL     1      -4.039  -1.538  24.526  0.00  0.00    +0.000 A 
ATOM     25  C   UNL     1      -3.639  -1.421  25.237  0.00  0.00    +0.000 A 
ATOM     26  C   UNL     1      -3.233  -0.715  25.371  0.00  0.00    +0.000 A 
ATOM     27  C   UNL     1      -3.227  -0.127  24.793  0.00  0.00    +0.000 A 
ATOM     28  C   UNL     1      -2.821   0.580  24.926  0.00  0.00    +0.000 A 
ENDBRANCH  18  19
BRANCH   2   3
ATOM      3  C   UNL     1      -3.260   2.570  25.043  0.00  0.00    +0.077 C 
ATOM      4  C   UNL     1      -3.534   2.451  24.275  0.00  0.00    +0.009 C 
ATOM      5  C   UNL     1      -3.393   1.991  23.903  0.00  0.00    +0.000 C 
ATOM      6  C   UNL     1      -2.598   0.955  24.099  0.00  0.00    +0.000 C 
ATOM      7  C   UNL     1      -2.432   1.273  24.926  0.00  0.00    +0.000 C 
ATOM      8  C   UNL     1      -2.737   2.032  25.384  0.00  0.00    +0.009 C 
ENDBRANCH   2   3
TORSDOF 2
ENDMDL
