REMARK  Name = 
REMARK  7 active torsions:
REMARK  status: ('A' for Active; 'I' for Inactive)
REMARK    1  A    between atoms: C_2  and  C_4
REMARK    2  A    between atoms: C_6  and  C_7
REMARK    3  A    between atoms: C_7  and  C_8
REMARK    4  A    between atoms: C_11  and  C_12
REMARK    5  A    between atoms: C_12  and  C_13
REMARK    6  A    between atoms: C_26  and  C_27
REMARK    7  A    between atoms: C_27  and  N_28
REMARK                            x       y       z     vdW  Elec       q    Type
REMARK                         _______ _______ _______ _____ _____    ______ ____
ROOT
ATOM      4  C   UNL     1      -0.466   5.197   0.000  0.00  0.00    +0.006 C 
ATOM      5  C   UNL     1       0.202   4.713   0.000  0.00  0.00    +0.005 C 
ATOM      6  C   UNL     1       0.115   3.892   0.000  0.00  0.00    +0.027 C 
ATOM     23  C   UNL     1      -0.638   3.557   0.000  0.00  0.00    -0.048 C 
ATOM     24  C   UNL     1      -0.725   2.736   0.000  0.00  0.00    +0.026 C 
ATOM     25  C   UNL     1      -1.306   4.042   0.000  0.00  0.00    -0.034 C 
ATOM     26  C   UNL     1      -1.220   4.862   0.000  0.00  0.00    +0.037 C 
ENDROOT
BRANCH   4   2
ATOM      1  C   UNL     1      -1.047   6.503   0.000  0.00  0.00    +0.000 C 
ATOM      2  C   UNL     1      -0.380   6.018   0.000  0.00  0.00    +0.000 C 
ATOM      3  C   UNL     1       0.374   6.354   0.000  0.00  0.00    +0.000 C 
ENDBRANCH   4   2
BRANCH   6   7
ATOM      7  C   UNL     1       0.783   3.407   0.000  0.00  0.00    +0.091 C 
BRANCH   7   8
ATOM      8  C   UNL     1       0.697   2.587   0.000  0.00  0.00    +0.226 A 
ATOM      9  N   UNL     1       1.310   2.035   0.000  0.00  0.00    -0.112 NA
ATOM     10  N   UNL     1       0.974   1.281   0.000  0.00  0.00    -0.111 NA
ATOM     11  C   UNL     1       0.154   1.367   0.000  0.00  0.00    +0.231 A 
ATOM     22  O   UNL     1      -0.018   2.174   0.000  0.00  0.00    -0.423 OA
BRANCH  11  12
ATOM     12  C   UNL     1      -0.398   0.754   0.000  0.00  0.00    +0.115 C 
BRANCH  12  13
ATOM     13  C   UNL     1      -0.143  -0.030   0.000  0.00  0.00    +0.008 A 
ATOM     14  C   UNL     1      -0.628  -0.698   0.000  0.00  0.00    +0.095 A 
ATOM     15  N   UNL     1      -0.143  -1.365   0.000  0.00  0.00    -0.244 NA
ATOM     16  C   UNL     1       0.641  -1.110   0.000  0.00  0.00    +0.081 A 
ATOM     17  C   UNL     1       0.641  -0.285   0.000  0.00  0.00    +0.016 A 
ATOM     18  C   UNL     1       1.356   0.127   0.000  0.00  0.00    +0.001 A 
ATOM     19  C   UNL     1       2.070  -0.285   0.000  0.00  0.00    +0.000 A 
ATOM     20  C   UNL     1       2.070  -1.110   0.000  0.00  0.00    +0.002 A 
ATOM     21  C   UNL     1       1.356  -1.523   0.000  0.00  0.00    +0.019 A 
ENDBRANCH  12  13
ENDBRANCH  11  12
ENDBRANCH   7   8
ENDBRANCH   6   7
BRANCH  26  27
ATOM     27  C   UNL     1      -1.887   5.347   0.000  0.00  0.00    +0.076 C 
BRANCH  27  28
ATOM     28  N   UNL     1      -2.641   5.011   0.000  0.00  0.00    -0.269 NA
ATOM     29  C   UNL     1      -2.727   4.191   0.000  0.00  0.00    +0.094 C 
ATOM     30  C   UNL     1      -3.481   3.855   0.000  0.00  0.00    +0.109 C 
ATOM     31  N   UNL     1      -4.148   4.340   0.000  0.00  0.00    -0.290 N 
ATOM     32  C   UNL     1      -4.062   5.161   0.000  0.00  0.00    +0.109 C 
ATOM     33  C   UNL     1      -3.308   5.496   0.000  0.00  0.00    +0.094 C 
ATOM     34  C   UNL     1      -4.902   4.005   0.000  0.00  0.00    +0.132 A 
ATOM     35  N   UNL     1      -4.988   3.184   0.000  0.00  0.00    -0.229 NA
ATOM     36  C   UNL     1      -5.742   2.849   0.000  0.00  0.00    +0.100 A 
ATOM     37  C   UNL     1      -6.409   3.333   0.000  0.00  0.00    +0.021 A 
ATOM     38  C   UNL     1      -6.323   4.154   0.000  0.00  0.00    +0.004 A 
ATOM     39  C   UNL     1      -5.569   4.489   0.000  0.00  0.00    +0.034 A 
ENDBRANCH  27  28
ENDBRANCH  26  27
TORSDOF 7
