MODEL 1
REMARK VINA RESULT:     -10.6      0.000      0.000
REMARK  Name = 
REMARK  7 active torsions:
REMARK  status: ('A' for Active; 'I' for Inactive)
REMARK    1  A    between atoms: O_2  and  C_3
REMARK    2  A    between atoms: C_3  and  C_4
REMARK    3  A    between atoms: C_4  and  O_5
REMARK    4  A    between atoms: O_5  and  C_6
REMARK    5  A    between atoms: C_8  and  C_12
REMARK    6  A    between atoms: C_15  and  C_17
REMARK    7  A    between atoms: N_21  and  C_22
REMARK                            x       y       z     vdW  Elec       q    Type
REMARK                         _______ _______ _______ _____ _____    ______ ____
ROOT
ATOM     12  C   UNL     1      -0.833   1.799  25.179  0.00  0.00    +0.221 A 
ATOM     13  N   UNL     1      -0.910   1.950  25.986  0.00  0.00    -0.054 NA
ATOM     14  O   UNL     1      -1.057   2.755  26.083  0.00  0.00    -0.336 OA
ATOM     15  C   UNL     1      -1.070   3.103  25.334  0.00  0.00    +0.251 A 
ATOM     16  N   UNL     1      -0.932   2.512  24.777  0.00  0.00    -0.188 NA
ENDROOT
BRANCH  12   8
ATOM      6  C   UNL     1      -0.940  -0.339  24.751  0.00  0.00    +0.142 A 
ATOM      7  C   UNL     1      -1.090   0.395  25.095  0.00  0.00    +0.059 A 
ATOM      8  C   UNL     1      -0.683   1.064  24.835  0.00  0.00    +0.123 A 
ATOM      9  N   UNL     1      -0.125   0.998  24.230  0.00  0.00    -0.240 NA
ATOM     10  C   UNL     1       0.025   0.263  23.885  0.00  0.00    +0.102 A 
ATOM     11  C   UNL     1      -0.383  -0.405  24.147  0.00  0.00    +0.058 A 
BRANCH   6   5
ATOM      5  O   UNL     1      -1.347  -1.008  25.012  0.00  0.00    -0.473 OA
BRANCH   5   4
ATOM      4  C   UNL     1      -1.932  -1.345  24.538  0.00  0.00    +0.237 C 
BRANCH   4   3
ATOM      3  C   UNL     1      -2.393  -1.964  24.829  0.00  0.00    +0.189 C 
BRANCH   3   2
ATOM      1  C   UNL     1      -3.587  -2.687  24.525  0.00  0.00    +0.174 C 
ATOM      2  O   UNL     1      -2.833  -2.430  24.309  0.00  0.00    -0.347 OA
ENDBRANCH   3   2
ENDBRANCH   4   3
ENDBRANCH   5   4
ENDBRANCH   6   5
ENDBRANCH  12   8
BRANCH  15  17
ATOM     17  C   UNL     1      -1.200   3.902  25.174  0.00  0.00    +0.138 C 
ATOM     18  C   UNL     1      -0.617   4.473  25.057  0.00  0.00    +0.027 C 
ATOM     19  C   UNL     1      -0.994   5.194  24.913  0.00  0.00    +0.019 C 
ATOM     20  C   UNL     1      -1.808   5.066  24.941  0.00  0.00    +0.072 C 
ATOM     21  N   UNL     1      -1.936   4.268  25.102  0.00  0.00    -0.268 NA
BRANCH  21  22
ATOM     22  C   UNL     1      -2.670   3.900  25.179  0.00  0.00    +0.061 C 
ATOM     23  C   UNL     1      -3.022   3.543  24.523  0.00  0.00    +0.038 C 
ATOM     24  C   UNL     1      -3.756   3.174  24.599  0.00  0.00    +0.095 C 
ATOM     25  N   UNL     1      -4.138   3.161  25.330  0.00  0.00    -0.279 N 
ATOM     26  C   UNL     1      -3.786   3.518  25.985  0.00  0.00    +0.095 C 
ATOM     27  C   UNL     1      -3.052   3.887  25.909  0.00  0.00    +0.038 C 
ATOM     28  C   UNL     1      -4.872   2.792  25.406  0.00  0.00    +0.226 C 
ATOM     29  C   UNL     1      -5.224   2.435  24.750  0.00  0.00    +0.095 C 
ATOM     30  O   UNL     1      -5.254   2.779  26.137  0.00  0.00    -0.275 OA
ENDBRANCH  21  22
ENDBRANCH  15  17
TORSDOF 7
ENDMDL
MODEL 2
REMARK VINA RESULT:     -10.3      1.505      5.328
REMARK  Name = 
REMARK  7 active torsions:
REMARK  status: ('A' for Active; 'I' for Inactive)
REMARK    1  A    between atoms: O_2  and  C_3
REMARK    2  A    between atoms: C_3  and  C_4
REMARK    3  A    between atoms: C_4  and  O_5
REMARK    4  A    between atoms: O_5  and  C_6
REMARK    5  A    between atoms: C_8  and  C_12
REMARK    6  A    between atoms: C_15  and  C_17
REMARK    7  A    between atoms: N_21  and  C_22
REMARK                            x       y       z     vdW  Elec       q    Type
REMARK                         _______ _______ _______ _____ _____    ______ ____
ROOT
ATOM     12  C   UNL     1      -4.236   0.880  24.652  0.00  0.00    +0.221 A 
ATOM     13  N   UNL     1      -4.155   0.708  23.849  0.00  0.00    -0.054 NA
ATOM     14  O   UNL     1      -3.766  -0.015  23.780  0.00  0.00    -0.336 OA
ATOM     15  C   UNL     1      -3.605  -0.291  24.542  0.00  0.00    +0.251 A 
ATOM     16  N   UNL     1      -3.896   0.262  25.079  0.00  0.00    -0.188 NA
ENDROOT
BRANCH  12   8
ATOM      6  C   UNL     1      -4.545   2.941  25.302  0.00  0.00    +0.142 A 
ATOM      7  C   UNL     1      -4.187   2.269  24.983  0.00  0.00    +0.059 A 
ATOM      8  C   UNL     1      -4.593   1.551  24.971  0.00  0.00    +0.123 A 
ATOM      9  N   UNL     1      -5.358   1.505  25.278  0.00  0.00    -0.240 NA
ATOM     10  C   UNL     1      -5.716   2.177  25.597  0.00  0.00    +0.102 A 
ATOM     11  C   UNL     1      -5.309   2.894  25.609  0.00  0.00    +0.058 A 
BRANCH   6   5
ATOM      5  O   UNL     1      -4.138   3.658  25.313  0.00  0.00    -0.473 OA
BRANCH   5   4
ATOM      4  C   UNL     1      -3.346   3.679  25.545  0.00  0.00    +0.237 C 
BRANCH   4   3
ATOM      3  C   UNL     1      -2.899   4.362  25.427  0.00  0.00    +0.189 C 
BRANCH   3   2
ATOM      1  C   UNL     1      -1.573   4.869  25.266  0.00  0.00    +0.174 C 
ATOM      2  O   UNL     1      -2.109   4.385  25.665  0.00  0.00    -0.347 OA
ENDBRANCH   3   2
ENDBRANCH   4   3
ENDBRANCH   5   4
ENDBRANCH   6   5
ENDBRANCH  12   8
BRANCH  15  17
ATOM     17  C   UNL     1      -3.221  -0.997  24.730  0.00  0.00    +0.138 C 
ATOM     18  C   UNL     1      -3.574  -1.740  24.791  0.00  0.00    +0.027 C 
ATOM     19  C   UNL     1      -2.986  -2.285  24.989  0.00  0.00    +0.019 C 
ATOM     20  C   UNL     1      -2.271  -1.878  25.050  0.00  0.00    +0.072 C 
ATOM     21  N   UNL     1      -2.416  -1.082  24.890  0.00  0.00    -0.268 NA
BRANCH  21  22
ATOM     22  C   UNL     1      -1.855  -0.477  24.889  0.00  0.00    +0.061 C 
ATOM     23  C   UNL     1      -1.487  -0.259  24.183  0.00  0.00    +0.038 C 
ATOM     24  C   UNL     1      -0.926   0.347  24.182  0.00  0.00    +0.095 C 
ATOM     25  N   UNL     1      -0.733   0.733  24.886  0.00  0.00    -0.279 N 
ATOM     26  C   UNL     1      -1.102   0.514  25.590  0.00  0.00    +0.095 C 
ATOM     27  C   UNL     1      -1.663  -0.091  25.592  0.00  0.00    +0.038 C 
ATOM     28  C   UNL     1      -0.173   1.338  24.884  0.00  0.00    +0.226 C 
ATOM     29  C   UNL     1       0.196   1.557  24.178  0.00  0.00    +0.095 C 
ATOM     30  O   UNL     1       0.020   1.725  25.586  0.00  0.00    -0.275 OA
ENDBRANCH  21  22
ENDBRANCH  15  17
TORSDOF 7
ENDMDL
MODEL 3
REMARK VINA RESULT:     -10.3      1.594      4.389
REMARK  Name = 
REMARK  7 active torsions:
REMARK  status: ('A' for Active; 'I' for Inactive)
REMARK    1  A    between atoms: O_2  and  C_3
REMARK    2  A    between atoms: C_3  and  C_4
REMARK    3  A    between atoms: C_4  and  O_5
REMARK    4  A    between atoms: O_5  and  C_6
REMARK    5  A    between atoms: C_8  and  C_12
REMARK    6  A    between atoms: C_15  and  C_17
REMARK    7  A    between atoms: N_21  and  C_22
REMARK                            x       y       z     vdW  Elec       q    Type
REMARK                         _______ _______ _______ _____ _____    ______ ____
ROOT
ATOM     12  C   UNL     1      -1.228   0.047  25.008  0.00  0.00    +0.221 A 
ATOM     13  N   UNL     1      -1.375  -0.200  25.781  0.00  0.00    -0.054 NA
ATOM     14  O   UNL     1      -1.963  -0.778  25.757  0.00  0.00    -0.336 OA
ATOM     15  C   UNL     1      -2.180  -0.888  24.968  0.00  0.00    +0.251 A 
ATOM     16  N   UNL     1      -1.726  -0.378  24.506  0.00  0.00    -0.188 NA
ENDROOT
BRANCH  12   8
ATOM      6  C   UNL     1      -0.174   1.953  24.858  0.00  0.00    +0.142 A 
ATOM      7  C   UNL     1      -0.722   1.381  25.089  0.00  0.00    +0.059 A 
ATOM      8  C   UNL     1      -0.680   0.619  24.777  0.00  0.00    +0.123 A 
ATOM      9  N   UNL     1      -0.089   0.429  24.233  0.00  0.00    -0.240 NA
ATOM     10  C   UNL     1       0.459   1.000  24.002  0.00  0.00    +0.102 A 
ATOM     11  C   UNL     1       0.416   1.763  24.315  0.00  0.00    +0.058 A 
BRANCH   6   5
ATOM      5  O   UNL     1      -0.218   2.715  25.172  0.00  0.00    -0.473 OA
BRANCH   5   4
ATOM      4  C   UNL     1      -0.733   3.268  24.841  0.00  0.00    +0.237 C 
BRANCH   4   3
ATOM      3  C   UNL     1      -0.767   4.034  25.144  0.00  0.00    +0.189 C 
BRANCH   3   2
ATOM      1  C   UNL     1      -1.464   5.281  25.107  0.00  0.00    +0.174 C 
ATOM      2  O   UNL     1      -1.476   4.456  25.124  0.00  0.00    -0.347 OA
ENDBRANCH   3   2
ENDBRANCH   4   3
ENDBRANCH   5   4
ENDBRANCH   6   5
ENDBRANCH  12   8
BRANCH  15  17
ATOM     17  C   UNL     1      -2.751  -1.415  24.692  0.00  0.00    +0.138 C 
ATOM     18  C   UNL     1      -2.637  -2.218  24.540  0.00  0.00    +0.027 C 
ATOM     19  C   UNL     1      -3.353  -2.530  24.274  0.00  0.00    +0.019 C 
ATOM     20  C   UNL     1      -3.909  -1.921  24.262  0.00  0.00    +0.072 C 
ATOM     21  N   UNL     1      -3.538  -1.232  24.520  0.00  0.00    -0.268 NA
BRANCH  21  22
ATOM     22  C   UNL     1      -3.889  -0.489  24.594  0.00  0.00    +0.061 C 
ATOM     23  C   UNL     1      -4.254  -0.275  25.303  0.00  0.00    +0.038 C 
ATOM     24  C   UNL     1      -4.605   0.468  25.378  0.00  0.00    +0.095 C 
ATOM     25  N   UNL     1      -4.591   0.997  24.744  0.00  0.00    -0.279 N 
ATOM     26  C   UNL     1      -4.226   0.783  24.036  0.00  0.00    +0.095 C 
ATOM     27  C   UNL     1      -3.875   0.039  23.962  0.00  0.00    +0.038 C 
ATOM     28  C   UNL     1      -4.942   1.739  24.819  0.00  0.00    +0.226 C 
ATOM     29  C   UNL     1      -5.308   1.954  25.528  0.00  0.00    +0.095 C 
ATOM     30  O   UNL     1      -4.929   2.268  24.186  0.00  0.00    -0.275 OA
ENDBRANCH  21  22
ENDBRANCH  15  17
TORSDOF 7
ENDMDL
MODEL 4
REMARK VINA RESULT:     -10.3      2.087      4.092
REMARK  Name = 
REMARK  7 active torsions:
REMARK  status: ('A' for Active; 'I' for Inactive)
REMARK    1  A    between atoms: O_2  and  C_3
REMARK    2  A    between atoms: C_3  and  C_4
REMARK    3  A    between atoms: C_4  and  O_5
REMARK    4  A    between atoms: O_5  and  C_6
REMARK    5  A    between atoms: C_8  and  C_12
REMARK    6  A    between atoms: C_15  and  C_17
REMARK    7  A    between atoms: N_21  and  C_22
REMARK                            x       y       z     vdW  Elec       q    Type
REMARK                         _______ _______ _______ _____ _____    ______ ____
ROOT
ATOM     12  C   UNL     1      -2.229   1.662  23.976  0.00  0.00    +0.221 A 
ATOM     13  N   UNL     1      -2.596   1.538  23.248  0.00  0.00    -0.054 NA
ATOM     14  O   UNL     1      -3.409   1.499  23.375  0.00  0.00    -0.336 OA
ATOM     15  C   UNL     1      -3.545   1.598  24.184  0.00  0.00    +0.251 A 
ATOM     16  N   UNL     1      -2.816   1.699  24.554  0.00  0.00    -0.188 NA
ENDROOT
BRANCH  12   8
ATOM      6  C   UNL     1      -0.100   1.184  24.049  0.00  0.00    +0.142 A 
ATOM      7  C   UNL     1      -0.911   1.110  23.921  0.00  0.00    +0.059 A 
ATOM      8  C   UNL     1      -1.417   1.736  24.104  0.00  0.00    +0.123 A 
ATOM      9  N   UNL     1      -1.110   2.436  24.416  0.00  0.00    -0.240 NA
ATOM     10  C   UNL     1      -0.298   2.510  24.543  0.00  0.00    +0.102 A 
ATOM     11  C   UNL     1       0.206   1.883  24.360  0.00  0.00    +0.058 A 
BRANCH   6   5
ATOM      5  O   UNL     1       0.405   0.557  23.865  0.00  0.00    -0.473 OA
BRANCH   5   4
ATOM      4  C   UNL     1       0.914   0.615  23.218  0.00  0.00    +0.237 C 
BRANCH   4   3
ATOM      3  C   UNL     1       1.432  -0.004  23.044  0.00  0.00    +0.189 C 
BRANCH   3   2
ATOM      1  C   UNL     1       2.690   0.006  22.368  0.00  0.00    +0.174 C 
ATOM      2  O   UNL     1       1.865   0.006  22.342  0.00  0.00    -0.347 OA
ENDBRANCH   3   2
ENDBRANCH   4   3
ENDBRANCH   5   4
ENDBRANCH   6   5
ENDBRANCH  12   8
BRANCH  15  17
ATOM     17  C   UNL     1      -4.282   1.597  24.554  0.00  0.00    +0.138 C 
ATOM     18  C   UNL     1      -4.758   2.256  24.692  0.00  0.00    +0.027 C 
ATOM     19  C   UNL     1      -5.443   2.001  25.075  0.00  0.00    +0.019 C 
ATOM     20  C   UNL     1      -5.390   1.184  25.173  0.00  0.00    +0.072 C 
ATOM     21  N   UNL     1      -4.674   0.933  24.852  0.00  0.00    -0.268 NA
BRANCH  21  22
ATOM     22  C   UNL     1      -4.396   0.157  24.831  0.00  0.00    +0.061 C 
ATOM     23  C   UNL     1      -4.518  -0.306  24.158  0.00  0.00    +0.038 C 
ATOM     24  C   UNL     1      -4.240  -1.082  24.136  0.00  0.00    +0.095 C 
ATOM     25  N   UNL     1      -3.839  -1.396  24.786  0.00  0.00    -0.279 N 
ATOM     26  C   UNL     1      -3.717  -0.933  25.457  0.00  0.00    +0.095 C 
ATOM     27  C   UNL     1      -3.996  -0.156  25.479  0.00  0.00    +0.038 C 
ATOM     28  C   UNL     1      -3.562  -2.172  24.763  0.00  0.00    +0.226 C 
ATOM     29  C   UNL     1      -3.684  -2.635  24.091  0.00  0.00    +0.095 C 
ATOM     30  O   UNL     1      -3.161  -2.486  25.413  0.00  0.00    -0.275 OA
ENDBRANCH  21  22
ENDBRANCH  15  17
TORSDOF 7
ENDMDL
MODEL 5
REMARK VINA RESULT:     -10.2      1.251      4.248
REMARK  Name = 
REMARK  7 active torsions:
REMARK  status: ('A' for Active; 'I' for Inactive)
REMARK    1  A    between atoms: O_2  and  C_3
REMARK    2  A    between atoms: C_3  and  C_4
REMARK    3  A    between atoms: C_4  and  O_5
REMARK    4  A    between atoms: O_5  and  C_6
REMARK    5  A    between atoms: C_8  and  C_12
REMARK    6  A    between atoms: C_15  and  C_17
REMARK    7  A    between atoms: N_21  and  C_22
REMARK                            x       y       z     vdW  Elec       q    Type
REMARK                         _______ _______ _______ _____ _____    ______ ____
ROOT
ATOM     12  C   UNL     1      -0.828   2.614  25.276  0.00  0.00    +0.221 A 
ATOM     13  N   UNL     1      -0.456   2.224  25.901  0.00  0.00    -0.054 NA
ATOM     14  O   UNL     1      -0.117   1.534  25.606  0.00  0.00    -0.336 OA
ATOM     15  C   UNL     1      -0.278   1.497  24.796  0.00  0.00    +0.251 A 
ATOM     16  N   UNL     1      -0.717   2.164  24.594  0.00  0.00    -0.188 NA
ENDROOT
BRANCH  12   8
ATOM      6  C   UNL     1      -2.425   4.055  25.648  0.00  0.00    +0.142 A 
ATOM      7  C   UNL     1      -2.015   3.340  25.599  0.00  0.00    +0.059 A 
ATOM      8  C   UNL     1      -1.237   3.328  25.325  0.00  0.00    +0.123 A 
ATOM      9  N   UNL     1      -0.869   4.032  25.100  0.00  0.00    -0.240 NA
ATOM     10  C   UNL     1      -1.278   4.747  25.149  0.00  0.00    +0.102 A 
ATOM     11  C   UNL     1      -2.057   4.757  25.423  0.00  0.00    +0.058 A 
BRANCH   6   5
ATOM      5  O   UNL     1      -3.203   4.066  25.922  0.00  0.00    -0.473 OA
BRANCH   5   4
ATOM      4  C   UNL     1      -3.803   3.721  25.473  0.00  0.00    +0.237 C 
BRANCH   4   3
ATOM      3  C   UNL     1      -4.555   3.618  25.796  0.00  0.00    +0.189 C 
BRANCH   3   2
ATOM      1  C   UNL     1      -5.682   2.768  25.577  0.00  0.00    +0.174 C 
ATOM      2  O   UNL     1      -5.180   3.369  25.319  0.00  0.00    -0.347 OA
ENDBRANCH   3   2
ENDBRANCH   4   3
ENDBRANCH   5   4
ENDBRANCH   6   5
ENDBRANCH  12   8
BRANCH  15  17
ATOM     17  C   UNL     1      -0.041   0.896  24.283  0.00  0.00    +0.138 C 
ATOM     18  C   UNL     1       0.638   0.898  23.815  0.00  0.00    +0.027 C 
ATOM     19  C   UNL     1       0.656   0.191  23.390  0.00  0.00    +0.019 C 
ATOM     20  C   UNL     1      -0.012  -0.247  23.595  0.00  0.00    +0.072 C 
ATOM     21  N   UNL     1      -0.443   0.188  24.146  0.00  0.00    -0.268 NA
BRANCH  21  22
ATOM     22  C   UNL     1      -1.152  -0.042  24.501  0.00  0.00    +0.061 C 
ATOM     23  C   UNL     1      -1.871   0.152  24.145  0.00  0.00    +0.038 C 
ATOM     24  C   UNL     1      -2.581  -0.078  24.499  0.00  0.00    +0.095 C 
ATOM     25  N   UNL     1      -2.571  -0.501  25.207  0.00  0.00    -0.279 N 
ATOM     26  C   UNL     1      -1.852  -0.694  25.562  0.00  0.00    +0.095 C 
ATOM     27  C   UNL     1      -1.142  -0.465  25.208  0.00  0.00    +0.038 C 
ATOM     28  C   UNL     1      -3.280  -0.730  25.561  0.00  0.00    +0.226 C 
ATOM     29  C   UNL     1      -4.000  -0.537  25.206  0.00  0.00    +0.095 C 
ATOM     30  O   UNL     1      -3.270  -1.154  26.269  0.00  0.00    -0.275 OA
ENDBRANCH  21  22
ENDBRANCH  15  17
TORSDOF 7
ENDMDL
MODEL 6
REMARK VINA RESULT:     -10.1      1.308      3.484
REMARK  Name = 
REMARK  7 active torsions:
REMARK  status: ('A' for Active; 'I' for Inactive)
REMARK    1  A    between atoms: O_2  and  C_3
REMARK    2  A    between atoms: C_3  and  C_4
REMARK    3  A    between atoms: C_4  and  O_5
REMARK    4  A    between atoms: O_5  and  C_6
REMARK    5  A    between atoms: C_8  and  C_12
REMARK    6  A    between atoms: C_15  and  C_17
REMARK    7  A    between atoms: N_21  and  C_22
REMARK                            x       y       z     vdW  Elec       q    Type
REMARK                         _______ _______ _______ _____ _____    ______ ____
ROOT
ATOM     12  C   UNL     1      -3.820   2.852  24.641  0.00  0.00    +0.221 A 
ATOM     13  N   UNL     1      -3.712   3.127  23.871  0.00  0.00    -0.054 NA
ATOM     14  O   UNL     1      -3.048   3.615  23.865  0.00  0.00    -0.336 OA
ATOM     15  C   UNL     1      -2.744   3.643  24.632  0.00  0.00    +0.251 A 
ATOM     16  N   UNL     1      -3.222   3.171  25.111  0.00  0.00    -0.188 NA
ENDROOT
BRANCH  12   8
ATOM      6  C   UNL     1      -4.953   1.028  25.035  0.00  0.00    +0.142 A 
ATOM      7  C   UNL     1      -4.353   1.533  24.780  0.00  0.00    +0.059 A 
ATOM      8  C   UNL     1      -4.420   2.347  24.896  0.00  0.00    +0.123 A 
ATOM      9  N   UNL     1      -5.089   2.656  25.268  0.00  0.00    -0.240 NA
ATOM     10  C   UNL     1      -5.690   2.151  25.524  0.00  0.00    +0.102 A 
ATOM     11  C   UNL     1      -5.621   1.337  25.407  0.00  0.00    +0.058 A 
BRANCH   6   5
ATOM      5  O   UNL     1      -4.884   0.214  24.918  0.00  0.00    -0.473 OA
BRANCH   5   4
ATOM      4  C   UNL     1      -4.211  -0.184  25.181  0.00  0.00    +0.237 C 
BRANCH   4   3
ATOM      3  C   UNL     1      -4.061  -0.954  24.926  0.00  0.00    +0.189 C 
BRANCH   3   2
ATOM      1  C   UNL     1      -3.359  -2.189  25.079  0.00  0.00    +0.174 C 
ATOM      2  O   UNL     1      -3.586  -1.454  25.378  0.00  0.00    -0.347 OA
ENDBRANCH   3   2
ENDBRANCH   4   3
ENDBRANCH   5   4
ENDBRANCH   6   5
ENDBRANCH  12   8
BRANCH  15  17
ATOM     17  C   UNL     1      -2.080   4.067  24.876  0.00  0.00    +0.138 C 
ATOM     18  C   UNL     1      -2.058   4.871  25.056  0.00  0.00    +0.027 C 
ATOM     19  C   UNL     1      -1.285   5.062  25.273  0.00  0.00    +0.019 C 
ATOM     20  C   UNL     1      -0.830   4.376  25.227  0.00  0.00    +0.072 C 
ATOM     21  N   UNL     1      -1.321   3.761  24.981  0.00  0.00    -0.268 NA
BRANCH  21  22
ATOM     22  C   UNL     1      -1.094   2.977  24.861  0.00  0.00    +0.061 C 
ATOM     23  C   UNL     1      -0.872   2.723  24.108  0.00  0.00    +0.038 C 
ATOM     24  C   UNL     1      -0.646   1.939  23.987  0.00  0.00    +0.095 C 
ATOM     25  N   UNL     1      -0.641   1.409  24.619  0.00  0.00    -0.279 N 
ATOM     26  C   UNL     1      -0.863   1.662  25.372  0.00  0.00    +0.095 C 
ATOM     27  C   UNL     1      -1.090   2.447  25.493  0.00  0.00    +0.038 C 
ATOM     28  C   UNL     1      -0.414   0.625  24.498  0.00  0.00    +0.226 C 
ATOM     29  C   UNL     1      -0.192   0.371  23.745  0.00  0.00    +0.095 C 
ATOM     30  O   UNL     1      -0.410   0.094  25.130  0.00  0.00    -0.275 OA
ENDBRANCH  21  22
ENDBRANCH  15  17
TORSDOF 7
ENDMDL
MODEL 7
REMARK VINA RESULT:     -10.1      1.261      2.176
REMARK  Name = 
REMARK  7 active torsions:
REMARK  status: ('A' for Active; 'I' for Inactive)
REMARK    1  A    between atoms: O_2  and  C_3
REMARK    2  A    between atoms: C_3  and  C_4
REMARK    3  A    between atoms: C_4  and  O_5
REMARK    4  A    between atoms: O_5  and  C_6
REMARK    5  A    between atoms: C_8  and  C_12
REMARK    6  A    between atoms: C_15  and  C_17
REMARK    7  A    between atoms: N_21  and  C_22
REMARK                            x       y       z     vdW  Elec       q    Type
REMARK                         _______ _______ _______ _____ _____    ______ ____
ROOT
ATOM     12  C   UNL     1      -0.891   1.864  25.279  0.00  0.00    +0.221 A 
ATOM     13  N   UNL     1      -0.904   2.048  26.083  0.00  0.00    -0.054 NA
ATOM     14  O   UNL     1      -1.042   2.857  26.158  0.00  0.00    -0.336 OA
ATOM     15  C   UNL     1      -1.115   3.174  25.398  0.00  0.00    +0.251 A 
ATOM     16  N   UNL     1      -1.022   2.560  24.857  0.00  0.00    -0.188 NA
ENDROOT
BRANCH  12   8
ATOM      6  C   UNL     1      -0.195   0.282  23.946  0.00  0.00    +0.142 A 
ATOM      7  C   UNL     1      -0.317   1.030  24.271  0.00  0.00    +0.059 A 
ATOM      8  C   UNL     1      -0.769   1.115  24.955  0.00  0.00    +0.123 A 
ATOM      9  N   UNL     1      -1.099   0.450  25.316  0.00  0.00    -0.240 NA
ATOM     10  C   UNL     1      -0.977  -0.299  24.992  0.00  0.00    +0.102 A 
ATOM     11  C   UNL     1      -0.525  -0.382  24.307  0.00  0.00    +0.058 A 
BRANCH   6   5
ATOM      5  O   UNL     1       0.257   0.198  23.261  0.00  0.00    -0.473 OA
BRANCH   5   4
ATOM      4  C   UNL     1       1.048  -0.031  23.315  0.00  0.00    +0.237 C 
BRANCH   4   3
ATOM      3  C   UNL     1       1.556   0.082  22.675  0.00  0.00    +0.189 C 
BRANCH   3   2
ATOM      1  C   UNL     1       2.930   0.196  22.301  0.00  0.00    +0.174 C 
ATOM      2  O   UNL     1       2.330  -0.200  22.706  0.00  0.00    -0.347 OA
ENDBRANCH   3   2
ENDBRANCH   4   3
ENDBRANCH   5   4
ENDBRANCH   6   5
ENDBRANCH  12   8
BRANCH  15  17
ATOM     17  C   UNL     1      -1.257   3.966  25.216  0.00  0.00    +0.138 C 
ATOM     18  C   UNL     1      -0.683   4.544  25.087  0.00  0.00    +0.027 C 
ATOM     19  C   UNL     1      -1.071   5.255  24.922  0.00  0.00    +0.019 C 
ATOM     20  C   UNL     1      -1.883   5.114  24.949  0.00  0.00    +0.072 C 
ATOM     21  N   UNL     1      -1.999   4.319  25.130  0.00  0.00    -0.268 NA
BRANCH  21  22
ATOM     22  C   UNL     1      -2.727   3.940  25.213  0.00  0.00    +0.061 C 
ATOM     23  C   UNL     1      -3.077   3.575  24.560  0.00  0.00    +0.038 C 
ATOM     24  C   UNL     1      -3.805   3.195  24.641  0.00  0.00    +0.095 C 
ATOM     25  N   UNL     1      -4.184   3.181  25.375  0.00  0.00    -0.279 N 
ATOM     26  C   UNL     1      -3.834   3.546  26.026  0.00  0.00    +0.095 C 
ATOM     27  C   UNL     1      -3.105   3.925  25.945  0.00  0.00    +0.038 C 
ATOM     28  C   UNL     1      -4.911   2.802  25.456  0.00  0.00    +0.226 C 
ATOM     29  C   UNL     1      -5.262   2.437  24.804  0.00  0.00    +0.095 C 
ATOM     30  O   UNL     1      -5.290   2.788  26.189  0.00  0.00    -0.275 OA
ENDBRANCH  21  22
ENDBRANCH  15  17
TORSDOF 7
ENDMDL
MODEL 8
REMARK VINA RESULT:     -10.0      1.525      3.326
REMARK  Name = 
REMARK  7 active torsions:
REMARK  status: ('A' for Active; 'I' for Inactive)
REMARK    1  A    between atoms: O_2  and  C_3
REMARK    2  A    between atoms: C_3  and  C_4
REMARK    3  A    between atoms: C_4  and  O_5
REMARK    4  A    between atoms: O_5  and  C_6
REMARK    5  A    between atoms: C_8  and  C_12
REMARK    6  A    between atoms: C_15  and  C_17
REMARK    7  A    between atoms: N_21  and  C_22
REMARK                            x       y       z     vdW  Elec       q    Type
REMARK                         _______ _______ _______ _____ _____    ______ ____
ROOT
ATOM     12  C   UNL     1      -3.179   0.664  24.399  0.00  0.00    +0.221 A 
ATOM     13  N   UNL     1      -3.344   1.015  23.671  0.00  0.00    -0.054 NA
ATOM     14  O   UNL     1      -3.945   1.568  23.785  0.00  0.00    -0.336 OA
ATOM     15  C   UNL     1      -4.152   1.558  24.584  0.00  0.00    +0.251 A 
ATOM     16  N   UNL     1      -3.678   1.000  24.963  0.00  0.00    -0.188 NA
ENDROOT
BRANCH  12   8
ATOM      6  C   UNL     1      -1.248  -0.343  24.556  0.00  0.00    +0.142 A 
ATOM      7  C   UNL     1      -1.814   0.242  24.416  0.00  0.00    +0.059 A 
ATOM      8  C   UNL     1      -2.613   0.080  24.538  0.00  0.00    +0.123 A 
ATOM      9  N   UNL     1      -2.847  -0.667  24.800  0.00  0.00    -0.240 NA
ATOM     10  C   UNL     1      -2.282  -1.251  24.940  0.00  0.00    +0.102 A 
ATOM     11  C   UNL     1      -1.482  -1.088  24.817  0.00  0.00    +0.058 A 
BRANCH   6   5
ATOM      5  O   UNL     1      -0.449  -0.180  24.433  0.00  0.00    -0.473 OA
BRANCH   5   4
ATOM      4  C   UNL     1      -0.093  -0.377  23.715  0.00  0.00    +0.237 C 
BRANCH   4   3
ATOM      3  C   UNL     1       0.655  -0.084  23.530  0.00  0.00    +0.189 C 
BRANCH   3   2
ATOM      1  C   UNL     1       1.755   0.017  22.623  0.00  0.00    +0.174 C 
ATOM      2  O   UNL     1       1.026  -0.312  22.829  0.00  0.00    -0.347 OA
ENDBRANCH   3   2
ENDBRANCH   4   3
ENDBRANCH   5   4
ENDBRANCH   6   5
ENDBRANCH  12   8
BRANCH  15  17
ATOM     17  C   UNL     1      -4.732   2.026  24.940  0.00  0.00    +0.138 C 
ATOM     18  C   UNL     1      -5.519   1.814  25.061  0.00  0.00    +0.027 C 
ATOM     19  C   UNL     1      -5.898   2.446  25.433  0.00  0.00    +0.019 C 
ATOM     20  C   UNL     1      -5.344   3.047  25.541  0.00  0.00    +0.072 C 
ATOM     21  N   UNL     1      -4.623   2.788  25.237  0.00  0.00    -0.268 NA
BRANCH  21  22
ATOM     22  C   UNL     1      -3.917   3.215  25.230  0.00  0.00    +0.061 C 
ATOM     23  C   UNL     1      -3.724   3.680  24.576  0.00  0.00    +0.038 C 
ATOM     24  C   UNL     1      -3.018   4.107  24.568  0.00  0.00    +0.095 C 
ATOM     25  N   UNL     1      -2.506   4.070  25.214  0.00  0.00    -0.279 N 
ATOM     26  C   UNL     1      -2.699   3.605  25.867  0.00  0.00    +0.095 C 
ATOM     27  C   UNL     1      -3.406   3.178  25.875  0.00  0.00    +0.038 C 
ATOM     28  C   UNL     1      -1.800   4.497  25.206  0.00  0.00    +0.226 C 
ATOM     29  C   UNL     1      -1.606   4.962  24.552  0.00  0.00    +0.095 C 
ATOM     30  O   UNL     1      -1.288   4.459  25.851  0.00  0.00    -0.275 OA
ENDBRANCH  21  22
ENDBRANCH  15  17
TORSDOF 7
ENDMDL
MODEL 9
REMARK VINA RESULT:      -9.6      2.159      4.413
REMARK  Name = 
REMARK  7 active torsions:
REMARK  status: ('A' for Active; 'I' for Inactive)
REMARK    1  A    between atoms: O_2  and  C_3
REMARK    2  A    between atoms: C_3  and  C_4
REMARK    3  A    between atoms: C_4  and  O_5
REMARK    4  A    between atoms: O_5  and  C_6
REMARK    5  A    between atoms: C_8  and  C_12
REMARK    6  A    between atoms: C_15  and  C_17
REMARK    7  A    between atoms: N_21  and  C_22
REMARK                            x       y       z     vdW  Elec       q    Type
REMARK                         _______ _______ _______ _____ _____    ______ ____
ROOT
ATOM     12  C   UNL     1      -1.137  -0.212  24.808  0.00  0.00    +0.221 A 
ATOM     13  N   UNL     1      -1.274  -0.360  25.607  0.00  0.00    -0.054 NA
ATOM     14  O   UNL     1      -1.903  -0.888  25.666  0.00  0.00    -0.336 OA
ATOM     15  C   UNL     1      -2.156  -1.068  24.901  0.00  0.00    +0.251 A 
ATOM     16  N   UNL     1      -1.683  -0.650  24.371  0.00  0.00    -0.188 NA
ENDROOT
BRANCH  12   8
ATOM      6  C   UNL     1       0.576   0.491  23.651  0.00  0.00    +0.142 A 
ATOM      7  C   UNL     1      -0.005  -0.007  23.960  0.00  0.00    +0.059 A 
ATOM      8  C   UNL     1      -0.557   0.286  24.498  0.00  0.00    +0.123 A 
ATOM      9  N   UNL     1      -0.528   1.079  24.727  0.00  0.00    -0.240 NA
ATOM     10  C   UNL     1       0.053   1.577  24.418  0.00  0.00    +0.102 A 
ATOM     11  C   UNL     1       0.604   1.282  23.880  0.00  0.00    +0.058 A 
BRANCH   6   5
ATOM      5  O   UNL     1       1.127   0.196  23.112  0.00  0.00    -0.473 OA
BRANCH   5   4
ATOM      4  C   UNL     1       1.892   0.506  23.094  0.00  0.00    +0.237 C 
BRANCH   4   3
ATOM      3  C   UNL     1       2.489   0.109  22.686  0.00  0.00    +0.189 C 
BRANCH   3   2
ATOM      1  C   UNL     1       3.868   0.469  22.598  0.00  0.00    +0.174 C 
ATOM      2  O   UNL     1       3.094   0.536  22.322  0.00  0.00    -0.347 OA
ENDBRANCH   3   2
ENDBRANCH   4   3
ENDBRANCH   5   4
ENDBRANCH   6   5
ENDBRANCH  12   8
BRANCH  15  17
ATOM     17  C   UNL     1      -2.775  -1.577  24.703  0.00  0.00    +0.138 C 
ATOM     18  C   UNL     1      -2.719  -2.394  24.606  0.00  0.00    +0.027 C 
ATOM     19  C   UNL     1      -3.469  -2.679  24.410  0.00  0.00    +0.019 C 
ATOM     20  C   UNL     1      -3.987  -2.038  24.386  0.00  0.00    +0.072 C 
ATOM     21  N   UNL     1      -3.559  -1.357  24.567  0.00  0.00    -0.268 NA
BRANCH  21  22
ATOM     22  C   UNL     1      -3.860  -0.590  24.606  0.00  0.00    +0.061 C 
ATOM     23  C   UNL     1      -4.177  -0.308  25.314  0.00  0.00    +0.038 C 
ATOM     24  C   UNL     1      -4.478   0.460  25.354  0.00  0.00    +0.095 C 
ATOM     25  N   UNL     1      -4.462   0.945  24.686  0.00  0.00    -0.279 N 
ATOM     26  C   UNL     1      -4.145   0.662  23.979  0.00  0.00    +0.095 C 
ATOM     27  C   UNL     1      -3.844  -0.105  23.939  0.00  0.00    +0.038 C 
ATOM     28  C   UNL     1      -4.763   1.711  24.726  0.00  0.00    +0.226 C 
ATOM     29  C   UNL     1      -5.081   1.994  25.434  0.00  0.00    +0.095 C 
ATOM     30  O   UNL     1      -4.748   2.196  24.059  0.00  0.00    -0.275 OA
ENDBRANCH  21  22
ENDBRANCH  15  17
TORSDOF 7
ENDMDL
MODEL 10
REMARK VINA RESULT:      -9.4      1.466      3.895
REMARK  Name = 
REMARK  7 active torsions:
REMARK  status: ('A' for Active; 'I' for Inactive)
REMARK    1  A    between atoms: O_2  and  C_3
REMARK    2  A    between atoms: C_3  and  C_4
REMARK    3  A    between atoms: C_4  and  O_5
REMARK    4  A    between atoms: O_5  and  C_6
REMARK    5  A    between atoms: C_8  and  C_12
REMARK    6  A    between atoms: C_15  and  C_17
REMARK    7  A    between atoms: N_21  and  C_22
REMARK                            x       y       z     vdW  Elec       q    Type
REMARK                         _______ _______ _______ _____ _____    ______ ____
ROOT
ATOM     12  C   UNL     1      -2.049  -0.546  24.681  0.00  0.00    +0.221 A 
ATOM     13  N   UNL     1      -1.577  -0.738  25.330  0.00  0.00    -0.054 NA
ATOM     14  O   UNL     1      -0.805  -0.506  25.162  0.00  0.00    -0.336 OA
ATOM     15  C   UNL     1      -0.798  -0.171  24.407  0.00  0.00    +0.251 A 
ATOM     16  N   UNL     1      -1.567  -0.196  24.111  0.00  0.00    -0.188 NA
ENDROOT
BRANCH  12   8
ATOM      6  C   UNL     1      -4.207  -0.280  24.873  0.00  0.00    +0.142 A 
ATOM      7  C   UNL     1      -3.396  -0.145  24.940  0.00  0.00    +0.059 A 
ATOM      8  C   UNL     1      -2.860  -0.681  24.614  0.00  0.00    +0.123 A 
ATOM      9  N   UNL     1      -3.136  -1.353  24.221  0.00  0.00    -0.240 NA
ATOM     10  C   UNL     1      -3.947  -1.488  24.154  0.00  0.00    +0.102 A 
ATOM     11  C   UNL     1      -4.482  -0.951  24.480  0.00  0.00    +0.058 A 
BRANCH   6   5
ATOM      5  O   UNL     1      -4.743   0.256  25.198  0.00  0.00    -0.473 OA
BRANCH   5   4
ATOM      4  C   UNL     1      -4.761   1.036  24.928  0.00  0.00    +0.237 C 
BRANCH   4   3
ATOM      3  C   UNL     1      -5.210   1.601  25.327  0.00  0.00    +0.189 C 
BRANCH   3   2
ATOM      1  C   UNL     1      -5.522   2.987  25.476  0.00  0.00    +0.174 C 
ATOM      2  O   UNL     1      -5.325   2.347  24.994  0.00  0.00    -0.347 OA
ENDBRANCH   3   2
ENDBRANCH   4   3
ENDBRANCH   5   4
ENDBRANCH   6   5
ENDBRANCH  12   8
BRANCH  15  17
ATOM     17  C   UNL     1      -0.137   0.135  24.019  0.00  0.00    +0.138 C 
ATOM     18  C   UNL     1       0.401  -0.295  23.565  0.00  0.00    +0.027 C 
ATOM     19  C   UNL     1       0.972   0.230  23.283  0.00  0.00    +0.019 C 
ATOM     20  C   UNL     1       0.786   0.983  23.563  0.00  0.00    +0.072 C 
ATOM     21  N   UNL     1       0.101   0.925  24.018  0.00  0.00    -0.268 NA
BRANCH  21  22
ATOM     22  C   UNL     1      -0.280   1.547  24.404  0.00  0.00    +0.061 C 
ATOM     23  C   UNL     1      -0.809   2.026  23.989  0.00  0.00    +0.038 C 
ATOM     24  C   UNL     1      -1.191   2.648  24.375  0.00  0.00    +0.095 C 
ATOM     25  N   UNL     1      -1.044   2.790  25.175  0.00  0.00    -0.279 N 
ATOM     26  C   UNL     1      -0.516   2.310  25.588  0.00  0.00    +0.095 C 
ATOM     27  C   UNL     1      -0.134   1.689  25.202  0.00  0.00    +0.038 C 
ATOM     28  C   UNL     1      -1.426   3.411  25.560  0.00  0.00    +0.226 C 
ATOM     29  C   UNL     1      -1.955   3.891  25.146  0.00  0.00    +0.095 C 
ATOM     30  O   UNL     1      -1.280   3.553  26.359  0.00  0.00    -0.275 OA
ENDBRANCH  21  22
ENDBRANCH  15  17
TORSDOF 7
ENDMDL
