MODEL 1
REMARK VINA RESULT:      -9.4      0.000      0.000
REMARK  Name = 
REMARK  5 active torsions:
REMARK  status: ('A' for Active; 'I' for Inactive)
REMARK    1  A    between atoms: O_2  and  C_3
REMARK    2  A    between atoms: C_3  and  C_4
REMARK    3  A    between atoms: C_9  and  C_11
REMARK    4  A    between atoms: C_11  and  C_12
REMARK    5  A    between atoms: C_12  and  C_13
REMARK                            x       y       z     vdW  Elec       q    Type
REMARK                         _______ _______ _______ _____ _____    ______ ____
ROOT
ATOM     13  C   UNL     1      -2.790   0.274  24.504  0.00  0.00    +0.080 C 
ATOM     14  C   UNL     1      -3.573   0.295  24.241  0.00  0.00    +0.131 C 
ATOM     15  N   UNL     1      -4.080  -0.335  24.083  0.00  0.00    -0.203 NA
ATOM     16  C   UNL     1      -3.931  -1.144  24.148  0.00  0.00    +0.257 C 
ATOM     17  O   UNL     1      -4.558  -1.641  23.947  0.00  0.00    -0.272 OA
ATOM     18  C   UNL     1      -3.238  -1.522  24.388  0.00  0.00    +0.151 C 
ATOM     19  C   UNL     1      -2.522  -1.184  24.621  0.00  0.00    +0.083 C 
ATOM     20  C   UNL     1      -2.000  -1.795  24.808  0.00  0.00    +0.035 C 
ATOM     21  C   UNL     1      -2.394  -2.511  24.689  0.00  0.00    +0.074 C 
ATOM     22  N   UNL     1      -3.158  -2.342  24.430  0.00  0.00    -0.264 NA
ATOM     23  C   UNL     1      -3.741  -2.896  24.245  0.00  0.00    +0.090 C 
ATOM     24  N   UNL     1      -2.323  -0.385  24.673  0.00  0.00    -0.271 NA
ATOM     25  C   UNL     1      -1.555  -0.223  24.927  0.00  0.00    +0.090 C 
ENDROOT
BRANCH  13  12
ATOM     12  C   UNL     1      -2.428   1.007  24.612  0.00  0.00    +0.027 C 
BRANCH  12  11
ATOM     11  C   UNL     1      -2.887   1.677  24.756  0.00  0.00    +0.087 C 
BRANCH  11   9
ATOM      4  C   UNL     1      -2.647   3.799  25.317  0.00  0.00    +0.105 C 
ATOM      5  C   UNL     1      -3.238   4.237  25.692  0.00  0.00    +0.024 C 
ATOM      6  C   UNL     1      -3.890   3.744  25.803  0.00  0.00    +0.023 C 
ATOM      7  C   UNL     1      -3.703   3.001  25.496  0.00  0.00    +0.093 C 
ATOM      8  N   UNL     1      -2.935   3.035  25.197  0.00  0.00    -0.279 N 
ATOM      9  C   UNL     1      -2.527   2.415  24.839  0.00  0.00    +0.226 C 
ATOM     10  O   UNL     1      -1.758   2.530  24.564  0.00  0.00    -0.275 OA
BRANCH   4   3
ATOM      3  C   UNL     1      -1.901   4.076  25.102  0.00  0.00    +0.162 C 
BRANCH   3   2
ATOM      1  C   UNL     1      -0.975   5.156  24.978  0.00  0.00    +0.174 C 
ATOM      2  O   UNL     1      -1.689   4.856  25.262  0.00  0.00    -0.349 OA
ENDBRANCH   3   2
ENDBRANCH   4   3
ENDBRANCH  11   9
ENDBRANCH  12  11
ENDBRANCH  13  12
TORSDOF 5
ENDMDL
MODEL 2
REMARK VINA RESULT:      -9.0      1.938      4.421
REMARK  Name = 
REMARK  5 active torsions:
REMARK  status: ('A' for Active; 'I' for Inactive)
REMARK    1  A    between atoms: O_2  and  C_3
REMARK    2  A    between atoms: C_3  and  C_4
REMARK    3  A    between atoms: C_9  and  C_11
REMARK    4  A    between atoms: C_11  and  C_12
REMARK    5  A    between atoms: C_12  and  C_13
REMARK                            x       y       z     vdW  Elec       q    Type
REMARK                         _______ _______ _______ _____ _____    ______ ____
ROOT
ATOM     13  C   UNL     1      -3.212   1.740  24.566  0.00  0.00    +0.080 C 
ATOM     14  C   UNL     1      -3.777   1.146  24.468  0.00  0.00    +0.131 C 
ATOM     15  N   UNL     1      -4.580   1.164  24.654  0.00  0.00    -0.203 NA
ATOM     16  C   UNL     1      -5.018   1.781  24.982  0.00  0.00    +0.257 C 
ATOM     17  O   UNL     1      -5.820   1.627  25.103  0.00  0.00    -0.272 OA
ATOM     18  C   UNL     1      -4.761   2.532  25.207  0.00  0.00    +0.151 C 
ATOM     19  C   UNL     1      -4.002   2.852  25.158  0.00  0.00    +0.083 C 
ATOM     20  C   UNL     1      -4.030   3.622  25.453  0.00  0.00    +0.035 C 
ATOM     21  C   UNL     1      -4.807   3.778  25.684  0.00  0.00    +0.074 C 
ATOM     22  N   UNL     1      -5.258   3.105  25.532  0.00  0.00    -0.264 NA
ATOM     23  C   UNL     1      -6.066   3.019  25.679  0.00  0.00    +0.090 C 
ATOM     24  N   UNL     1      -3.313   2.499  24.872  0.00  0.00    -0.271 NA
ATOM     25  C   UNL     1      -2.634   2.968  24.897  0.00  0.00    +0.090 C 
ENDROOT
BRANCH  13  12
ATOM     12  C   UNL     1      -2.447   1.551  24.324  0.00  0.00    +0.027 C 
BRANCH  12  11
ATOM     11  C   UNL     1      -2.151   0.791  24.451  0.00  0.00    +0.087 C 
BRANCH  11   9
ATOM      4  C   UNL     1      -0.314  -0.393  24.134  0.00  0.00    +0.105 C 
ATOM      5  C   UNL     1      -0.143  -1.084  24.551  0.00  0.00    +0.024 C 
ATOM      6  C   UNL     1      -0.765  -1.226  25.074  0.00  0.00    +0.023 C 
ATOM      7  C   UNL     1      -1.320  -0.623  24.981  0.00  0.00    +0.093 C 
ATOM      8  N   UNL     1      -1.041  -0.107  24.400  0.00  0.00    -0.279 N 
ATOM      9  C   UNL     1      -1.421   0.573  24.132  0.00  0.00    +0.226 C 
ATOM     10  O   UNL     1      -1.074   1.037  23.545  0.00  0.00    -0.275 OA
BRANCH   4   3
ATOM      3  C   UNL     1       0.160  -0.047  23.554  0.00  0.00    +0.162 C 
BRANCH   3   2
ATOM      1  C   UNL     1       1.339  -0.065  22.748  0.00  0.00    +0.174 C 
ATOM      2  O   UNL     1       0.859  -0.416  23.320  0.00  0.00    -0.349 OA
ENDBRANCH   3   2
ENDBRANCH   4   3
ENDBRANCH  11   9
ENDBRANCH  12  11
ENDBRANCH  13  12
TORSDOF 5
ENDMDL
MODEL 3
REMARK VINA RESULT:      -8.8      1.715      5.052
REMARK  Name = 
REMARK  5 active torsions:
REMARK  status: ('A' for Active; 'I' for Inactive)
REMARK    1  A    between atoms: O_2  and  C_3
REMARK    2  A    between atoms: C_3  and  C_4
REMARK    3  A    between atoms: C_9  and  C_11
REMARK    4  A    between atoms: C_11  and  C_12
REMARK    5  A    between atoms: C_12  and  C_13
REMARK                            x       y       z     vdW  Elec       q    Type
REMARK                         _______ _______ _______ _____ _____    ______ ____
ROOT
ATOM     13  C   UNL     1      -4.027   1.391  24.749  0.00  0.00    +0.080 C 
ATOM     14  C   UNL     1      -4.776   1.129  24.976  0.00  0.00    +0.131 C 
ATOM     15  N   UNL     1      -5.419   1.575  25.239  0.00  0.00    -0.203 NA
ATOM     16  C   UNL     1      -5.470   2.392  25.340  0.00  0.00    +0.257 C 
ATOM     17  O   UNL     1      -6.197   2.673  25.614  0.00  0.00    -0.272 OA
ATOM     18  C   UNL     1      -4.893   2.965  25.204  0.00  0.00    +0.151 C 
ATOM     19  C   UNL     1      -4.121   2.863  24.932  0.00  0.00    +0.083 C 
ATOM     20  C   UNL     1      -3.766   3.606  24.888  0.00  0.00    +0.035 C 
ATOM     21  C   UNL     1      -4.319   4.168  25.133  0.00  0.00    +0.074 C 
ATOM     22  N   UNL     1      -5.015   3.772  25.328  0.00  0.00    -0.264 NA
ATOM     23  C   UNL     1      -5.712   4.121  25.599  0.00  0.00    +0.090 C 
ATOM     24  N   UNL     1      -3.736   2.162  24.730  0.00  0.00    -0.271 NA
ATOM     25  C   UNL     1      -2.955   2.244  24.475  0.00  0.00    +0.090 C 
ENDROOT
BRANCH  13  12
ATOM     12  C   UNL     1      -3.499   0.803  24.511  0.00  0.00    +0.027 C 
BRANCH  12  11
ATOM     11  C   UNL     1      -3.727   0.010  24.533  0.00  0.00    +0.087 C 
BRANCH  11   9
ATOM      4  C   UNL     1      -2.850  -2.013  24.427  0.00  0.00    +0.105 C 
ATOM      5  C   UNL     1      -3.285  -2.685  24.228  0.00  0.00    +0.024 C 
ATOM      6  C   UNL     1      -4.064  -2.452  24.086  0.00  0.00    +0.023 C 
ATOM      7  C   UNL     1      -4.110  -1.636  24.199  0.00  0.00    +0.093 C 
ATOM      8  N   UNL     1      -3.360  -1.365  24.409  0.00  0.00    -0.279 N 
ATOM      9  C   UNL     1      -3.155  -0.583  24.573  0.00  0.00    +0.226 C 
ATOM     10  O   UNL     1      -2.379  -0.393  24.778  0.00  0.00    -0.275 OA
BRANCH   4   3
ATOM      3  C   UNL     1      -2.046  -1.993  24.613  0.00  0.00    +0.162 C 
BRANCH   3   2
ATOM      1  C   UNL     1      -0.831  -2.687  24.900  0.00  0.00    +0.174 C 
ATOM      2  O   UNL     1      -1.609  -2.692  24.625  0.00  0.00    -0.349 OA
ENDBRANCH   3   2
ENDBRANCH   4   3
ENDBRANCH  11   9
ENDBRANCH  12  11
ENDBRANCH  13  12
TORSDOF 5
ENDMDL
MODEL 4
REMARK VINA RESULT:      -8.6      1.057      5.388
REMARK  Name = 
REMARK  5 active torsions:
REMARK  status: ('A' for Active; 'I' for Inactive)
REMARK    1  A    between atoms: O_2  and  C_3
REMARK    2  A    between atoms: C_3  and  C_4
REMARK    3  A    between atoms: C_9  and  C_11
REMARK    4  A    between atoms: C_11  and  C_12
REMARK    5  A    between atoms: C_12  and  C_13
REMARK                            x       y       z     vdW  Elec       q    Type
REMARK                         _______ _______ _______ _____ _____    ______ ____
ROOT
ATOM     13  C   UNL     1      -2.169   1.952  24.664  0.00  0.00    +0.080 C 
ATOM     14  C   UNL     1      -1.422   1.958  24.311  0.00  0.00    +0.131 C 
ATOM     15  N   UNL     1      -0.890   2.584  24.245  0.00  0.00    -0.203 NA
ATOM     16  C   UNL     1      -0.972   3.359  24.515  0.00  0.00    +0.257 C 
ATOM     17  O   UNL     1      -0.334   3.861  24.362  0.00  0.00    -0.272 OA
ATOM     18  C   UNL     1      -1.606   3.699  24.918  0.00  0.00    +0.151 C 
ATOM     19  C   UNL     1      -2.315   3.349  25.150  0.00  0.00    +0.083 C 
ATOM     20  C   UNL     1      -2.768   3.921  25.536  0.00  0.00    +0.035 C 
ATOM     21  C   UNL     1      -2.338   4.625  25.542  0.00  0.00    +0.074 C 
ATOM     22  N   UNL     1      -1.620   4.488  25.160  0.00  0.00    -0.264 NA
ATOM     23  C   UNL     1      -1.021   5.043  25.041  0.00  0.00    +0.090 C 
ATOM     24  N   UNL     1      -2.566   2.571  25.037  0.00  0.00    -0.271 NA
ATOM     25  C   UNL     1      -3.313   2.388  25.337  0.00  0.00    +0.090 C 
ENDROOT
BRANCH  13  12
ATOM     12  C   UNL     1      -2.571   1.232  24.640  0.00  0.00    +0.027 C 
BRANCH  12  11
ATOM     11  C   UNL     1      -2.147   0.523  24.634  0.00  0.00    +0.087 C 
BRANCH  11   9
ATOM      4  C   UNL     1      -2.468  -1.660  24.569  0.00  0.00    +0.105 C 
ATOM      5  C   UNL     1      -1.878  -2.210  24.743  0.00  0.00    +0.024 C 
ATOM      6  C   UNL     1      -1.191  -1.794  24.934  0.00  0.00    +0.023 C 
ATOM      7  C   UNL     1      -1.357  -0.988  24.877  0.00  0.00    +0.093 C 
ATOM      8  N   UNL     1      -2.146  -0.905  24.651  0.00  0.00    -0.279 N 
ATOM      9  C   UNL     1      -2.543  -0.193  24.530  0.00  0.00    +0.226 C 
ATOM     10  O   UNL     1      -3.337  -0.196  24.304  0.00  0.00    -0.275 OA
BRANCH   4   3
ATOM      3  C   UNL     1      -3.244  -1.836  24.350  0.00  0.00    +0.162 C 
BRANCH   3   2
ATOM      1  C   UNL     1      -4.213  -2.800  23.938  0.00  0.00    +0.174 C 
ATOM      2  O   UNL     1      -3.486  -2.621  24.284  0.00  0.00    -0.349 OA
ENDBRANCH   3   2
ENDBRANCH   4   3
ENDBRANCH  11   9
ENDBRANCH  12  11
ENDBRANCH  13  12
TORSDOF 5
ENDMDL
MODEL 5
REMARK VINA RESULT:      -8.4      1.381      2.080
REMARK  Name = 
REMARK  5 active torsions:
REMARK  status: ('A' for Active; 'I' for Inactive)
REMARK    1  A    between atoms: O_2  and  C_3
REMARK    2  A    between atoms: C_3  and  C_4
REMARK    3  A    between atoms: C_9  and  C_11
REMARK    4  A    between atoms: C_11  and  C_12
REMARK    5  A    between atoms: C_12  and  C_13
REMARK                            x       y       z     vdW  Elec       q    Type
REMARK                         _______ _______ _______ _____ _____    ______ ____
ROOT
ATOM     13  C   UNL     1      -3.110   0.087  24.555  0.00  0.00    +0.080 C 
ATOM     14  C   UNL     1      -2.299   0.241  24.579  0.00  0.00    +0.131 C 
ATOM     15  N   UNL     1      -1.674  -0.297  24.572  0.00  0.00    -0.203 NA
ATOM     16  C   UNL     1      -1.704  -1.120  24.538  0.00  0.00    +0.257 C 
ATOM     17  O   UNL     1      -0.974  -1.505  24.539  0.00  0.00    -0.272 OA
ATOM     18  C   UNL     1      -2.366  -1.610  24.504  0.00  0.00    +0.151 C 
ATOM     19  C   UNL     1      -3.163  -1.397  24.494  0.00  0.00    +0.083 C 
ATOM     20  C   UNL     1      -3.612  -2.089  24.457  0.00  0.00    +0.035 C 
ATOM     21  C   UNL     1      -3.091  -2.729  24.443  0.00  0.00    +0.074 C 
ATOM     22  N   UNL     1      -2.322  -2.433  24.472  0.00  0.00    -0.264 NA
ATOM     23  C   UNL     1      -1.629  -2.882  24.469  0.00  0.00    +0.090 C 
ATOM     24  N   UNL     1      -3.494  -0.642  24.517  0.00  0.00    -0.271 NA
ATOM     25  C   UNL     1      -4.319  -0.611  24.500  0.00  0.00    +0.090 C 
ENDROOT
BRANCH  13  12
ATOM     12  C   UNL     1      -3.601   0.750  24.570  0.00  0.00    +0.027 C 
BRANCH  12  11
ATOM     11  C   UNL     1      -3.291   1.488  24.769  0.00  0.00    +0.087 C 
BRANCH  11   9
ATOM      4  C   UNL     1      -3.930   3.508  25.392  0.00  0.00    +0.105 C 
ATOM      5  C   UNL     1      -3.405   4.088  25.655  0.00  0.00    +0.024 C 
ATOM      6  C   UNL     1      -2.644   3.770  25.636  0.00  0.00    +0.023 C 
ATOM      7  C   UNL     1      -2.699   2.994  25.361  0.00  0.00    +0.093 C 
ATOM      8  N   UNL     1      -3.493   2.832  25.210  0.00  0.00    -0.279 N 
ATOM      9  C   UNL     1      -3.798   2.120  24.928  0.00  0.00    +0.226 C 
ATOM     10  O   UNL     1      -4.609   2.038  24.803  0.00  0.00    -0.275 OA
BRANCH   4   3
ATOM      3  C   UNL     1      -4.748   3.590  25.323  0.00  0.00    +0.162 C 
BRANCH   3   2
ATOM      1  C   UNL     1      -5.936   4.355  25.536  0.00  0.00    +0.174 C 
ATOM      2  O   UNL     1      -5.113   4.290  25.559  0.00  0.00    -0.349 OA
ENDBRANCH   3   2
ENDBRANCH   4   3
ENDBRANCH  11   9
ENDBRANCH  12  11
ENDBRANCH  13  12
TORSDOF 5
ENDMDL
MODEL 6
REMARK VINA RESULT:      -7.6      1.963      3.086
REMARK  Name = 
REMARK  5 active torsions:
REMARK  status: ('A' for Active; 'I' for Inactive)
REMARK    1  A    between atoms: O_2  and  C_3
REMARK    2  A    between atoms: C_3  and  C_4
REMARK    3  A    between atoms: C_9  and  C_11
REMARK    4  A    between atoms: C_11  and  C_12
REMARK    5  A    between atoms: C_12  and  C_13
REMARK                            x       y       z     vdW  Elec       q    Type
REMARK                         _______ _______ _______ _____ _____    ______ ____
ROOT
ATOM     13  C   UNL     1      -2.154   0.683  24.405  0.00  0.00    +0.080 C 
ATOM     14  C   UNL     1      -1.798   1.289  23.971  0.00  0.00    +0.131 C 
ATOM     15  N   UNL     1      -1.044   1.309  23.639  0.00  0.00    -0.203 NA
ATOM     16  C   UNL     1      -0.459   0.728  23.658  0.00  0.00    +0.257 C 
ATOM     17  O   UNL     1       0.245   0.916  23.269  0.00  0.00    -0.272 OA
ATOM     18  C   UNL     1      -0.483  -0.016  24.014  0.00  0.00    +0.151 C 
ATOM     19  C   UNL     1      -1.099  -0.363  24.438  0.00  0.00    +0.083 C 
ATOM     20  C   UNL     1      -0.851  -1.112  24.680  0.00  0.00    +0.035 C 
ATOM     21  C   UNL     1      -0.082  -1.228  24.405  0.00  0.00    +0.074 C 
ATOM     22  N   UNL     1       0.146  -0.550  23.993  0.00  0.00    -0.264 NA
ATOM     23  C   UNL     1       0.874  -0.429  23.624  0.00  0.00    +0.090 C 
ATOM     24  N   UNL     1      -1.842  -0.052  24.612  0.00  0.00    -0.271 NA
ATOM     25  C   UNL     1      -2.341  -0.541  25.053  0.00  0.00    +0.090 C 
ENDROOT
BRANCH  13  12
ATOM     12  C   UNL     1      -2.923   0.832  24.665  0.00  0.00    +0.027 C 
BRANCH  12  11
ATOM     11  C   UNL     1      -3.216   1.603  24.664  0.00  0.00    +0.087 C 
BRANCH  11   9
ATOM      4  C   UNL     1      -4.895   2.790  25.470  0.00  0.00    +0.105 C 
ATOM      5  C   UNL     1      -4.887   3.613  25.514  0.00  0.00    +0.024 C 
ATOM      6  C   UNL     1      -4.166   3.878  25.212  0.00  0.00    +0.023 C 
ATOM      7  C   UNL     1      -3.728   3.217  24.982  0.00  0.00    +0.093 C 
ATOM      8  N   UNL     1      -4.179   2.545  25.141  0.00  0.00    -0.279 N 
ATOM      9  C   UNL     1      -3.953   1.765  24.997  0.00  0.00    +0.226 C 
ATOM     10  O   UNL     1      -4.465   1.146  25.186  0.00  0.00    -0.275 OA
BRANCH   4   3
ATOM      3  C   UNL     1      -5.511   2.297  25.712  0.00  0.00    +0.162 C 
BRANCH   3   2
ATOM      1  C   UNL     1      -6.671   2.072  26.514  0.00  0.00    +0.174 C 
ATOM      2  O   UNL     1      -6.075   2.575  26.246  0.00  0.00    -0.349 OA
ENDBRANCH   3   2
ENDBRANCH   4   3
ENDBRANCH  11   9
ENDBRANCH  12  11
ENDBRANCH  13  12
TORSDOF 5
ENDMDL
MODEL 7
REMARK VINA RESULT:      -5.7     14.034     16.173
REMARK  Name = 
REMARK  5 active torsions:
REMARK  status: ('A' for Active; 'I' for Inactive)
REMARK    1  A    between atoms: O_2  and  C_3
REMARK    2  A    between atoms: C_3  and  C_4
REMARK    3  A    between atoms: C_9  and  C_11
REMARK    4  A    between atoms: C_11  and  C_12
REMARK    5  A    between atoms: C_12  and  C_13
REMARK                            x       y       z     vdW  Elec       q    Type
REMARK                         _______ _______ _______ _____ _____    ______ ____
ROOT
ATOM     13  C   UNL     1      -5.085 -10.029  12.919  0.00  0.00    +0.080 C 
ATOM     14  C   UNL     1      -4.392 -10.465  13.027  0.00  0.00    +0.131 C 
ATOM     15  N   UNL     1      -3.775 -10.589  12.494  0.00  0.00    -0.203 NA
ATOM     16  C   UNL     1      -3.697 -10.309  11.723  0.00  0.00    +0.257 C 
ATOM     17  O   UNL     1      -3.007 -10.532  11.328  0.00  0.00    -0.272 OA
ATOM     18  C   UNL     1      -4.217  -9.835  11.293  0.00  0.00    +0.151 C 
ATOM     19  C   UNL     1      -4.944  -9.524  11.528  0.00  0.00    +0.083 C 
ATOM     20  C   UNL     1      -5.251  -9.086  10.899  0.00  0.00    +0.035 C 
ATOM     21  C   UNL     1      -4.713  -9.127  10.274  0.00  0.00    +0.074 C 
ATOM     22  N   UNL     1      -4.074  -9.590  10.518  0.00  0.00    -0.264 NA
ATOM     23  C   UNL     1      -3.409  -9.775  10.065  0.00  0.00    +0.090 C 
ATOM     24  N   UNL     1      -5.330  -9.610  12.252  0.00  0.00    -0.271 NA
ATOM     25  C   UNL     1      -6.059  -9.227  12.317  0.00  0.00    +0.090 C 
ENDROOT
BRANCH  13  12
ATOM     12  C   UNL     1      -5.600 -10.009  13.563  0.00  0.00    +0.027 C 
BRANCH  12  11
ATOM     11  C   UNL     1      -5.317 -10.164  14.322  0.00  0.00    +0.087 C 
BRANCH  11   9
ATOM      4  C   UNL     1      -5.894  -9.966  16.445  0.00  0.00    +0.105 C 
ATOM      5  C   UNL     1      -5.373 -10.101  17.070  0.00  0.00    +0.024 C 
ATOM      6  C   UNL     1      -4.642 -10.311  16.751  0.00  0.00    +0.023 C 
ATOM      7  C   UNL     1      -4.711 -10.306  15.929  0.00  0.00    +0.093 C 
ATOM      8  N   UNL     1      -5.485 -10.092  15.739  0.00  0.00    -0.279 N 
ATOM      9  C   UNL     1      -5.795 -10.019  14.979  0.00  0.00    +0.226 C 
ATOM     10  O   UNL     1      -6.583  -9.800  14.874  0.00  0.00    -0.275 OA
BRANCH   4   3
ATOM      3  C   UNL     1      -6.686  -9.743  16.513  0.00  0.00    +0.162 C 
BRANCH   3   2
ATOM      1  C   UNL     1      -7.804  -9.390  17.328  0.00  0.00    +0.174 C 
ATOM      2  O   UNL     1      -7.000  -9.558  17.252  0.00  0.00    -0.349 OA
ENDBRANCH   3   2
ENDBRANCH   4   3
ENDBRANCH  11   9
ENDBRANCH  12  11
ENDBRANCH  13  12
TORSDOF 5
ENDMDL
MODEL 8
REMARK VINA RESULT:      -5.6     17.133     18.604
REMARK  Name = 
REMARK  5 active torsions:
REMARK  status: ('A' for Active; 'I' for Inactive)
REMARK    1  A    between atoms: O_2  and  C_3
REMARK    2  A    between atoms: C_3  and  C_4
REMARK    3  A    between atoms: C_9  and  C_11
REMARK    4  A    between atoms: C_11  and  C_12
REMARK    5  A    between atoms: C_12  and  C_13
REMARK                            x       y       z     vdW  Elec       q    Type
REMARK                         _______ _______ _______ _____ _____    ______ ____
ROOT
ATOM     13  C   UNL     1      -5.079  -9.418   9.414  0.00  0.00    +0.080 C 
ATOM     14  C   UNL     1      -5.138 -10.200   9.156  0.00  0.00    +0.131 C 
ATOM     15  N   UNL     1      -5.776 -10.574   8.791  0.00  0.00    -0.203 NA
ATOM     16  C   UNL     1      -6.513 -10.260   8.595  0.00  0.00    +0.257 C 
ATOM     17  O   UNL     1      -7.039 -10.781   8.230  0.00  0.00    -0.272 OA
ATOM     18  C   UNL     1      -6.794  -9.493   8.714  0.00  0.00    +0.151 C 
ATOM     19  C   UNL     1      -6.407  -8.852   9.060  0.00  0.00    +0.083 C 
ATOM     20  C   UNL     1      -6.923  -8.208   9.050  0.00  0.00    +0.035 C 
ATOM     21  C   UNL     1      -7.629  -8.452   8.698  0.00  0.00    +0.074 C 
ATOM     22  N   UNL     1      -7.549  -9.246   8.490  0.00  0.00    -0.264 NA
ATOM     23  C   UNL     1      -8.123  -9.711   8.124  0.00  0.00    +0.090 C 
ATOM     24  N   UNL     1      -5.644  -8.819   9.371  0.00  0.00    -0.271 NA
ATOM     25  C   UNL     1      -5.416  -8.088   9.681  0.00  0.00    +0.090 C 
ENDROOT
BRANCH  13  12
ATOM     12  C   UNL     1      -4.361  -9.208   9.761  0.00  0.00    +0.027 C 
BRANCH  12  11
ATOM     11  C   UNL     1      -3.971  -9.741  10.255  0.00  0.00    +0.087 C 
BRANCH  11   9
ATOM      4  C   UNL     1      -2.117  -9.881  11.448  0.00  0.00    +0.105 C 
ATOM      5  C   UNL     1      -2.045 -10.356  12.118  0.00  0.00    +0.024 C 
ATOM      6  C   UNL     1      -2.766 -10.741  12.237  0.00  0.00    +0.023 C 
ATOM      7  C   UNL     1      -3.283 -10.503  11.639  0.00  0.00    +0.093 C 
ATOM      8  N   UNL     1      -2.883  -9.971  11.152  0.00  0.00    -0.279 N 
ATOM      9  C   UNL     1      -3.192  -9.596  10.487  0.00  0.00    +0.226 C 
ATOM     10  O   UNL     1      -2.723  -9.075  10.050  0.00  0.00    -0.275 OA
BRANCH   4   3
ATOM      3  C   UNL     1      -1.528  -9.399  11.130  0.00  0.00    +0.162 C 
BRANCH   3   2
ATOM      1  C   UNL     1      -0.249  -8.778  11.263  0.00  0.00    +0.174 C 
ATOM      2  O   UNL     1      -0.789  -9.357  11.493  0.00  0.00    -0.349 OA
ENDBRANCH   3   2
ENDBRANCH   4   3
ENDBRANCH  11   9
ENDBRANCH  12  11
ENDBRANCH  13  12
TORSDOF 5
ENDMDL
