REMARK  Name = 
REMARK  7 active torsions:
REMARK  status: ('A' for Active; 'I' for Inactive)
REMARK    1  A    between atoms: C_5  and  N_8
REMARK    2  A    between atoms: C_14  and  C_16
REMARK    3  A    between atoms: C_16  and  C_17
REMARK    4  A    between atoms: C_22  and  C_23
REMARK    5  A    between atoms: C_23  and  C_24
REMARK    6  A    between atoms: C_27  and  C_28
REMARK    7  A    between atoms: C_28  and  N_29
REMARK                            x       y       z     vdW  Elec       q    Type
REMARK                         _______ _______ _______ _____ _____    ______ ____
ROOT
ATOM     17  C   UNL     1       2.751   0.763   0.000  0.00  0.00    +0.012 C 
ATOM     18  C   UNL     1       3.466   1.176   0.000  0.00  0.00    +0.019 C 
ATOM     19  C   UNL     1       4.180   0.763   0.000  0.00  0.00    +0.089 C 
ATOM     20  N   UNL     1       4.180  -0.062   0.000  0.00  0.00    -0.218 NA
ATOM     21  C   UNL     1       3.466  -0.474   0.000  0.00  0.00    +0.089 C 
ATOM     22  C   UNL     1       2.751  -0.062   0.000  0.00  0.00    +0.024 C 
ENDROOT
BRANCH  17  16
ATOM     16  C   UNL     1       2.037   1.176   0.000  0.00  0.00    +0.085 C 
BRANCH  16  14
ATOM      8  N   UNL     1      -0.107   3.238   0.000  0.00  0.00    -0.304 N 
ATOM      9  C   UNL     1       0.608   3.651   0.000  0.00  0.00    +0.112 C 
ATOM     10  C   UNL     1       1.322   3.238   0.000  0.00  0.00    +0.115 C 
ATOM     11  N   UNL     1       1.322   2.413   0.000  0.00  0.00    -0.276 N 
ATOM     12  C   UNL     1       0.608   2.001   0.000  0.00  0.00    +0.115 C 
ATOM     13  C   UNL     1      -0.107   2.413   0.000  0.00  0.00    +0.112 C 
ATOM     14  C   UNL     1       2.037   2.001   0.000  0.00  0.00    +0.226 C 
ATOM     15  O   UNL     1       2.751   2.413   0.000  0.00  0.00    -0.275 OA
BRANCH   8   5
ATOM      1  F   UNL     1      -2.965   4.888   0.000  0.00  0.00    -0.204 F 
ATOM      2  C   UNL     1      -2.250   4.476   0.000  0.00  0.00    +0.140 A 
ATOM      3  C   UNL     1      -1.536   4.888   0.000  0.00  0.00    +0.031 A 
ATOM      4  C   UNL     1      -0.821   4.476   0.000  0.00  0.00    +0.017 A 
ATOM      5  C   UNL     1      -0.821   3.651   0.000  0.00  0.00    +0.048 A 
ATOM      6  C   UNL     1      -1.536   3.238   0.000  0.00  0.00    +0.017 A 
ATOM      7  C   UNL     1      -2.250   3.651   0.000  0.00  0.00    +0.031 A 
ENDBRANCH   8   5
ENDBRANCH  16  14
ENDBRANCH  17  16
BRANCH  22  23
ATOM     23  C   UNL     1       2.037  -0.474   0.000  0.00  0.00    +0.051 C 
BRANCH  23  24
ATOM     24  C   UNL     1       2.037  -1.299   0.000  0.00  0.00    +0.100 A 
ATOM     25  N   UNL     1       2.704  -1.784   0.000  0.00  0.00    -0.082 NA
ATOM     26  O   UNL     1       2.449  -2.569   0.000  0.00  0.00    -0.357 OA
ATOM     27  C   UNL     1       1.624  -2.569   0.000  0.00  0.00    +0.170 A 
ATOM     35  C   UNL     1       1.369  -1.784   0.000  0.00  0.00    +0.055 A 
BRANCH  27  28
ATOM     28  C   UNL     1       1.139  -3.236   0.000  0.00  0.00    +0.140 C 
BRANCH  28  29
ATOM     29  N   UNL     1       0.319  -3.150   0.000  0.00  0.00    -0.266 NA
ATOM     30  C   UNL     1      -0.166  -3.817   0.000  0.00  0.00    +0.072 C 
ATOM     31  C   UNL     1      -0.987  -3.731   0.000  0.00  0.00    +0.017 C 
ATOM     32  C   UNL     1      -1.322  -2.977   0.000  0.00  0.00    +0.003 C 
ATOM     33  C   UNL     1      -0.837  -2.310   0.000  0.00  0.00    +0.017 C 
ATOM     34  C   UNL     1      -0.017  -2.396   0.000  0.00  0.00    +0.072 C 
ENDBRANCH  28  29
ENDBRANCH  27  28
ENDBRANCH  23  24
ENDBRANCH  22  23
TORSDOF 7
