MODEL 1
REMARK VINA RESULT:     -11.5      0.000      0.000
REMARK  Name = 
REMARK  5 active torsions:
REMARK  status: ('A' for Active; 'I' for Inactive)
REMARK    1  A    between atoms: C_2  and  C_3
REMARK    2  A    between atoms: C_3  and  N_4
REMARK    3  A    between atoms: N_14  and  C_24
REMARK    4  A    between atoms: N_17  and  C_18
REMARK    5  A    between atoms: C_18  and  C_19
REMARK                            x       y       z     vdW  Elec       q    Type
REMARK                         _______ _______ _______ _____ _____    ______ ____
ROOT
ATOM      4  N   UNL     1       0.732  -0.089  23.454  0.00  0.00    -0.188 NA
ATOM      5  C   UNL     1       0.020   0.276  23.655  0.00  0.00    +0.324 C 
ATOM      6  O   UNL     1      -0.100   1.072  23.473  0.00  0.00    -0.251 OA
ATOM      7  N   UNL     1      -0.571  -0.153  24.037  0.00  0.00    -0.255 N 
ATOM      8  C   UNL     1      -0.530  -0.949  24.253  0.00  0.00    +0.097 C 
ATOM      9  C   UNL     1      -1.241  -1.150  24.620  0.00  0.00    +0.044 C 
ATOM     10  C   UNL     1      -1.721  -0.480  24.631  0.00  0.00    +0.106 C 
ATOM     11  C   UNL     1      -1.307   0.136  24.270  0.00  0.00    +0.172 C 
ATOM     12  C   UNL     1      -1.654   0.881  24.202  0.00  0.00    +0.256 C 
ATOM     13  O   UNL     1      -1.240   1.497  23.842  0.00  0.00    -0.272 OA
ATOM     14  N   UNL     1      -2.415   1.011  24.493  0.00  0.00    -0.191 N 
ATOM     15  C   UNL     1      -2.829   0.395  24.853  0.00  0.00    +0.317 C 
ATOM     16  O   UNL     1      -3.589   0.523  25.145  0.00  0.00    -0.252 OA
ATOM     17  N   UNL     1      -2.482  -0.351  24.922  0.00  0.00    -0.258 N 
ENDROOT
BRANCH  14  24
ATOM     24  C   UNL     1      -2.761   1.755  24.424  0.00  0.00    +0.064 A 
ATOM     25  C   UNL     1      -3.178   1.955  23.741  0.00  0.00    +0.045 A 
ATOM     26  C   UNL     1      -3.526   2.701  23.672  0.00  0.00    +0.141 A 
ATOM     27  F   UNL     1      -3.942   2.900  22.988  0.00  0.00    -0.204 F 
ATOM     28  C   UNL     1      -3.456   3.246  24.287  0.00  0.00    +0.030 A 
ATOM     29  C   UNL     1      -3.039   3.046  24.970  0.00  0.00    +0.004 A 
ATOM     30  C   UNL     1      -2.693   2.302  25.039  0.00  0.00    +0.016 A 
ENDBRANCH  14  24
BRANCH   4   3
ATOM      3  C   UNL     1       1.323   0.340  23.072  0.00  0.00    +0.117 C 
BRANCH   3   2
ATOM      1  C   UNL     1       2.676   0.267  22.618  0.00  0.00    +0.002 C 
ATOM      2  C   UNL     1       1.918  -0.054  22.658  0.00  0.00    +0.023 C 
ENDBRANCH   3   2
ENDBRANCH   4   3
BRANCH  17  18
ATOM     18  C   UNL     1      -2.896  -0.967  25.283  0.00  0.00    +0.128 C 
BRANCH  18  19
ATOM     19  C   UNL     1      -3.366  -1.469  24.828  0.00  0.00    +0.027 A 
ATOM     20  C   UNL     1      -3.966  -1.236  24.311  0.00  0.00    +0.004 A 
ATOM     21  C   UNL     1      -4.290  -1.916  23.974  0.00  0.00    +0.007 A 
ATOM     22  C   UNL     1      -3.890  -2.568  24.282  0.00  0.00    +0.035 A 
ATOM     23  S   UNL     1      -3.319  -2.293  24.809  0.00  0.00    -0.089 S 
ENDBRANCH  18  19
ENDBRANCH  17  18
TORSDOF 5
ENDMDL
MODEL 2
REMARK VINA RESULT:     -11.5      1.499      3.073
REMARK  Name = 
REMARK  5 active torsions:
REMARK  status: ('A' for Active; 'I' for Inactive)
REMARK    1  A    between atoms: C_2  and  C_3
REMARK    2  A    between atoms: C_3  and  N_4
REMARK    3  A    between atoms: N_14  and  C_24
REMARK    4  A    between atoms: N_17  and  C_18
REMARK    5  A    between atoms: C_18  and  C_19
REMARK                            x       y       z     vdW  Elec       q    Type
REMARK                         _______ _______ _______ _____ _____    ______ ____
ROOT
ATOM      4  N   UNL     1       0.632   0.534  23.453  0.00  0.00    -0.188 NA
ATOM      5  C   UNL     1      -0.108   0.275  23.710  0.00  0.00    +0.324 C 
ATOM      6  O   UNL     1      -0.311  -0.522  23.644  0.00  0.00    -0.251 OA
ATOM      7  N   UNL     1      -0.644   0.812  24.032  0.00  0.00    -0.255 N 
ATOM      8  C   UNL     1      -0.519   1.621  24.132  0.00  0.00    +0.097 C 
ATOM      9  C   UNL     1      -1.197   1.944  24.473  0.00  0.00    +0.044 C 
ATOM     10  C   UNL     1      -1.741   1.334  24.583  0.00  0.00    +0.106 C 
ATOM     11  C   UNL     1      -1.399   0.635  24.311  0.00  0.00    +0.172 C 
ATOM     12  C   UNL     1      -1.821  -0.073  24.352  0.00  0.00    +0.256 C 
ATOM     13  O   UNL     1      -1.479  -0.773  24.079  0.00  0.00    -0.272 OA
ATOM     14  N   UNL     1      -2.584  -0.082  24.665  0.00  0.00    -0.191 N 
ATOM     15  C   UNL     1      -2.926   0.617  24.938  0.00  0.00    +0.317 C 
ATOM     16  O   UNL     1      -3.688   0.610  25.252  0.00  0.00    -0.252 OA
ATOM     17  N   UNL     1      -2.505   1.326  24.897  0.00  0.00    -0.258 N 
ENDROOT
BRANCH  14  24
ATOM     24  C   UNL     1      -3.005  -0.790  24.706  0.00  0.00    +0.064 A 
ATOM     25  C   UNL     1      -3.489  -1.019  24.078  0.00  0.00    +0.045 A 
ATOM     26  C   UNL     1      -3.910  -1.727  24.119  0.00  0.00    +0.141 A 
ATOM     27  F   UNL     1      -4.394  -1.956  23.491  0.00  0.00    -0.204 F 
ATOM     28  C   UNL     1      -3.848  -2.206  24.788  0.00  0.00    +0.030 A 
ATOM     29  C   UNL     1      -3.364  -1.977  25.416  0.00  0.00    +0.004 A 
ATOM     30  C   UNL     1      -2.943  -1.269  25.375  0.00  0.00    +0.016 A 
ENDBRANCH  14  24
BRANCH   4   3
ATOM      3  C   UNL     1       1.168  -0.003  23.130  0.00  0.00    +0.117 C 
BRANCH   3   2
ATOM      1  C   UNL     1       2.345  -0.036  22.320  0.00  0.00    +0.002 C 
ATOM      2  C   UNL     1       1.950   0.224  22.996  0.00  0.00    +0.023 C 
ENDBRANCH   3   2
ENDBRANCH   4   3
BRANCH  17  18
ATOM     18  C   UNL     1      -2.847   2.025  25.170  0.00  0.00    +0.128 C 
BRANCH  18  19
ATOM     19  C   UNL     1      -3.416   2.411  24.715  0.00  0.00    +0.027 A 
ATOM     20  C   UNL     1      -3.312   2.698  23.948  0.00  0.00    +0.004 A 
ATOM     21  C   UNL     1      -4.021   3.042  23.705  0.00  0.00    +0.007 A 
ATOM     22  C   UNL     1      -4.564   2.966  24.322  0.00  0.00    +0.035 A 
ATOM     23  S   UNL     1      -4.191   2.576  24.946  0.00  0.00    -0.089 S 
ENDBRANCH  18  19
ENDBRANCH  17  18
TORSDOF 5
ENDMDL
MODEL 3
REMARK VINA RESULT:     -11.3      2.356      4.014
REMARK  Name = 
REMARK  5 active torsions:
REMARK  status: ('A' for Active; 'I' for Inactive)
REMARK    1  A    between atoms: C_2  and  C_3
REMARK    2  A    between atoms: C_3  and  N_4
REMARK    3  A    between atoms: N_14  and  C_24
REMARK    4  A    between atoms: N_17  and  C_18
REMARK    5  A    between atoms: C_18  and  C_19
REMARK                            x       y       z     vdW  Elec       q    Type
REMARK                         _______ _______ _______ _____ _____    ______ ____
ROOT
ATOM      4  N   UNL     1      -3.324  -1.431  24.637  0.00  0.00    -0.188 NA
ATOM      5  C   UNL     1      -2.921  -0.716  24.721  0.00  0.00    +0.324 C 
ATOM      6  O   UNL     1      -2.135  -0.713  24.971  0.00  0.00    -0.251 OA
ATOM      7  N   UNL     1      -3.304  -0.005  24.555  0.00  0.00    -0.255 N 
ATOM      8  C   UNL     1      -4.085   0.078  24.302  0.00  0.00    +0.097 C 
ATOM      9  C   UNL     1      -4.237   0.883  24.204  0.00  0.00    +0.044 C 
ATOM     10  C   UNL     1      -3.550   1.297  24.397  0.00  0.00    +0.106 C 
ATOM     11  C   UNL     1      -2.974   0.748  24.614  0.00  0.00    +0.172 C 
ATOM     12  C   UNL     1      -2.222   1.007  24.837  0.00  0.00    +0.256 C 
ATOM     13  O   UNL     1      -1.646   0.458  25.054  0.00  0.00    -0.272 OA
ATOM     14  N   UNL     1      -2.047   1.812  24.843  0.00  0.00    -0.191 N 
ATOM     15  C   UNL     1      -2.624   2.361  24.626  0.00  0.00    +0.317 C 
ATOM     16  O   UNL     1      -2.450   3.167  24.631  0.00  0.00    -0.252 OA
ATOM     17  N   UNL     1      -3.375   2.104  24.402  0.00  0.00    -0.258 N 
ENDROOT
BRANCH  14  24
ATOM     24  C   UNL     1      -1.297   2.070  25.066  0.00  0.00    +0.064 A 
ATOM     25  C   UNL     1      -1.130   2.217  25.860  0.00  0.00    +0.045 A 
ATOM     26  C   UNL     1      -0.378   2.475  26.084  0.00  0.00    +0.141 A 
ATOM     27  F   UNL     1      -0.212   2.621  26.879  0.00  0.00    -0.204 F 
ATOM     28  C   UNL     1       0.206   2.585  25.512  0.00  0.00    +0.030 A 
ATOM     29  C   UNL     1       0.039   2.438  24.718  0.00  0.00    +0.004 A 
ATOM     30  C   UNL     1      -0.711   2.181  24.495  0.00  0.00    +0.016 A 
ENDBRANCH  14  24
BRANCH   4   3
ATOM      3  C   UNL     1      -2.942  -2.142  24.803  0.00  0.00    +0.117 C 
BRANCH   3   2
ATOM      1  C   UNL     1      -3.454  -3.391  24.332  0.00  0.00    +0.002 C 
ATOM      2  C   UNL     1      -3.382  -2.828  24.931  0.00  0.00    +0.023 C 
ENDBRANCH   3   2
ENDBRANCH   4   3
BRANCH  17  18
ATOM     18  C   UNL     1      -3.952   2.653  24.185  0.00  0.00    +0.128 C 
BRANCH  18  19
ATOM     19  C   UNL     1      -4.417   3.013  24.763  0.00  0.00    +0.027 A 
ATOM     20  C   UNL     1      -5.089   2.690  25.116  0.00  0.00    +0.004 A 
ATOM     21  C   UNL     1      -5.379   3.237  25.661  0.00  0.00    +0.007 A 
ATOM     22  C   UNL     1      -4.886   3.898  25.645  0.00  0.00    +0.035 A 
ATOM     23  S   UNL     1      -4.291   3.760  25.091  0.00  0.00    -0.089 S 
ENDBRANCH  18  19
ENDBRANCH  17  18
TORSDOF 5
ENDMDL
MODEL 4
REMARK VINA RESULT:     -11.1      1.957      4.593
REMARK  Name = 
REMARK  5 active torsions:
REMARK  status: ('A' for Active; 'I' for Inactive)
REMARK    1  A    between atoms: C_2  and  C_3
REMARK    2  A    between atoms: C_3  and  N_4
REMARK    3  A    between atoms: N_14  and  C_24
REMARK    4  A    between atoms: N_17  and  C_18
REMARK    5  A    between atoms: C_18  and  C_19
REMARK                            x       y       z     vdW  Elec       q    Type
REMARK                         _______ _______ _______ _____ _____    ______ ____
ROOT
ATOM      4  N   UNL     1      -3.923   2.726  25.167  0.00  0.00    -0.188 NA
ATOM      5  C   UNL     1      -3.752   1.927  25.052  0.00  0.00    +0.324 C 
ATOM      6  O   UNL     1      -4.365   1.386  24.941  0.00  0.00    -0.251 OA
ATOM      7  N   UNL     1      -2.969   1.668  25.049  0.00  0.00    -0.255 N 
ATOM      8  C   UNL     1      -2.301   2.142  25.153  0.00  0.00    +0.097 C 
ATOM      9  C   UNL     1      -1.635   1.658  25.110  0.00  0.00    +0.044 C 
ATOM     10  C   UNL     1      -1.891   0.885  24.980  0.00  0.00    +0.106 C 
ATOM     11  C   UNL     1      -2.715   0.891  24.943  0.00  0.00    +0.172 C 
ATOM     12  C   UNL     1      -3.127   0.188  24.816  0.00  0.00    +0.256 C 
ATOM     13  O   UNL     1      -3.951   0.194  24.778  0.00  0.00    -0.272 OA
ATOM     14  N   UNL     1      -2.716  -0.521  24.727  0.00  0.00    -0.191 N 
ATOM     15  C   UNL     1      -1.892  -0.528  24.764  0.00  0.00    +0.317 C 
ATOM     16  O   UNL     1      -1.481  -1.237  24.675  0.00  0.00    -0.252 OA
ATOM     17  N   UNL     1      -1.479   0.175  24.891  0.00  0.00    -0.258 N 
ENDROOT
BRANCH  14  24
ATOM     24  C   UNL     1      -3.129  -1.224  24.600  0.00  0.00    +0.064 A 
ATOM     25  C   UNL     1      -3.175  -1.789  25.200  0.00  0.00    +0.045 A 
ATOM     26  C   UNL     1      -3.588  -2.492  25.073  0.00  0.00    +0.141 A 
ATOM     27  F   UNL     1      -3.634  -3.057  25.673  0.00  0.00    -0.204 F 
ATOM     28  C   UNL     1      -3.954  -2.630  24.347  0.00  0.00    +0.030 A 
ATOM     29  C   UNL     1      -3.908  -2.065  23.747  0.00  0.00    +0.004 A 
ATOM     30  C   UNL     1      -3.495  -1.363  23.874  0.00  0.00    +0.016 A 
ENDBRANCH  14  24
BRANCH   4   3
ATOM      3  C   UNL     1      -4.706   2.984  25.170  0.00  0.00    +0.117 C 
BRANCH   3   2
ATOM      1  C   UNL     1      -5.679   3.976  25.503  0.00  0.00    +0.002 C 
ATOM      2  C   UNL     1      -4.891   3.737  25.451  0.00  0.00    +0.023 C 
ENDBRANCH   3   2
ENDBRANCH   4   3
BRANCH  17  18
ATOM     18  C   UNL     1      -0.655   0.168  24.928  0.00  0.00    +0.128 C 
BRANCH  18  19
ATOM     19  C   UNL     1      -0.211   0.154  24.234  0.00  0.00    +0.027 A 
ATOM     20  C   UNL     1       0.025  -0.520  23.822  0.00  0.00    +0.004 A 
ATOM     21  C   UNL     1       0.457  -0.279  23.162  0.00  0.00    +0.007 A 
ATOM     22  C   UNL     1       0.488   0.546  23.166  0.00  0.00    +0.035 A 
ATOM     23  S   UNL     1       0.075   0.814  23.828  0.00  0.00    -0.089 S 
ENDBRANCH  18  19
ENDBRANCH  17  18
TORSDOF 5
ENDMDL
MODEL 5
REMARK VINA RESULT:     -10.8      2.492      3.839
REMARK  Name = 
REMARK  5 active torsions:
REMARK  status: ('A' for Active; 'I' for Inactive)
REMARK    1  A    between atoms: C_2  and  C_3
REMARK    2  A    between atoms: C_3  and  N_4
REMARK    3  A    between atoms: N_14  and  C_24
REMARK    4  A    between atoms: N_17  and  C_18
REMARK    5  A    between atoms: C_18  and  C_19
REMARK                            x       y       z     vdW  Elec       q    Type
REMARK                         _______ _______ _______ _____ _____    ______ ____
ROOT
ATOM      4  N   UNL     1      -0.856   2.294  25.519  0.00  0.00    -0.188 NA
ATOM      5  C   UNL     1      -1.415   1.712  25.347  0.00  0.00    +0.324 C 
ATOM      6  O   UNL     1      -1.203   0.915  25.375  0.00  0.00    -0.251 OA
ATOM      7  N   UNL     1      -2.185   1.926  25.147  0.00  0.00    -0.255 N 
ATOM      8  C   UNL     1      -2.477   2.697  25.096  0.00  0.00    +0.097 C 
ATOM      9  C   UNL     1      -3.272   2.655  24.880  0.00  0.00    +0.044 C 
ATOM     10  C   UNL     1      -3.472   1.859  24.797  0.00  0.00    +0.106 C 
ATOM     11  C   UNL     1      -2.800   1.409  24.962  0.00  0.00    +0.172 C 
ATOM     12  C   UNL     1      -2.836   0.586  24.922  0.00  0.00    +0.256 C 
ATOM     13  O   UNL     1      -2.165   0.135  25.087  0.00  0.00    -0.272 OA
ATOM     14  N   UNL     1      -3.543   0.213  24.718  0.00  0.00    -0.191 N 
ATOM     15  C   UNL     1      -4.214   0.663  24.553  0.00  0.00    +0.317 C 
ATOM     16  O   UNL     1      -4.921   0.290  24.348  0.00  0.00    -0.252 OA
ATOM     17  N   UNL     1      -4.179   1.486  24.592  0.00  0.00    -0.258 N 
ENDROOT
BRANCH  14  24
ATOM     24  C   UNL     1      -3.578  -0.610  24.678  0.00  0.00    +0.064 A 
ATOM     25  C   UNL     1      -3.603  -1.056  25.372  0.00  0.00    +0.045 A 
ATOM     26  C   UNL     1      -3.639  -1.880  25.333  0.00  0.00    +0.141 A 
ATOM     27  F   UNL     1      -3.664  -2.325  26.027  0.00  0.00    -0.204 F 
ATOM     28  C   UNL     1      -3.650  -2.257  24.599  0.00  0.00    +0.030 A 
ATOM     29  C   UNL     1      -3.625  -1.811  23.905  0.00  0.00    +0.004 A 
ATOM     30  C   UNL     1      -3.589  -0.989  23.945  0.00  0.00    +0.016 A 
ENDBRANCH  14  24
BRANCH   4   3
ATOM      3  C   UNL     1      -0.085   2.079  25.719  0.00  0.00    +0.117 C 
BRANCH   3   2
ATOM      1  C   UNL     1       0.661   2.601  26.820  0.00  0.00    +0.002 C 
ATOM      2  C   UNL     1       0.433   2.642  26.029  0.00  0.00    +0.023 C 
ENDBRANCH   3   2
ENDBRANCH   4   3
BRANCH  17  18
ATOM     18  C   UNL     1      -4.851   1.936  24.427  0.00  0.00    +0.128 C 
BRANCH  18  19
ATOM     19  C   UNL     1      -5.382   2.120  25.030  0.00  0.00    +0.027 A 
ATOM     20  C   UNL     1      -5.928   1.604  25.370  0.00  0.00    +0.004 A 
ATOM     21  C   UNL     1      -6.345   2.017  25.950  0.00  0.00    +0.007 A 
ATOM     22  C   UNL     1      -6.055   2.789  25.969  0.00  0.00    +0.035 A 
ATOM     23  S   UNL     1      -5.460   2.854  25.401  0.00  0.00    -0.089 S 
ENDBRANCH  18  19
ENDBRANCH  17  18
TORSDOF 5
ENDMDL
MODEL 6
REMARK VINA RESULT:     -10.6      2.087      3.868
REMARK  Name = 
REMARK  5 active torsions:
REMARK  status: ('A' for Active; 'I' for Inactive)
REMARK    1  A    between atoms: C_2  and  C_3
REMARK    2  A    between atoms: C_3  and  N_4
REMARK    3  A    between atoms: N_14  and  C_24
REMARK    4  A    between atoms: N_17  and  C_18
REMARK    5  A    between atoms: C_18  and  C_19
REMARK                            x       y       z     vdW  Elec       q    Type
REMARK                         _______ _______ _______ _____ _____    ______ ____
ROOT
ATOM      4  N   UNL     1      -3.036  -1.463  24.549  0.00  0.00    -0.188 NA
ATOM      5  C   UNL     1      -3.136  -0.644  24.567  0.00  0.00    +0.324 C 
ATOM      6  O   UNL     1      -3.894  -0.322  24.599  0.00  0.00    -0.251 OA
ATOM      7  N   UNL     1      -2.477  -0.148  24.553  0.00  0.00    -0.255 N 
ATOM      8  C   UNL     1      -1.688  -0.389  24.522  0.00  0.00    +0.097 C 
ATOM      9  C   UNL     1      -1.215   0.286  24.518  0.00  0.00    +0.044 C 
ATOM     10  C   UNL     1      -1.711   0.944  24.547  0.00  0.00    +0.106 C 
ATOM     11  C   UNL     1      -2.491   0.676  24.569  0.00  0.00    +0.172 C 
ATOM     12  C   UNL     1      -3.112   1.218  24.600  0.00  0.00    +0.256 C 
ATOM     13  O   UNL     1      -3.892   0.950  24.621  0.00  0.00    -0.272 OA
ATOM     14  N   UNL     1      -2.955   2.027  24.609  0.00  0.00    -0.191 N 
ATOM     15  C   UNL     1      -2.175   2.295  24.587  0.00  0.00    +0.317 C 
ATOM     16  O   UNL     1      -2.016   3.105  24.596  0.00  0.00    -0.252 OA
ATOM     17  N   UNL     1      -1.553   1.755  24.556  0.00  0.00    -0.258 N 
ENDROOT
BRANCH  14  24
ATOM     24  C   UNL     1      -3.576   2.568  24.640  0.00  0.00    +0.064 A 
ATOM     25  C   UNL     1      -3.901   2.781  25.367  0.00  0.00    +0.045 A 
ATOM     26  C   UNL     1      -4.523   3.323  25.398  0.00  0.00    +0.141 A 
ATOM     27  F   UNL     1      -4.848   3.536  26.126  0.00  0.00    -0.204 F 
ATOM     28  C   UNL     1      -4.819   3.651  24.702  0.00  0.00    +0.030 A 
ATOM     29  C   UNL     1      -4.494   3.438  23.974  0.00  0.00    +0.004 A 
ATOM     30  C   UNL     1      -3.873   2.897  23.943  0.00  0.00    +0.016 A 
ENDBRANCH  14  24
BRANCH   4   3
ATOM      3  C   UNL     1      -3.695  -1.959  24.563  0.00  0.00    +0.117 C 
BRANCH   3   2
ATOM      1  C   UNL     1      -3.970  -3.279  24.089  0.00  0.00    +0.002 C 
ATOM      2  C   UNL     1      -3.595  -2.776  24.624  0.00  0.00    +0.023 C 
ENDBRANCH   3   2
ENDBRANCH   4   3
BRANCH  17  18
ATOM     18  C   UNL     1      -0.773   2.023  24.534  0.00  0.00    +0.128 C 
BRANCH  18  19
ATOM     19  C   UNL     1      -0.413   2.299  25.222  0.00  0.00    +0.027 A 
ATOM     20  C   UNL     1      -0.217   1.846  25.883  0.00  0.00    +0.004 A 
ATOM     21  C   UNL     1       0.132   2.344  26.440  0.00  0.00    +0.007 A 
ATOM     22  C   UNL     1       0.152   3.106  26.123  0.00  0.00    +0.035 A 
ATOM     23  S   UNL     1      -0.185   3.078  25.371  0.00  0.00    -0.089 S 
ENDBRANCH  18  19
ENDBRANCH  17  18
TORSDOF 5
ENDMDL
MODEL 7
REMARK VINA RESULT:     -10.5      2.314      3.193
REMARK  Name = 
REMARK  5 active torsions:
REMARK  status: ('A' for Active; 'I' for Inactive)
REMARK    1  A    between atoms: C_2  and  C_3
REMARK    2  A    between atoms: C_3  and  N_4
REMARK    3  A    between atoms: N_14  and  C_24
REMARK    4  A    between atoms: N_17  and  C_18
REMARK    5  A    between atoms: C_18  and  C_19
REMARK                            x       y       z     vdW  Elec       q    Type
REMARK                         _______ _______ _______ _____ _____    ______ ____
ROOT
ATOM      4  N   UNL     1      -1.445   3.386  24.872  0.00  0.00    -0.188 NA
ATOM      5  C   UNL     1      -2.182   3.018  24.911  0.00  0.00    +0.324 C 
ATOM      6  O   UNL     1      -2.841   3.441  25.172  0.00  0.00    -0.251 OA
ATOM      7  N   UNL     1      -2.262   2.228  24.690  0.00  0.00    -0.255 N 
ATOM      8  C   UNL     1      -1.656   1.737  24.419  0.00  0.00    +0.097 C 
ATOM      9  C   UNL     1      -1.980   0.995  24.262  0.00  0.00    +0.044 C 
ATOM     10  C   UNL     1      -2.785   1.027  24.435  0.00  0.00    +0.106 C 
ATOM     11  C   UNL     1      -2.959   1.789  24.700  0.00  0.00    +0.172 C 
ATOM     12  C   UNL     1      -3.732   1.984  24.915  0.00  0.00    +0.256 C 
ATOM     13  O   UNL     1      -3.906   2.746  25.180  0.00  0.00    -0.272 OA
ATOM     14  N   UNL     1      -4.329   1.418  24.867  0.00  0.00    -0.191 N 
ATOM     15  C   UNL     1      -4.155   0.657  24.602  0.00  0.00    +0.317 C 
ATOM     16  O   UNL     1      -4.753   0.090  24.553  0.00  0.00    -0.252 OA
ATOM     17  N   UNL     1      -3.384   0.460  24.386  0.00  0.00    -0.258 N 
ENDROOT
BRANCH  14  24
ATOM     24  C   UNL     1      -5.101   1.614  25.082  0.00  0.00    +0.064 A 
ATOM     25  C   UNL     1      -5.338   1.548  25.870  0.00  0.00    +0.045 A 
ATOM     26  C   UNL     1      -6.110   1.744  26.086  0.00  0.00    +0.141 A 
ATOM     27  F   UNL     1      -6.347   1.679  26.873  0.00  0.00    -0.204 F 
ATOM     28  C   UNL     1      -6.644   2.004  25.514  0.00  0.00    +0.030 A 
ATOM     29  C   UNL     1      -6.407   2.069  24.726  0.00  0.00    +0.004 A 
ATOM     30  C   UNL     1      -5.636   1.874  24.511  0.00  0.00    +0.016 A 
ENDBRANCH  14  24
BRANCH   4   3
ATOM      3  C   UNL     1      -1.366   4.177  25.094  0.00  0.00    +0.117 C 
BRANCH   3   2
ATOM      1  C   UNL     1      -0.687   5.398  24.795  0.00  0.00    +0.002 C 
ATOM      2  C   UNL     1      -0.668   4.585  24.927  0.00  0.00    +0.023 C 
ENDBRANCH   3   2
ENDBRANCH   4   3
BRANCH  17  18
ATOM     18  C   UNL     1      -3.210  -0.301  24.122  0.00  0.00    +0.128 C 
BRANCH  18  19
ATOM     19  C   UNL     1      -3.198  -0.930  24.655  0.00  0.00    +0.027 A 
ATOM     20  C   UNL     1      -2.777  -0.957  25.364  0.00  0.00    +0.004 A 
ATOM     21  C   UNL     1      -2.924  -1.687  25.720  0.00  0.00    +0.007 A 
ATOM     22  C   UNL     1      -3.435  -2.110  25.231  0.00  0.00    +0.035 A 
ATOM     23  S   UNL     1      -3.605  -1.643  24.573  0.00  0.00    -0.089 S 
ENDBRANCH  18  19
ENDBRANCH  17  18
TORSDOF 5
ENDMDL
MODEL 8
REMARK VINA RESULT:      -9.6     15.028     17.306
REMARK  Name = 
REMARK  5 active torsions:
REMARK  status: ('A' for Active; 'I' for Inactive)
REMARK    1  A    between atoms: C_2  and  C_3
REMARK    2  A    between atoms: C_3  and  N_4
REMARK    3  A    between atoms: N_14  and  C_24
REMARK    4  A    between atoms: N_17  and  C_18
REMARK    5  A    between atoms: C_18  and  C_19
REMARK                            x       y       z     vdW  Elec       q    Type
REMARK                         _______ _______ _______ _____ _____    ______ ____
ROOT
ATOM      4  N   UNL     1      12.003   8.715  17.255  0.00  0.00    -0.188 NA
ATOM      5  C   UNL     1      11.966   8.408  18.020  0.00  0.00    +0.324 C 
ATOM      6  O   UNL     1      11.254   8.110  18.310  0.00  0.00    -0.251 OA
ATOM      7  N   UNL     1      12.640   8.399  18.495  0.00  0.00    -0.255 N 
ATOM      8  C   UNL     1      13.388   8.676  18.281  0.00  0.00    +0.097 C 
ATOM      9  C   UNL     1      13.895   8.560  18.920  0.00  0.00    +0.044 C 
ATOM     10  C   UNL     1      13.462   8.210  19.529  0.00  0.00    +0.106 C 
ATOM     11  C   UNL     1      12.687   8.111  19.266  0.00  0.00    +0.172 C 
ATOM     12  C   UNL     1      12.123   7.771  19.764  0.00  0.00    +0.256 C 
ATOM     13  O   UNL     1      11.348   7.672  19.500  0.00  0.00    -0.272 OA
ATOM     14  N   UNL     1      12.334   7.531  20.523  0.00  0.00    -0.191 N 
ATOM     15  C   UNL     1      13.110   7.630  20.786  0.00  0.00    +0.317 C 
ATOM     16  O   UNL     1      13.322   7.389  21.546  0.00  0.00    -0.252 OA
ATOM     17  N   UNL     1      13.674   7.970  20.290  0.00  0.00    -0.258 N 
ENDROOT
BRANCH  14  24
ATOM     24  C   UNL     1      11.771   7.191  21.020  0.00  0.00    +0.064 A 
ATOM     25  C   UNL     1      11.669   6.372  21.029  0.00  0.00    +0.045 A 
ATOM     26  C   UNL     1      11.105   6.032  21.527  0.00  0.00    +0.141 A 
ATOM     27  F   UNL     1      11.004   5.213  21.536  0.00  0.00    -0.204 F 
ATOM     28  C   UNL     1      10.644   6.511  22.014  0.00  0.00    +0.030 A 
ATOM     29  C   UNL     1      10.745   7.329  22.005  0.00  0.00    +0.004 A 
ATOM     30  C   UNL     1      11.309   7.669  21.508  0.00  0.00    +0.016 A 
ENDBRANCH  14  24
BRANCH   4   3
ATOM      3  C   UNL     1      11.329   8.725  16.781  0.00  0.00    +0.117 C 
BRANCH   3   2
ATOM      1  C   UNL     1      10.677   9.092  15.563  0.00  0.00    +0.002 C 
ATOM      2  C   UNL     1      11.348   9.094  16.043  0.00  0.00    +0.023 C 
ENDBRANCH   3   2
ENDBRANCH   4   3
BRANCH  17  18
ATOM     18  C   UNL     1      14.450   8.069  20.553  0.00  0.00    +0.128 C 
BRANCH  18  19
ATOM     19  C   UNL     1      14.967   7.427  20.561  0.00  0.00    +0.027 A 
ATOM     20  C   UNL     1      15.235   7.010  19.901  0.00  0.00    +0.004 A 
ATOM     21  C   UNL     1      15.742   6.415  20.164  0.00  0.00    +0.007 A 
ATOM     22  C   UNL     1      15.788   6.464  20.986  0.00  0.00    +0.035 A 
ATOM     23  S   UNL     1      15.309   7.089  21.232  0.00  0.00    -0.089 S 
ENDBRANCH  18  19
ENDBRANCH  17  18
TORSDOF 5
ENDMDL
MODEL 9
REMARK VINA RESULT:      -8.9     15.603     17.919
REMARK  Name = 
REMARK  5 active torsions:
REMARK  status: ('A' for Active; 'I' for Inactive)
REMARK    1  A    between atoms: C_2  and  C_3
REMARK    2  A    between atoms: C_3  and  N_4
REMARK    3  A    between atoms: N_14  and  C_24
REMARK    4  A    between atoms: N_17  and  C_18
REMARK    5  A    between atoms: C_18  and  C_19
REMARK                            x       y       z     vdW  Elec       q    Type
REMARK                         _______ _______ _______ _____ _____    ______ ____
ROOT
ATOM      4  N   UNL     1      13.546   8.302  16.900  0.00  0.00    -0.188 NA
ATOM      5  C   UNL     1      13.769   8.088  17.665  0.00  0.00    +0.324 C 
ATOM      6  O   UNL     1      14.547   8.201  17.913  0.00  0.00    -0.251 OA
ATOM      7  N   UNL     1      13.214   7.762  18.180  0.00  0.00    -0.255 N 
ATOM      8  C   UNL     1      12.419   7.618  18.010  0.00  0.00    +0.097 C 
ATOM      9  C   UNL     1      12.071   7.290  18.682  0.00  0.00    +0.044 C 
ATOM     10  C   UNL     1      12.649   7.232  19.267  0.00  0.00    +0.106 C 
ATOM     11  C   UNL     1      13.356   7.524  18.957  0.00  0.00    +0.172 C 
ATOM     12  C   UNL     1      14.037   7.534  19.423  0.00  0.00    +0.256 C 
ATOM     13  O   UNL     1      14.743   7.826  19.113  0.00  0.00    -0.272 OA
ATOM     14  N   UNL     1      14.012   7.253  20.197  0.00  0.00    -0.191 N 
ATOM     15  C   UNL     1      13.305   6.961  20.507  0.00  0.00    +0.317 C 
ATOM     16  O   UNL     1      13.279   6.679  21.282  0.00  0.00    -0.252 OA
ATOM     17  N   UNL     1      12.624   6.950  20.042  0.00  0.00    -0.258 N 
ENDROOT
BRANCH  14  24
ATOM     24  C   UNL     1      14.692   7.263  20.662  0.00  0.00    +0.064 A 
ATOM     25  C   UNL     1      15.209   6.621  20.651  0.00  0.00    +0.045 A 
ATOM     26  C   UNL     1      15.891   6.631  21.117  0.00  0.00    +0.141 A 
ATOM     27  F   UNL     1      16.408   5.988  21.105  0.00  0.00    -0.204 F 
ATOM     28  C   UNL     1      16.055   7.284  21.593  0.00  0.00    +0.030 A 
ATOM     29  C   UNL     1      15.538   7.927  21.604  0.00  0.00    +0.004 A 
ATOM     30  C   UNL     1      14.857   7.916  21.139  0.00  0.00    +0.016 A 
ENDBRANCH  14  24
BRANCH   4   3
ATOM      3  C   UNL     1      14.100   8.628  16.384  0.00  0.00    +0.117 C 
BRANCH   3   2
ATOM      1  C   UNL     1      14.403   9.078  15.062  0.00  0.00    +0.002 C 
ATOM      2  C   UNL     1      13.856   8.951  15.665  0.00  0.00    +0.023 C 
ENDBRANCH   3   2
ENDBRANCH   4   3
BRANCH  17  18
ATOM     18  C   UNL     1      11.917   6.658  20.352  0.00  0.00    +0.128 C 
BRANCH  18  19
ATOM     19  C   UNL     1      11.465   7.125  20.860  0.00  0.00    +0.027 A 
ATOM     20  C   UNL     1      11.177   7.881  20.696  0.00  0.00    +0.004 A 
ATOM     21  C   UNL     1      10.756   8.142  21.356  0.00  0.00    +0.007 A 
ATOM     22  C   UNL     1      10.784   7.547  21.927  0.00  0.00    +0.035 A 
ATOM     23  S   UNL     1      11.222   6.918  21.621  0.00  0.00    -0.089 S 
ENDBRANCH  18  19
ENDBRANCH  17  18
TORSDOF 5
ENDMDL
MODEL 10
REMARK VINA RESULT:      -8.9     15.498     17.514
REMARK  Name = 
REMARK  5 active torsions:
REMARK  status: ('A' for Active; 'I' for Inactive)
REMARK    1  A    between atoms: C_2  and  C_3
REMARK    2  A    between atoms: C_3  and  N_4
REMARK    3  A    between atoms: N_14  and  C_24
REMARK    4  A    between atoms: N_17  and  C_18
REMARK    5  A    between atoms: C_18  and  C_19
REMARK                            x       y       z     vdW  Elec       q    Type
REMARK                         _______ _______ _______ _____ _____    ______ ____
ROOT
ATOM      4  N   UNL     1      15.708   6.677  19.128  0.00  0.00    -0.188 NA
ATOM      5  C   UNL     1      14.970   6.849  19.454  0.00  0.00    +0.324 C 
ATOM      6  O   UNL     1      14.725   6.467  20.143  0.00  0.00    -0.251 OA
ATOM      7  N   UNL     1      14.477   7.403  19.093  0.00  0.00    -0.255 N 
ATOM      8  C   UNL     1      14.646   7.827  18.406  0.00  0.00    +0.097 C 
ATOM      9  C   UNL     1      14.003   8.317  18.244  0.00  0.00    +0.044 C 
ATOM     10  C   UNL     1      13.436   8.195  18.830  0.00  0.00    +0.106 C 
ATOM     11  C   UNL     1      13.729   7.630  19.355  0.00  0.00    +0.172 C 
ATOM     12  C   UNL     1      13.276   7.396  20.004  0.00  0.00    +0.256 C 
ATOM     13  O   UNL     1      13.569   6.832  20.529  0.00  0.00    -0.272 OA
ATOM     14  N   UNL     1      12.531   7.727  20.128  0.00  0.00    -0.191 N 
ATOM     15  C   UNL     1      12.238   8.291  19.603  0.00  0.00    +0.317 C 
ATOM     16  O   UNL     1      11.492   8.622  19.726  0.00  0.00    -0.252 OA
ATOM     17  N   UNL     1      12.690   8.526  18.954  0.00  0.00    -0.258 N 
ENDROOT
BRANCH  14  24
ATOM     24  C   UNL     1      12.079   7.493  20.776  0.00  0.00    +0.064 A 
ATOM     25  C   UNL     1      11.629   6.802  20.738  0.00  0.00    +0.045 A 
ATOM     26  C   UNL     1      11.176   6.567  21.387  0.00  0.00    +0.141 A 
ATOM     27  F   UNL     1      10.727   5.877  21.349  0.00  0.00    -0.204 F 
ATOM     28  C   UNL     1      11.174   7.024  22.074  0.00  0.00    +0.030 A 
ATOM     29  C   UNL     1      11.623   7.715  22.112  0.00  0.00    +0.004 A 
ATOM     30  C   UNL     1      12.075   7.949  21.464  0.00  0.00    +0.016 A 
ENDBRANCH  14  24
BRANCH   4   3
ATOM      3  C   UNL     1      16.200   6.123  19.489  0.00  0.00    +0.117 C 
BRANCH   3   2
ATOM      1  C   UNL     1      17.396   5.700  18.831  0.00  0.00    +0.002 C 
ATOM      2  C   UNL     1      17.018   6.172  19.391  0.00  0.00    +0.023 C 
ENDBRANCH   3   2
ENDBRANCH   4   3
BRANCH  17  18
ATOM     18  C   UNL     1      12.396   9.090  18.428  0.00  0.00    +0.128 C 
BRANCH  18  19
ATOM     19  C   UNL     1      11.929   8.857  17.791  0.00  0.00    +0.027 A 
ATOM     20  C   UNL     1      11.201   8.472  17.838  0.00  0.00    +0.004 A 
ATOM     21  C   UNL     1      10.929   8.344  17.069  0.00  0.00    +0.007 A 
ATOM     22  C   UNL     1      11.490   8.650  16.547  0.00  0.00    +0.035 A 
ATOM     23  S   UNL     1      12.108   8.967  16.992  0.00  0.00    -0.089 S 
ENDBRANCH  18  19
ENDBRANCH  17  18
TORSDOF 5
ENDMDL
