MODEL 1
REMARK VINA RESULT:     -11.0      0.000      0.000
REMARK  Name = 
REMARK  6 active torsions:
REMARK  status: ('A' for Active; 'I' for Inactive)
REMARK    1  A    between atoms: C_2  and  C_4
REMARK    2  A    between atoms: C_4  and  O_5
REMARK    3  A    between atoms: O_5  and  C_6
REMARK    4  A    between atoms: C_6  and  C_7
REMARK    5  A    between atoms: N_9  and  C_10
REMARK    6  A    between atoms: C_21  and  C_24
REMARK                            x       y       z     vdW  Elec       q    Type
REMARK                         _______ _______ _______ _____ _____    ______ ____
ROOT
ATOM     10  C   UNL     1      -0.536   0.400  23.848  0.00  0.00    +0.124 C 
ATOM     11  C   UNL     1      -0.585  -0.177  24.436  0.00  0.00    +0.045 C 
ATOM     12  C   UNL     1      -1.308  -0.085  24.824  0.00  0.00    +0.096 C 
ATOM     13  N   UNL     1      -1.705   0.549  24.476  0.00  0.00    -0.268 N 
ATOM     14  C   UNL     1      -1.228   0.848  23.873  0.00  0.00    +0.174 C 
ATOM     15  C   UNL     1      -1.378   1.480  23.365  0.00  0.00    +0.265 C 
ATOM     16  O   UNL     1      -0.785   1.646  22.814  0.00  0.00    -0.271 OA
ATOM     17  N   UNL     1      -2.042   1.969  23.333  0.00  0.00    -0.178 NA
ATOM     18  C   UNL     1      -2.721   1.946  23.802  0.00  0.00    +0.078 A 
ATOM     19  C   UNL     1      -2.902   1.429  24.419  0.00  0.00    +0.069 A 
ATOM     20  C   UNL     1      -3.619   1.502  24.821  0.00  0.00    +0.006 A 
ATOM     21  C   UNL     1      -4.154   2.092  24.607  0.00  0.00    +0.002 A 
ATOM     22  C   UNL     1      -3.973   2.609  23.990  0.00  0.00    +0.001 A 
ATOM     23  C   UNL     1      -3.256   2.536  23.588  0.00  0.00    +0.017 A 
ATOM     31  C   UNL     1      -2.449   0.807  24.719  0.00  0.00    +0.251 C 
ATOM     32  O   UNL     1      -2.787   0.388  25.344  0.00  0.00    -0.270 OA
ENDROOT
BRANCH  21  24
ATOM     24  C   UNL     1      -4.870   2.165  25.009  0.00  0.00    +0.027 A 
ATOM     25  C   UNL     1      -5.504   1.673  24.814  0.00  0.00    +0.002 A 
ATOM     26  C   UNL     1      -6.221   1.746  25.217  0.00  0.00    +0.000 A 
ATOM     27  C   UNL     1      -6.303   2.309  25.813  0.00  0.00    +0.002 A 
ATOM     28  C   UNL     1      -5.670   2.800  26.008  0.00  0.00    +0.030 A 
ATOM     29  C   UNL     1      -4.953   2.728  25.606  0.00  0.00    +0.140 A 
ATOM     30  F   UNL     1      -4.320   3.219  25.801  0.00  0.00    -0.204 F 
ENDBRANCH  21  24
BRANCH  10   9
ATOM      7  C   UNL     1       0.681  -0.068  23.262  0.00  0.00    +0.272 C 
ATOM      8  O   UNL     1       0.636  -0.754  23.718  0.00  0.00    -0.271 OA
ATOM      9  N   UNL     1       0.094   0.509  23.328  0.00  0.00    -0.203 NA
BRANCH   7   6
ATOM      6  C   UNL     1       1.311   0.041  22.742  0.00  0.00    +0.229 C 
BRANCH   6   5
ATOM      5  O   UNL     1       2.074   0.150  23.035  0.00  0.00    -0.333 OA
BRANCH   5   4
ATOM      4  C   UNL     1       2.703   0.267  22.515  0.00  0.00    +0.257 C 
BRANCH   4   2
ATOM      1  O   UNL     1       4.018  -0.083  22.951  0.00  0.00    -0.243 OA
ATOM      2  C   UNL     1       3.443   0.489  22.805  0.00  0.00    +0.394 C 
ATOM      3  O   UNL     1       3.608   1.285  22.948  0.00  0.00    -0.243 OA
ENDBRANCH   4   2
ENDBRANCH   5   4
ENDBRANCH   6   5
ENDBRANCH   7   6
ENDBRANCH  10   9
TORSDOF 6
ENDMDL
MODEL 2
REMARK VINA RESULT:      -9.5      1.202      1.742
REMARK  Name = 
REMARK  6 active torsions:
REMARK  status: ('A' for Active; 'I' for Inactive)
REMARK    1  A    between atoms: C_2  and  C_4
REMARK    2  A    between atoms: C_4  and  O_5
REMARK    3  A    between atoms: O_5  and  C_6
REMARK    4  A    between atoms: C_6  and  C_7
REMARK    5  A    between atoms: N_9  and  C_10
REMARK    6  A    between atoms: C_21  and  C_24
REMARK                            x       y       z     vdW  Elec       q    Type
REMARK                         _______ _______ _______ _____ _____    ______ ____
ROOT
ATOM     10  C   UNL     1       0.900   0.621  23.485  0.00  0.00    +0.124 C 
ATOM     11  C   UNL     1       0.652  -0.118  23.212  0.00  0.00    +0.045 C 
ATOM     12  C   UNL     1      -0.164  -0.168  23.322  0.00  0.00    +0.096 C 
ATOM     13  N   UNL     1      -0.421   0.538  23.661  0.00  0.00    -0.268 N 
ATOM     14  C   UNL     1       0.237   1.026  23.762  0.00  0.00    +0.174 C 
ATOM     15  C   UNL     1       0.269   1.787  24.078  0.00  0.00    +0.265 C 
ATOM     16  O   UNL     1       1.018   2.132  24.104  0.00  0.00    -0.271 OA
ATOM     17  N   UNL     1      -0.348   2.249  24.372  0.00  0.00    -0.178 NA
ATOM     18  C   UNL     1      -1.151   2.063  24.423  0.00  0.00    +0.078 A 
ATOM     19  C   UNL     1      -1.533   1.369  24.191  0.00  0.00    +0.069 A 
ATOM     20  C   UNL     1      -2.349   1.296  24.291  0.00  0.00    +0.006 A 
ATOM     21  C   UNL     1      -2.782   1.916  24.622  0.00  0.00    +0.002 A 
ATOM     22  C   UNL     1      -2.399   2.609  24.854  0.00  0.00    +0.001 A 
ATOM     23  C   UNL     1      -1.583   2.682  24.754  0.00  0.00    +0.017 A 
ATOM     31  C   UNL     1      -1.209   0.691  23.852  0.00  0.00    +0.251 C 
ATOM     32  O   UNL     1      -1.742   0.086  23.682  0.00  0.00    -0.270 OA
ENDROOT
BRANCH  21  24
ATOM     24  C   UNL     1      -3.597   1.842  24.722  0.00  0.00    +0.027 A 
ATOM     25  C   UNL     1      -3.898   1.296  25.263  0.00  0.00    +0.002 A 
ATOM     26  C   UNL     1      -4.714   1.222  25.363  0.00  0.00    +0.000 A 
ATOM     27  C   UNL     1      -5.228   1.693  24.921  0.00  0.00    +0.002 A 
ATOM     28  C   UNL     1      -4.927   2.238  24.381  0.00  0.00    +0.030 A 
ATOM     29  C   UNL     1      -4.112   2.312  24.281  0.00  0.00    +0.140 A 
ATOM     30  F   UNL     1      -3.811   2.857  23.740  0.00  0.00    -0.204 F 
ENDBRANCH  21  24
BRANCH  10   9
ATOM      7  C   UNL     1       2.240   0.552  22.992  0.00  0.00    +0.272 C 
ATOM      8  O   UNL     1       2.029  -0.082  22.509  0.00  0.00    -0.271 OA
ATOM      9  N   UNL     1       1.674   0.903  23.480  0.00  0.00    -0.203 NA
BRANCH   7   6
ATOM      6  C   UNL     1       3.014   0.835  22.987  0.00  0.00    +0.229 C 
BRANCH   6   5
ATOM      5  O   UNL     1       3.642   0.322  23.140  0.00  0.00    -0.333 OA
BRANCH   5   4
ATOM      4  C   UNL     1       4.419   0.581  23.044  0.00  0.00    +0.257 C 
BRANCH   4   2
ATOM      1  O   UNL     1       5.223  -0.526  23.455  0.00  0.00    -0.243 OA
ATOM      2  C   UNL     1       5.019   0.270  23.517  0.00  0.00    +0.394 C 
ATOM      3  O   UNL     1       5.416   0.757  24.052  0.00  0.00    -0.243 OA
ENDBRANCH   4   2
ENDBRANCH   5   4
ENDBRANCH   6   5
ENDBRANCH   7   6
ENDBRANCH  10   9
TORSDOF 6
ENDMDL
MODEL 3
REMARK VINA RESULT:      -8.1      2.886      4.383
REMARK  Name = 
REMARK  6 active torsions:
REMARK  status: ('A' for Active; 'I' for Inactive)
REMARK    1  A    between atoms: C_2  and  C_4
REMARK    2  A    between atoms: C_4  and  O_5
REMARK    3  A    between atoms: O_5  and  C_6
REMARK    4  A    between atoms: C_6  and  C_7
REMARK    5  A    between atoms: N_9  and  C_10
REMARK    6  A    between atoms: C_21  and  C_24
REMARK                            x       y       z     vdW  Elec       q    Type
REMARK                         _______ _______ _______ _____ _____    ______ ____
ROOT
ATOM     10  C   UNL     1      -0.792   1.834  24.856  0.00  0.00    +0.124 C 
ATOM     11  C   UNL     1      -0.153   1.428  24.527  0.00  0.00    +0.045 C 
ATOM     12  C   UNL     1      -0.402   0.661  24.352  0.00  0.00    +0.096 C 
ATOM     13  N   UNL     1      -1.193   0.592  24.573  0.00  0.00    -0.268 N 
ATOM     14  C   UNL     1      -1.435   1.317  24.884  0.00  0.00    +0.174 C 
ATOM     15  C   UNL     1      -2.175   1.528  25.181  0.00  0.00    +0.265 C 
ATOM     16  O   UNL     1      -2.242   2.304  25.456  0.00  0.00    -0.271 OA
ATOM     17  N   UNL     1      -2.857   1.068  25.239  0.00  0.00    -0.178 NA
ATOM     18  C   UNL     1      -2.967   0.281  25.015  0.00  0.00    +0.078 A 
ATOM     19  C   UNL     1      -2.422  -0.238  24.678  0.00  0.00    +0.069 A 
ATOM     20  C   UNL     1      -2.648  -1.010  24.494  0.00  0.00    +0.006 A 
ATOM     21  C   UNL     1      -3.418  -1.263  24.648  0.00  0.00    +0.002 A 
ATOM     22  C   UNL     1      -3.963  -0.744  24.985  0.00  0.00    +0.001 A 
ATOM     23  C   UNL     1      -3.736   0.028  25.169  0.00  0.00    +0.017 A 
ATOM     31  C   UNL     1      -1.632  -0.100  24.480  0.00  0.00    +0.251 C 
ATOM     32  O   UNL     1      -1.230  -0.738  24.148  0.00  0.00    -0.270 OA
ENDROOT
BRANCH  21  24
ATOM     24  C   UNL     1      -3.643  -2.035  24.464  0.00  0.00    +0.027 A 
ATOM     25  C   UNL     1      -3.395  -2.661  24.941  0.00  0.00    +0.002 A 
ATOM     26  C   UNL     1      -3.620  -3.434  24.757  0.00  0.00    +0.000 A 
ATOM     27  C   UNL     1      -4.092  -3.579  24.097  0.00  0.00    +0.002 A 
ATOM     28  C   UNL     1      -4.339  -2.953  23.620  0.00  0.00    +0.030 A 
ATOM     29  C   UNL     1      -4.115  -2.182  23.803  0.00  0.00    +0.140 A 
ATOM     30  F   UNL     1      -4.363  -1.556  23.327  0.00  0.00    -0.204 F 
ENDBRANCH  21  24
BRANCH  10   9
ATOM      7  C   UNL     1      -0.221   3.143  24.825  0.00  0.00    +0.272 C 
ATOM      8  O   UNL     1       0.343   2.884  24.282  0.00  0.00    -0.271 OA
ATOM      9  N   UNL     1      -0.789   2.617  25.112  0.00  0.00    -0.203 NA
BRANCH   7   6
ATOM      6  C   UNL     1      -0.217   3.927  25.081  0.00  0.00    +0.229 C 
BRANCH   6   5
ATOM      5  O   UNL     1      -0.707   4.483  24.717  0.00  0.00    -0.333 OA
BRANCH   5   4
ATOM      4  C   UNL     1      -0.811   5.227  25.057  0.00  0.00    +0.257 C 
BRANCH   4   2
ATOM      1  O   UNL     1      -2.088   5.608  25.572  0.00  0.00    -0.243 OA
ATOM      2  C   UNL     1      -1.528   5.625  24.967  0.00  0.00    +0.394 C 
ATOM      3  O   UNL     1      -1.684   6.041  24.272  0.00  0.00    -0.243 OA
ENDBRANCH   4   2
ENDBRANCH   5   4
ENDBRANCH   6   5
ENDBRANCH   7   6
ENDBRANCH  10   9
TORSDOF 6
ENDMDL
MODEL 4
REMARK VINA RESULT:      -8.0      3.099      4.849
REMARK  Name = 
REMARK  6 active torsions:
REMARK  status: ('A' for Active; 'I' for Inactive)
REMARK    1  A    between atoms: C_2  and  C_4
REMARK    2  A    between atoms: C_4  and  O_5
REMARK    3  A    between atoms: O_5  and  C_6
REMARK    4  A    between atoms: C_6  and  C_7
REMARK    5  A    between atoms: N_9  and  C_10
REMARK    6  A    between atoms: C_21  and  C_24
REMARK                            x       y       z     vdW  Elec       q    Type
REMARK                         _______ _______ _______ _____ _____    ______ ____
ROOT
ATOM     10  C   UNL     1      -3.503   2.602  25.254  0.00  0.00    +0.124 C 
ATOM     11  C   UNL     1      -4.323   2.661  25.182  0.00  0.00    +0.045 C 
ATOM     12  C   UNL     1      -4.617   1.912  25.003  0.00  0.00    +0.096 C 
ATOM     13  N   UNL     1      -3.980   1.389  24.963  0.00  0.00    -0.268 N 
ATOM     14  C   UNL     1      -3.292   1.816  25.119  0.00  0.00    +0.174 C 
ATOM     15  C   UNL     1      -2.513   1.544  25.144  0.00  0.00    +0.265 C 
ATOM     16  O   UNL     1      -1.940   2.113  25.316  0.00  0.00    -0.271 OA
ATOM     17  N   UNL     1      -2.231   0.779  25.020  0.00  0.00    -0.178 NA
ATOM     18  C   UNL     1      -2.658   0.096  24.840  0.00  0.00    +0.078 A 
ATOM     19  C   UNL     1      -3.472   0.011  24.740  0.00  0.00    +0.069 A 
ATOM     20  C   UNL     1      -3.790  -0.730  24.560  0.00  0.00    +0.006 A 
ATOM     21  C   UNL     1      -3.293  -1.383  24.480  0.00  0.00    +0.002 A 
ATOM     22  C   UNL     1      -2.479  -1.298  24.580  0.00  0.00    +0.001 A 
ATOM     23  C   UNL     1      -2.162  -0.558  24.760  0.00  0.00    +0.017 A 
ATOM     31  C   UNL     1      -4.061   0.586  24.795  0.00  0.00    +0.251 C 
ATOM     32  O   UNL     1      -4.832   0.323  24.664  0.00  0.00    -0.270 OA
ENDROOT
BRANCH  21  24
ATOM     24  C   UNL     1      -3.611  -2.123  24.300  0.00  0.00    +0.027 A 
ATOM     25  C   UNL     1      -4.020  -2.234  23.591  0.00  0.00    +0.002 A 
ATOM     26  C   UNL     1      -4.338  -2.974  23.411  0.00  0.00    +0.000 A 
ATOM     27  C   UNL     1      -4.248  -3.601  23.939  0.00  0.00    +0.002 A 
ATOM     28  C   UNL     1      -3.840  -3.490  24.646  0.00  0.00    +0.030 A 
ATOM     29  C   UNL     1      -3.522  -2.751  24.827  0.00  0.00    +0.140 A 
ATOM     30  F   UNL     1      -3.114  -2.639  25.535  0.00  0.00    -0.204 F 
ENDBRANCH  21  24
BRANCH  10   9
ATOM      7  C   UNL     1      -3.259   3.998  25.434  0.00  0.00    +0.272 C 
ATOM      8  O   UNL     1      -4.050   4.159  25.262  0.00  0.00    -0.271 OA
ATOM      9  N   UNL     1      -2.986   3.220  25.430  0.00  0.00    -0.203 NA
BRANCH   7   6
ATOM      6  C   UNL     1      -2.742   4.616  25.610  0.00  0.00    +0.229 C 
BRANCH   6   5
ATOM      5  O   UNL     1      -2.156   4.831  25.070  0.00  0.00    -0.333 OA
BRANCH   5   4
ATOM      4  C   UNL     1      -1.532   5.314  25.309  0.00  0.00    +0.257 C 
BRANCH   4   2
ATOM      1  O   UNL     1      -0.311   4.760  24.813  0.00  0.00    -0.243 OA
ATOM      2  C   UNL     1      -0.856   5.378  24.840  0.00  0.00    +0.394 C 
ATOM      3  O   UNL     1      -0.726   6.062  24.397  0.00  0.00    -0.243 OA
ENDBRANCH   4   2
ENDBRANCH   5   4
ENDBRANCH   6   5
ENDBRANCH   7   6
ENDBRANCH  10   9
TORSDOF 6
ENDMDL
MODEL 5
REMARK VINA RESULT:      -7.2      3.139      4.589
REMARK  Name = 
REMARK  6 active torsions:
REMARK  status: ('A' for Active; 'I' for Inactive)
REMARK    1  A    between atoms: C_2  and  C_4
REMARK    2  A    between atoms: C_4  and  O_5
REMARK    3  A    between atoms: O_5  and  C_6
REMARK    4  A    between atoms: C_6  and  C_7
REMARK    5  A    between atoms: N_9  and  C_10
REMARK    6  A    between atoms: C_21  and  C_24
REMARK                            x       y       z     vdW  Elec       q    Type
REMARK                         _______ _______ _______ _____ _____    ______ ____
ROOT
ATOM     10  C   UNL     1      -3.719   0.210  24.785  0.00  0.00    +0.124 C 
ATOM     11  C   UNL     1      -4.369   0.567  24.423  0.00  0.00    +0.045 C 
ATOM     12  C   UNL     1      -4.203   1.371  24.338  0.00  0.00    +0.096 C 
ATOM     13  N   UNL     1      -3.452   1.511  24.648  0.00  0.00    -0.268 N 
ATOM     14  C   UNL     1      -3.153   0.794  24.924  0.00  0.00    +0.174 C 
ATOM     15  C   UNL     1      -2.424   0.644  25.281  0.00  0.00    +0.265 C 
ATOM     16  O   UNL     1      -2.287  -0.141  25.499  0.00  0.00    -0.271 OA
ATOM     17  N   UNL     1      -1.815   1.173  25.450  0.00  0.00    -0.178 NA
ATOM     18  C   UNL     1      -1.784   1.985  25.303  0.00  0.00    +0.078 A 
ATOM     19  C   UNL     1      -2.354   2.466  24.952  0.00  0.00    +0.069 A 
ATOM     20  C   UNL     1      -2.210   3.273  24.856  0.00  0.00    +0.006 A 
ATOM     21  C   UNL     1      -1.497   3.599  25.112  0.00  0.00    +0.002 A 
ATOM     22  C   UNL     1      -0.926   3.117  25.464  0.00  0.00    +0.001 A 
ATOM     23  C   UNL     1      -1.070   2.310  25.559  0.00  0.00    +0.017 A 
ATOM     31  C   UNL     1      -3.097   2.255  24.660  0.00  0.00    +0.251 C 
ATOM     32  O   UNL     1      -3.542   2.870  24.338  0.00  0.00    -0.270 OA
ENDROOT
BRANCH  21  24
ATOM     24  C   UNL     1      -1.354   4.405  25.017  0.00  0.00    +0.027 A 
ATOM     25  C   UNL     1      -1.841   4.957  25.390  0.00  0.00    +0.002 A 
ATOM     26  C   UNL     1      -1.699   5.764  25.294  0.00  0.00    +0.000 A 
ATOM     27  C   UNL     1      -1.069   6.019  24.826  0.00  0.00    +0.002 A 
ATOM     28  C   UNL     1      -0.582   5.467  24.453  0.00  0.00    +0.030 A 
ATOM     29  C   UNL     1      -0.724   4.661  24.548  0.00  0.00    +0.140 A 
ATOM     30  F   UNL     1      -0.238   4.109  24.176  0.00  0.00    -0.204 F 
ENDBRANCH  21  24
BRANCH  10   9
ATOM      7  C   UNL     1      -4.084  -1.153  24.558  0.00  0.00    +0.272 C 
ATOM      8  O   UNL     1      -4.589  -0.916  23.951  0.00  0.00    -0.271 OA
ATOM      9  N   UNL     1      -3.649  -0.589  24.975  0.00  0.00    -0.203 NA
BRANCH   7   6
ATOM      6  C   UNL     1      -4.014  -1.952  24.748  0.00  0.00    +0.229 C 
BRANCH   6   5
ATOM      5  O   UNL     1      -3.622  -2.466  24.235  0.00  0.00    -0.333 OA
BRANCH   5   4
ATOM      4  C   UNL     1      -3.162  -3.080  24.537  0.00  0.00    +0.257 C 
BRANCH   4   2
ATOM      1  O   UNL     1      -1.735  -3.101  24.476  0.00  0.00    -0.243 OA
ATOM      2  C   UNL     1      -2.466  -3.302  24.154  0.00  0.00    +0.394 C 
ATOM      3  O   UNL     1      -2.502  -3.726  23.447  0.00  0.00    -0.243 OA
ENDBRANCH   4   2
ENDBRANCH   5   4
ENDBRANCH   6   5
ENDBRANCH   7   6
ENDBRANCH  10   9
TORSDOF 6
ENDMDL
