REMARK  Name = 
REMARK  5 active torsions:
REMARK  status: ('A' for Active; 'I' for Inactive)
REMARK    1  A    between atoms: C_7  and  N_10
REMARK    2  A    between atoms: C_14  and  C_15
REMARK    3  A    between atoms: C_17  and  C_20
REMARK    4  A    between atoms: C_23  and  O_24
REMARK    5  A    between atoms: O_24  and  C_25
REMARK                            x       y       z     vdW  Elec       q    Type
REMARK                         _______ _______ _______ _____ _____    ______ ____
ROOT
ATOM     15  C   UNL     1       3.635  -4.803   0.000  0.00  0.00    +0.251 A 
ATOM     16  N   UNL     1       2.967  -5.287   0.000  0.00  0.00    -0.190 NA
ATOM     17  C   UNL     1       2.300  -4.803   0.000  0.00  0.00    +0.205 A 
ATOM     18  N   UNL     1       2.555  -4.018   0.000  0.00  0.00    -0.056 NA
ATOM     19  O   UNL     1       3.380  -4.018   0.000  0.00  0.00    -0.336 OA
ENDROOT
BRANCH  17  20
ATOM     20  C   UNL     1       1.515  -5.057   0.000  0.00  0.00    +0.058 A 
ATOM     21  C   UNL     1       1.343  -5.864   0.000  0.00  0.00    +0.010 A 
ATOM     22  C   UNL     1       0.559  -6.119   0.000  0.00  0.00    +0.058 A 
ATOM     23  C   UNL     1      -0.054  -5.567   0.000  0.00  0.00    +0.225 A 
ATOM     31  N   UNL     1       0.117  -4.760   0.000  0.00  0.00    -0.210 NA
ATOM     32  C   UNL     1       0.902  -4.505   0.000  0.00  0.00    +0.105 A 
BRANCH  23  24
ATOM     24  O   UNL     1      -0.839  -5.822   0.000  0.00  0.00    -0.464 OA
BRANCH  24  25
ATOM     25  C   UNL     1      -1.452  -5.270   0.000  0.00  0.00    +0.168 C 
ATOM     26  C   UNL     1      -2.237  -5.525   0.000  0.00  0.00    +0.044 C 
ATOM     27  C   UNL     1      -2.850  -4.973   0.000  0.00  0.00    +0.004 C 
ATOM     28  C   UNL     1      -2.678  -4.166   0.000  0.00  0.00    +0.000 C 
ATOM     29  C   UNL     1      -1.893  -3.911   0.000  0.00  0.00    +0.004 C 
ATOM     30  C   UNL     1      -1.280  -4.463   0.000  0.00  0.00    +0.044 C 
ENDBRANCH  24  25
ENDBRANCH  23  24
ENDBRANCH  17  20
BRANCH  15  14
ATOM     10  N   UNL     1       5.087  -4.572   0.000  0.00  0.00    -0.268 NA
ATOM     11  C   UNL     1       5.754  -5.057   0.000  0.00  0.00    +0.072 C 
ATOM     12  C   UNL     1       5.499  -5.842   0.000  0.00  0.00    +0.019 C 
ATOM     13  C   UNL     1       4.674  -5.842   0.000  0.00  0.00    +0.027 C 
ATOM     14  C   UNL     1       4.419  -5.057   0.000  0.00  0.00    +0.138 C 
BRANCH  10   7
ATOM      1  C   UNL     1       4.372  -0.860   0.000  0.00  0.00    +0.095 C 
ATOM      2  C   UNL     1       5.087  -1.272   0.000  0.00  0.00    +0.226 C 
ATOM      3  O   UNL     1       5.801  -0.860   0.000  0.00  0.00    -0.275 OA
ATOM      4  N   UNL     1       5.087  -2.098   0.000  0.00  0.00    -0.279 N 
ATOM      5  C   UNL     1       5.801  -2.510   0.000  0.00  0.00    +0.095 C 
ATOM      6  C   UNL     1       5.801  -3.335   0.000  0.00  0.00    +0.038 C 
ATOM      7  C   UNL     1       5.087  -3.748   0.000  0.00  0.00    +0.061 C 
ATOM      8  C   UNL     1       4.372  -3.335   0.000  0.00  0.00    +0.038 C 
ATOM      9  C   UNL     1       4.372  -2.510   0.000  0.00  0.00    +0.095 C 
ENDBRANCH  10   7
ENDBRANCH  15  14
TORSDOF 5
