MODEL 1
REMARK VINA RESULT:      -9.7      0.000      0.000
REMARK  Name = 
REMARK  6 active torsions:
REMARK  status: ('A' for Active; 'I' for Inactive)
REMARK    1  A    between atoms: C_3  and  C_4
REMARK    2  A    between atoms: C_4  and  N_5
REMARK    3  A    between atoms: C_6  and  C_8
REMARK    4  A    between atoms: C_15  and  N_16
REMARK    5  A    between atoms: N_16  and  C_17
REMARK    6  A    between atoms: C_17  and  C_18
REMARK                            x       y       z     vdW  Elec       q    Type
REMARK                         _______ _______ _______ _____ _____    ______ ____
ROOT
ATOM      1  O   UNL     1      -1.192   0.308  25.190  0.00  0.00    -0.219 OA
ATOM      2  C   UNL     1      -1.894   0.714  25.036  0.00  0.00    +0.199 C 
ATOM      3  C   UNL     1      -2.001   1.530  25.081  0.00  0.00    +0.169 C 
ATOM     13  O   UNL     1      -2.785   1.695  24.883  0.00  0.00    -0.350 OA
ATOM     14  C   UNL     1      -3.162   0.980  24.717  0.00  0.00    +0.162 C 
ATOM     15  C   UNL     1      -2.611   0.374  24.811  0.00  0.00    +0.135 C 
ENDROOT
BRANCH   3   4
ATOM      4  C   UNL     1      -1.426   2.085  25.287  0.00  0.00    +0.147 C 
BRANCH   4   5
ATOM      5  N   UNL     1      -1.538   2.882  25.107  0.00  0.00    -0.203 NA
ATOM      6  C   UNL     1      -1.001   3.446  25.380  0.00  0.00    +0.241 C 
ATOM      7  O   UNL     1      -0.353   3.212  25.834  0.00  0.00    -0.273 OA
BRANCH   6   8
ATOM      8  C   UNL     1      -1.113   4.243  25.200  0.00  0.00    +0.078 C 
ATOM      9  C   UNL     1      -1.761   4.704  25.420  0.00  0.00    +0.009 C 
ATOM     10  C   UNL     1      -1.645   5.465  25.125  0.00  0.00    +0.001 C 
ATOM     11  C   UNL     1      -0.926   5.475  24.721  0.00  0.00    +0.001 C 
ATOM     12  C   UNL     1      -0.597   4.720  24.768  0.00  0.00    +0.009 C 
ENDBRANCH   6   8
ENDBRANCH   4   5
ENDBRANCH   3   4
BRANCH  15  16
ATOM     16  N   UNL     1      -2.753  -0.431  24.700  0.00  0.00    -0.209 NA
BRANCH  16  17
ATOM     17  C   UNL     1      -3.524  -0.722  24.731  0.00  0.00    +0.115 C 
BRANCH  17  18
ATOM     18  C   UNL     1      -3.674  -1.512  24.546  0.00  0.00    -0.002 A 
ATOM     19  C   UNL     1      -4.145  -1.701  23.896  0.00  0.00    +0.018 A 
ATOM     20  C   UNL     1      -4.296  -2.491  23.710  0.00  0.00    +0.099 A 
ATOM     21  N   UNL     1      -3.975  -3.092  24.176  0.00  0.00    -0.242 NA
ATOM     22  C   UNL     1      -3.504  -2.903  24.827  0.00  0.00    +0.099 A 
ATOM     23  C   UNL     1      -3.354  -2.113  25.012  0.00  0.00    +0.018 A 
ENDBRANCH  17  18
ENDBRANCH  16  17
ENDBRANCH  15  16
TORSDOF 6
ENDMDL
MODEL 2
REMARK VINA RESULT:      -9.5      1.088      5.956
REMARK  Name = 
REMARK  6 active torsions:
REMARK  status: ('A' for Active; 'I' for Inactive)
REMARK    1  A    between atoms: C_3  and  C_4
REMARK    2  A    between atoms: C_4  and  N_5
REMARK    3  A    between atoms: C_6  and  C_8
REMARK    4  A    between atoms: C_15  and  N_16
REMARK    5  A    between atoms: N_16  and  C_17
REMARK    6  A    between atoms: C_17  and  C_18
REMARK                            x       y       z     vdW  Elec       q    Type
REMARK                         _______ _______ _______ _____ _____    ______ ____
ROOT
ATOM      1  O   UNL     1      -3.808   2.080  24.120  0.00  0.00    -0.219 OA
ATOM      2  C   UNL     1      -3.167   1.701  24.475  0.00  0.00    +0.199 C 
ATOM      3  C   UNL     1      -3.091   0.889  24.598  0.00  0.00    +0.169 C 
ATOM     13  O   UNL     1      -2.367   0.754  24.969  0.00  0.00    -0.350 OA
ATOM     14  C   UNL     1      -1.994   1.483  25.074  0.00  0.00    +0.162 C 
ATOM     15  C   UNL     1      -2.488   2.068  24.769  0.00  0.00    +0.135 C 
ENDROOT
BRANCH   3   4
ATOM      4  C   UNL     1      -3.643   0.313  24.388  0.00  0.00    +0.147 C 
BRANCH   4   5
ATOM      5  N   UNL     1      -3.458  -0.486  24.472  0.00  0.00    -0.203 NA
ATOM      6  C   UNL     1      -4.028  -1.061  24.312  0.00  0.00    +0.241 C 
ATOM      7  O   UNL     1      -4.783  -0.836  24.068  0.00  0.00    -0.273 OA
BRANCH   6   8
ATOM      8  C   UNL     1      -3.842  -1.861  24.396  0.00  0.00    +0.078 C 
ATOM      9  C   UNL     1      -3.460  -2.205  25.041  0.00  0.00    +0.009 C 
ATOM     10  C   UNL     1      -3.388  -3.013  24.894  0.00  0.00    +0.001 C 
ATOM     11  C   UNL     1      -3.726  -3.169  24.157  0.00  0.00    +0.001 C 
ATOM     12  C   UNL     1      -4.006  -2.457  23.850  0.00  0.00    +0.009 C 
ENDBRANCH   6   8
ENDBRANCH   4   5
ENDBRANCH   3   4
BRANCH  15  16
ATOM     16  N   UNL     1      -2.333   2.878  24.760  0.00  0.00    -0.209 NA
BRANCH  16  17
ATOM     17  C   UNL     1      -1.711   3.183  25.207  0.00  0.00    +0.115 C 
BRANCH  17  18
ATOM     18  C   UNL     1      -1.495   3.976  25.128  0.00  0.00    -0.002 A 
ATOM     19  C   UNL     1      -2.024   4.571  25.346  0.00  0.00    +0.018 A 
ATOM     20  C   UNL     1      -1.809   5.363  25.266  0.00  0.00    +0.099 A 
ATOM     21  N   UNL     1      -1.065   5.560  24.969  0.00  0.00    -0.242 NA
ATOM     22  C   UNL     1      -0.536   4.966  24.751  0.00  0.00    +0.099 A 
ATOM     23  C   UNL     1      -0.752   4.173  24.831  0.00  0.00    +0.018 A 
ENDBRANCH  17  18
ENDBRANCH  16  17
ENDBRANCH  15  16
TORSDOF 6
ENDMDL
