REMARK  Name = 
REMARK  7 active torsions:
REMARK  status: ('A' for Active; 'I' for Inactive)
REMARK    1  A    between atoms: C_2  and  C_23
REMARK    2  A    between atoms: C_9  and  N_10
REMARK    3  A    between atoms: C_11  and  C_13
REMARK    4  A    between atoms: C_13  and  C_14
REMARK    5  A    between atoms: C_14  and  O_15
REMARK    6  A    between atoms: C_23  and  C_25
REMARK    7  A    between atoms: N_27  and  C_28
REMARK                            x       y       z     vdW  Elec       q    Type
REMARK                         _______ _______ _______ _____ _____    ______ ____
ROOT
ATOM      1  C   UNL     1      -2.858   2.475   0.000  0.00  0.00    +0.052 C 
ATOM      2  C   UNL     1      -2.858   3.300   0.000  0.00  0.00    -0.001 C 
ATOM      3  C   UNL     1      -2.143   3.712   0.000  0.00  0.00    -0.000 C 
ATOM      4  C   UNL     1      -1.429   3.300   0.000  0.00  0.00    -0.001 C 
ATOM      5  C   UNL     1      -1.429   4.125   0.000  0.00  0.00    -0.000 C 
ATOM      6  C   UNL     1      -0.715   3.712   0.000  0.00  0.00    +0.002 C 
ATOM      7  C   UNL     1       0.000   3.300   0.000  0.00  0.00    +0.022 C 
ATOM      8  C   UNL     1       0.000   2.475   0.000  0.00  0.00    +0.095 C 
ATOM     16  C   UNL     1      -0.715   2.062   0.000  0.00  0.00    +0.019 C 
ATOM     17  C   UNL     1      -0.715   1.238   0.000  0.00  0.00    +0.002 C 
ATOM     18  C   UNL     1      -1.429   2.475   0.000  0.00  0.00    +0.045 C 
ATOM     19  C   UNL     1      -2.143   2.062   0.000  0.00  0.00    +0.145 C 
ATOM     20  O   UNL     1      -2.143   1.238   0.000  0.00  0.00    -0.224 OA
ENDROOT
BRANCH   8   9
ATOM      9  N   UNL     1       0.715   2.062   0.000  0.00  0.00    -0.207 NA
ATOM     10  C   UNL     1       1.429   2.475   0.000  0.00  0.00    +0.244 C 
ATOM     11  O   UNL     1       1.429   3.300   0.000  0.00  0.00    -0.273 OA
BRANCH  10  12
ATOM     12  C   UNL     1       2.143   2.062   0.000  0.00  0.00    +0.119 C 
BRANCH  12  13
ATOM     13  C   UNL     1       2.858   2.475   0.000  0.00  0.00    +0.152 C 
BRANCH  13  14
ATOM     14  O   UNL     1       3.572   2.062   0.000  0.00  0.00    -0.351 OA
ATOM     15  C   UNL     1       4.287   2.475   0.000  0.00  0.00    +0.174 C 
ENDBRANCH  13  14
ENDBRANCH  12  13
ENDBRANCH  10  12
ENDBRANCH   8   9
BRANCH   1  21
ATOM     21  C   UNL     1      -3.572   2.062   0.000  0.00  0.00    +0.077 C 
ATOM     22  C   UNL     1      -3.572   1.238   0.000  0.00  0.00    +0.009 C 
BRANCH  21  23
ATOM     23  C   UNL     1      -4.287   2.475   0.000  0.00  0.00    +0.241 C 
ATOM     24  O   UNL     1      -4.287   3.300   0.000  0.00  0.00    -0.273 OA
ATOM     25  N   UNL     1      -5.001   2.062   0.000  0.00  0.00    -0.207 NA
BRANCH  25  26
ATOM     26  C   UNL     1      -5.716   2.475   0.000  0.00  0.00    +0.095 C 
ATOM     27  C   UNL     1      -6.469   2.139   0.000  0.00  0.00    +0.022 C 
ATOM     28  C   UNL     1      -7.021   2.752   0.000  0.00  0.00    +0.002 C 
ATOM     29  C   UNL     1      -6.609   3.467   0.000  0.00  0.00    +0.002 C 
ATOM     30  C   UNL     1      -5.802   3.296   0.000  0.00  0.00    +0.022 C 
ENDBRANCH  25  26
ENDBRANCH  21  23
ENDBRANCH   1  21
TORSDOF 7
