REMARK  Name = 
REMARK  5 active torsions:
REMARK  status: ('A' for Active; 'I' for Inactive)
REMARK    1  A    between atoms: C_2  and  N_4
REMARK    2  A    between atoms: N_4  and  C_5
REMARK    3  A    between atoms: C_8  and  C_9
REMARK    4  A    between atoms: C_9  and  N_10
REMARK    5  A    between atoms: N_13  and  C_14
REMARK                            x       y       z     vdW  Elec       q    Type
REMARK                         _______ _______ _______ _____ _____    ______ ____
ROOT
ATOM      5  C   UNL     1      -0.981   2.555   0.000  0.00  0.00    +0.135 C 
ATOM      6  C   UNL     1      -0.568   3.269   0.000  0.00  0.00    +0.162 C 
ATOM      7  O   UNL     1       0.239   3.098   0.000  0.00  0.00    -0.350 OA
ATOM      8  C   UNL     1       0.325   2.277   0.000  0.00  0.00    +0.169 C 
ATOM     17  C   UNL     1      -0.429   1.942   0.000  0.00  0.00    +0.199 C 
ATOM     18  O   UNL     1      -0.600   1.135   0.000  0.00  0.00    -0.219 OA
ENDROOT
BRANCH   5   4
ATOM      4  N   UNL     1      -1.801   2.468   0.000  0.00  0.00    -0.216 NA
BRANCH   4   2
ATOM      1  C   UNL     1      -3.107   3.050   0.000  0.00  0.00    +0.019 C 
ATOM      2  C   UNL     1      -2.286   3.136   0.000  0.00  0.00    +0.073 C 
ATOM      3  C   UNL     1      -1.950   3.889   0.000  0.00  0.00    +0.019 C 
ENDBRANCH   4   2
ENDBRANCH   5   4
BRANCH   8   9
ATOM      9  C   UNL     1       1.040   1.865   0.000  0.00  0.00    +0.149 C 
BRANCH   9  10
ATOM     10  N   UNL     1       1.754   2.277   0.000  0.00  0.00    -0.185 NA
ATOM     11  C   UNL     1       2.469   1.865   0.000  0.00  0.00    +0.339 C 
ATOM     12  O   UNL     1       2.469   1.040   0.000  0.00  0.00    -0.249 OA
ATOM     13  N   UNL     1       3.183   2.277   0.000  0.00  0.00    -0.189 NA
BRANCH  13  14
ATOM     14  C   UNL     1       3.897   1.865   0.000  0.00  0.00    +0.097 C 
ATOM     15  C   UNL     1       4.612   2.277   0.000  0.00  0.00    +0.023 C 
ATOM     16  C   UNL     1       3.897   1.040   0.000  0.00  0.00    +0.023 C 
ENDBRANCH  13  14
ENDBRANCH   9  10
ENDBRANCH   8   9
TORSDOF 5
