MODEL 1
REMARK VINA RESULT:      -9.7      0.000      0.000
REMARK  Name = 
REMARK  6 active torsions:
REMARK  status: ('A' for Active; 'I' for Inactive)
REMARK    1  A    between atoms: C_2  and  C_3
REMARK    2  A    between atoms: C_3  and  C_4
REMARK    3  A    between atoms: C_3  and  C_6
REMARK    4  A    between atoms: N_8  and  C_9
REMARK    5  A    between atoms: C_12  and  C_15
REMARK    6  A    between atoms: CA_21  and  C_22
REMARK                            x       y       z     vdW  Elec       q    Type
REMARK                         _______ _______ _______ _____ _____    ______ ____
ROOT
ATOM      9  C   UNL     1      -2.527   0.657  24.438  0.00  0.00    +0.073 A 
ATOM     10  C   UNL     1      -2.076   0.864  25.097  0.00  0.00    +0.016 A 
ATOM     11  C   UNL     1      -1.876   1.653  25.229  0.00  0.00    -0.001 A 
ATOM     12  C   UNL     1      -2.128   2.237  24.701  0.00  0.00    +0.006 A 
ATOM     13  C   UNL     1      -2.579   2.030  24.043  0.00  0.00    -0.001 A 
ATOM     14  C   UNL     1      -2.779   1.241  23.910  0.00  0.00    +0.016 A 
ENDROOT
BRANCH  12  15
ATOM     15  C   UNL     1      -1.928   3.026  24.834  0.00  0.00    +0.160 C 
ATOM     16  O   UNL     1      -1.183   3.305  24.620  0.00  0.00    -0.341 OA
ATOM     17  C   UNL     1      -0.983   4.095  24.753  0.00  0.00    +0.229 C 
ATOM     18  C   UNL     1      -1.530   4.605  25.100  0.00  0.00    +0.272 C 
ATOM     19  O   UNL     1      -1.331   5.395  25.234  0.00  0.00    -0.271 OA
ATOM     20  N   UNL     1      -2.277   4.326  25.315  0.00  0.00    -0.199 NA
ATOM     21  CA  UNL     1      -2.475   3.537  25.182  0.00  0.00    +0.159 C 
BRANCH  21  22
ATOM     22  C   UNL     1      -3.222   3.258  25.396  0.00  0.00    +0.206 C 
ATOM     23  O   UNL     1      -3.757   3.761  25.773  0.00  0.00    -0.218 OA
ENDBRANCH  21  22
ENDBRANCH  12  15
BRANCH   9   8
ATOM      6  C   UNL     1      -3.372  -0.466  24.696  0.00  0.00    +0.245 C 
ATOM      7  O   UNL     1      -3.818  -0.010  25.221  0.00  0.00    -0.273 OA
ATOM      8  N   UNL     1      -2.727  -0.132  24.305  0.00  0.00    -0.179 NA
BRANCH   6   3
ATOM      3  C   UNL     1      -3.571  -1.255  24.564  0.00  0.00    +0.079 C 
BRANCH   3   2
ATOM      1  C   UNL     1      -4.283  -2.081  23.641  0.00  0.00    +0.001 C 
ATOM      2  C   UNL     1      -4.267  -1.443  24.163  0.00  0.00    +0.009 C 
ENDBRANCH   3   2
BRANCH   3   4
ATOM      4  C   UNL     1      -3.075  -1.856  24.833  0.00  0.00    +0.009 C 
ATOM      5  C   UNL     1      -3.367  -2.435  25.343  0.00  0.00    +0.001 C 
ENDBRANCH   3   4
ENDBRANCH   6   3
ENDBRANCH   9   8
TORSDOF 6
ENDMDL
MODEL 2
REMARK VINA RESULT:      -9.5      1.949      2.558
REMARK  Name = 
REMARK  6 active torsions:
REMARK  status: ('A' for Active; 'I' for Inactive)
REMARK    1  A    between atoms: C_2  and  C_3
REMARK    2  A    between atoms: C_3  and  C_4
REMARK    3  A    between atoms: C_3  and  C_6
REMARK    4  A    between atoms: N_8  and  C_9
REMARK    5  A    between atoms: C_12  and  C_15
REMARK    6  A    between atoms: CA_21  and  C_22
REMARK                            x       y       z     vdW  Elec       q    Type
REMARK                         _______ _______ _______ _____ _____    ______ ____
ROOT
ATOM      9  C   UNL     1      -3.664   0.012  24.564  0.00  0.00    +0.073 A 
ATOM     10  C   UNL     1      -4.456   0.150  24.380  0.00  0.00    +0.016 A 
ATOM     11  C   UNL     1      -4.805   0.872  24.573  0.00  0.00    -0.001 A 
ATOM     12  C   UNL     1      -4.360   1.457  24.949  0.00  0.00    +0.006 A 
ATOM     13  C   UNL     1      -3.569   1.320  25.133  0.00  0.00    -0.001 A 
ATOM     14  C   UNL     1      -3.219   0.597  24.940  0.00  0.00    +0.016 A 
ENDROOT
BRANCH  12  15
ATOM     15  C   UNL     1      -4.710   2.180  25.142  0.00  0.00    +0.160 C 
ATOM     16  O   UNL     1      -5.218   2.233  25.789  0.00  0.00    -0.341 OA
ATOM     17  C   UNL     1      -5.567   2.956  25.982  0.00  0.00    +0.229 C 
ATOM     18  C   UNL     1      -5.408   3.625  25.526  0.00  0.00    +0.272 C 
ATOM     19  O   UNL     1      -5.756   4.348  25.717  0.00  0.00    -0.271 OA
ATOM     20  N   UNL     1      -4.899   3.571  24.878  0.00  0.00    -0.199 NA
ATOM     21  CA  UNL     1      -4.550   2.849  24.686  0.00  0.00    +0.159 C 
BRANCH  21  22
ATOM     22  C   UNL     1      -4.042   2.795  24.038  0.00  0.00    +0.206 C 
ATOM     23  O   UNL     1      -3.911   3.456  23.562  0.00  0.00    -0.218 OA
ENDBRANCH  21  22
ENDBRANCH  12  15
BRANCH   9   8
ATOM      6  C   UNL     1      -3.299  -1.322  24.924  0.00  0.00    +0.245 C 
ATOM      7  O   UNL     1      -3.633  -1.211  25.672  0.00  0.00    -0.273 OA
ATOM      8  N   UNL     1      -3.315  -0.710  24.371  0.00  0.00    -0.179 NA
BRANCH   6   3
ATOM      3  C   UNL     1      -2.951  -2.044  24.732  0.00  0.00    +0.079 C 
BRANCH   3   2
ATOM      1  C   UNL     1      -3.624  -3.207  24.246  0.00  0.00    +0.001 C 
ATOM      2  C   UNL     1      -3.354  -2.748  24.877  0.00  0.00    +0.009 C 
ENDBRANCH   3   2
BRANCH   3   4
ATOM      4  C   UNL     1      -2.198  -2.061  24.394  0.00  0.00    +0.009 C 
ATOM      5  C   UNL     1      -1.598  -2.506  24.745  0.00  0.00    +0.001 C 
ENDBRANCH   3   4
ENDBRANCH   6   3
ENDBRANCH   9   8
TORSDOF 6
ENDMDL
MODEL 3
REMARK VINA RESULT:      -9.1      1.341      5.071
REMARK  Name = 
REMARK  6 active torsions:
REMARK  status: ('A' for Active; 'I' for Inactive)
REMARK    1  A    between atoms: C_2  and  C_3
REMARK    2  A    between atoms: C_3  and  C_4
REMARK    3  A    between atoms: C_3  and  C_6
REMARK    4  A    between atoms: N_8  and  C_9
REMARK    5  A    between atoms: C_12  and  C_15
REMARK    6  A    between atoms: CA_21  and  C_22
REMARK                            x       y       z     vdW  Elec       q    Type
REMARK                         _______ _______ _______ _____ _____    ______ ____
ROOT
ATOM      9  C   UNL     1      -3.006   1.736  24.628  0.00  0.00    +0.073 A 
ATOM     10  C   UNL     1      -2.633   1.311  24.028  0.00  0.00    +0.016 A 
ATOM     11  C   UNL     1      -2.783   0.506  23.936  0.00  0.00    -0.001 A 
ATOM     12  C   UNL     1      -3.308   0.123  24.447  0.00  0.00    +0.006 A 
ATOM     13  C   UNL     1      -3.681   0.547  25.047  0.00  0.00    -0.001 A 
ATOM     14  C   UNL     1      -3.531   1.353  25.139  0.00  0.00    +0.016 A 
ENDROOT
BRANCH  12  15
ATOM     15  C   UNL     1      -3.458  -0.683  24.355  0.00  0.00    +0.160 C 
ATOM     16  O   UNL     1      -4.126  -0.934  23.943  0.00  0.00    -0.341 OA
ATOM     17  C   UNL     1      -4.276  -1.741  23.851  0.00  0.00    +0.229 C 
ATOM     18  C   UNL     1      -3.757  -2.296  24.172  0.00  0.00    +0.272 C 
ATOM     19  O   UNL     1      -3.906  -3.102  24.081  0.00  0.00    -0.271 OA
ATOM     20  N   UNL     1      -3.087  -2.044  24.584  0.00  0.00    -0.199 NA
ATOM     21  CA  UNL     1      -2.938  -1.238  24.675  0.00  0.00    +0.159 C 
BRANCH  21  22
ATOM     22  C   UNL     1      -2.269  -0.986  25.088  0.00  0.00    +0.206 C 
ATOM     23  O   UNL     1      -1.728  -1.541  25.373  0.00  0.00    -0.218 OA
ENDBRANCH  21  22
ENDBRANCH  12  15
BRANCH   9   8
ATOM      6  C   UNL     1      -2.244   2.794  25.212  0.00  0.00    +0.245 C 
ATOM      7  O   UNL     1      -1.781   2.240  25.613  0.00  0.00    -0.273 OA
ATOM      8  N   UNL     1      -2.856   2.541  24.720  0.00  0.00    -0.179 NA
BRANCH   6   3
ATOM      3  C   UNL     1      -2.094   3.600  25.303  0.00  0.00    +0.079 C 
BRANCH   3   2
ATOM      1  C   UNL     1      -2.805   4.521  26.133  0.00  0.00    +0.001 C 
ATOM      2  C   UNL     1      -2.719   4.126  25.413  0.00  0.00    +0.009 C 
ENDBRANCH   3   2
BRANCH   3   4
ATOM      4  C   UNL     1      -1.318   3.879  25.284  0.00  0.00    +0.009 C 
ATOM      5  C   UNL     1      -1.146   4.598  24.918  0.00  0.00    +0.001 C 
ENDBRANCH   3   4
ENDBRANCH   6   3
ENDBRANCH   9   8
TORSDOF 6
ENDMDL
MODEL 4
REMARK VINA RESULT:      -8.6      2.007      5.009
REMARK  Name = 
REMARK  6 active torsions:
REMARK  status: ('A' for Active; 'I' for Inactive)
REMARK    1  A    between atoms: C_2  and  C_3
REMARK    2  A    between atoms: C_3  and  C_4
REMARK    3  A    between atoms: C_3  and  C_6
REMARK    4  A    between atoms: N_8  and  C_9
REMARK    5  A    between atoms: C_12  and  C_15
REMARK    6  A    between atoms: CA_21  and  C_22
REMARK                            x       y       z     vdW  Elec       q    Type
REMARK                         _______ _______ _______ _____ _____    ______ ____
ROOT
ATOM      9  C   UNL     1      -4.134   1.009  24.638  0.00  0.00    +0.073 A 
ATOM     10  C   UNL     1      -3.695   0.813  23.967  0.00  0.00    +0.016 A 
ATOM     11  C   UNL     1      -3.305   0.088  23.926  0.00  0.00    -0.001 A 
ATOM     12  C   UNL     1      -3.353  -0.443  24.557  0.00  0.00    +0.006 A 
ATOM     13  C   UNL     1      -3.791  -0.247  25.228  0.00  0.00    -0.001 A 
ATOM     14  C   UNL     1      -4.182   0.478  25.269  0.00  0.00    +0.016 A 
ENDROOT
BRANCH  12  15
ATOM     15  C   UNL     1      -2.962  -1.169  24.516  0.00  0.00    +0.160 C 
ATOM     16  O   UNL     1      -2.173  -1.227  24.748  0.00  0.00    -0.341 OA
ATOM     17  C   UNL     1      -1.782  -1.952  24.707  0.00  0.00    +0.229 C 
ATOM     18  C   UNL     1      -2.182  -2.620  24.433  0.00  0.00    +0.272 C 
ATOM     19  O   UNL     1      -1.792  -3.346  24.391  0.00  0.00    -0.271 OA
ATOM     20  N   UNL     1      -2.972  -2.562  24.200  0.00  0.00    -0.199 NA
ATOM     21  CA  UNL     1      -3.361  -1.837  24.242  0.00  0.00    +0.159 C 
BRANCH  21  22
ATOM     22  C   UNL     1      -4.152  -1.779  24.009  0.00  0.00    +0.206 C 
ATOM     23  O   UNL     1      -4.537  -2.437  23.696  0.00  0.00    -0.218 OA
ENDBRANCH  21  22
ENDBRANCH  12  15
BRANCH   9   8
ATOM      6  C   UNL     1      -4.144   2.390  25.005  0.00  0.00    +0.245 C 
ATOM      7  O   UNL     1      -3.373   2.320  25.291  0.00  0.00    -0.273 OA
ATOM      8  N   UNL     1      -4.524   1.734  24.679  0.00  0.00    -0.179 NA
BRANCH   6   3
ATOM      3  C   UNL     1      -4.535   3.115  25.046  0.00  0.00    +0.079 C 
BRANCH   3   2
ATOM      1  C   UNL     1      -5.655   3.703  25.710  0.00  0.00    +0.001 C 
ATOM      2  C   UNL     1      -5.345   3.139  25.193  0.00  0.00    +0.009 C 
ENDBRANCH   3   2
BRANCH   3   4
ATOM      4  C   UNL     1      -4.114   3.816  24.939  0.00  0.00    +0.009 C 
ATOM      5  C   UNL     1      -4.168   4.226  24.226  0.00  0.00    +0.001 C 
ENDBRANCH   3   4
ENDBRANCH   6   3
ENDBRANCH   9   8
TORSDOF 6
ENDMDL
