MODEL 1
REMARK VINA RESULT:     -13.2      0.000      0.000
REMARK  Name = 
REMARK  5 active torsions:
REMARK  status: ('A' for Active; 'I' for Inactive)
REMARK    1  A    between atoms: N_4  and  C_5
REMARK    2  A    between atoms: C_8  and  C_9
REMARK    3  A    between atoms: C_9  and  N_10
REMARK    4  A    between atoms: C_15  and  C_16
REMARK    5  A    between atoms: C_18  and  C_21
REMARK                            x       y       z     vdW  Elec       q    Type
REMARK                         _______ _______ _______ _____ _____    ______ ____
ROOT
ATOM     10  N   UNL     1      -4.545   1.757  25.015  0.00  0.00    -0.260 NA
ATOM     11  C   UNL     1      -5.293   1.490  24.793  0.00  0.00    +0.106 C 
ATOM     12  C   UNL     1      -5.829   2.106  24.915  0.00  0.00    +0.170 C 
ATOM     13  O   UNL     1      -6.640   2.079  24.766  0.00  0.00    -0.222 OA
ATOM     14  C   UNL     1      -5.412   2.752  25.212  0.00  0.00    +0.060 C 
ATOM     15  C   UNL     1      -4.617   2.536  25.273  0.00  0.00    +0.140 C 
ENDROOT
BRANCH  15  16
ATOM     16  C   UNL     1      -4.004   3.016  25.546  0.00  0.00    +0.251 A 
ATOM     17  N   UNL     1      -3.385   3.317  25.091  0.00  0.00    -0.190 NA
ATOM     18  C   UNL     1      -2.900   3.766  25.584  0.00  0.00    +0.203 A 
ATOM     19  N   UNL     1      -3.220   3.743  26.344  0.00  0.00    -0.056 NA
ATOM     20  O   UNL     1      -3.901   3.280  26.320  0.00  0.00    -0.336 OA
BRANCH  18  21
ATOM     21  C   UNL     1      -2.216   4.167  25.358  0.00  0.00    +0.039 A 
ATOM     22  C   UNL     1      -2.226   4.989  25.284  0.00  0.00    +0.005 A 
ATOM     23  C   UNL     1      -1.542   5.391  25.057  0.00  0.00    +0.030 A 
ATOM     24  C   UNL     1      -0.848   4.971  24.905  0.00  0.00    +0.140 A 
ATOM     25  F   UNL     1      -0.164   5.373  24.678  0.00  0.00    -0.204 F 
ATOM     26  C   UNL     1      -0.838   4.149  24.979  0.00  0.00    +0.030 A 
ATOM     27  C   UNL     1      -1.523   3.747  25.206  0.00  0.00    +0.005 A 
ENDBRANCH  18  21
ENDBRANCH  15  16
BRANCH  10   9
ATOM      9  C   UNL     1      -3.846   1.320  24.983  0.00  0.00    +0.100 C 
BRANCH   9   8
ATOM      5  C   UNL     1      -3.927  -1.116  24.553  0.00  0.00    +0.073 A 
ATOM      6  C   UNL     1      -3.978  -0.832  25.326  0.00  0.00    +0.016 A 
ATOM      7  C   UNL     1      -3.951  -0.020  25.470  0.00  0.00    -0.002 A 
ATOM      8  C   UNL     1      -3.873   0.508  24.840  0.00  0.00    -0.006 A 
ATOM     28  C   UNL     1      -3.821   0.223  24.067  0.00  0.00    -0.002 A 
ATOM     29  C   UNL     1      -3.848  -0.589  23.924  0.00  0.00    +0.016 A 
BRANCH   5   4
ATOM      1  C   UNL     1      -3.297  -3.196  24.346  0.00  0.00    +0.097 C 
ATOM      2  C   UNL     1      -3.270  -2.384  24.489  0.00  0.00    +0.246 C 
ATOM      3  O   UNL     1      -2.560  -2.028  24.711  0.00  0.00    -0.273 OA
ATOM      4  N   UNL     1      -3.954  -1.928  24.410  0.00  0.00    -0.179 NA
ENDBRANCH   5   4
ENDBRANCH   9   8
ENDBRANCH  10   9
TORSDOF 5
ENDMDL
MODEL 2
REMARK VINA RESULT:     -12.2      2.398      3.222
REMARK  Name = 
REMARK  5 active torsions:
REMARK  status: ('A' for Active; 'I' for Inactive)
REMARK    1  A    between atoms: N_4  and  C_5
REMARK    2  A    between atoms: C_8  and  C_9
REMARK    3  A    between atoms: C_9  and  N_10
REMARK    4  A    between atoms: C_15  and  C_16
REMARK    5  A    between atoms: C_18  and  C_21
REMARK                            x       y       z     vdW  Elec       q    Type
REMARK                         _______ _______ _______ _____ _____    ______ ____
ROOT
ATOM     10  N   UNL     1      -0.690   0.445  24.703  0.00  0.00    -0.260 NA
ATOM     11  C   UNL     1      -0.444  -0.155  24.192  0.00  0.00    +0.106 C 
ATOM     12  C   UNL     1       0.184   0.136  23.742  0.00  0.00    +0.170 C 
ATOM     13  O   UNL     1       0.597  -0.279  23.161  0.00  0.00    -0.222 OA
ATOM     14  C   UNL     1       0.325   0.915  23.975  0.00  0.00    +0.060 C 
ATOM     15  C   UNL     1      -0.215   1.105  24.570  0.00  0.00    +0.140 C 
ENDROOT
BRANCH  15  16
ATOM     16  C   UNL     1      -0.270   1.829  24.961  0.00  0.00    +0.251 A 
ATOM     17  N   UNL     1      -0.694   2.489  24.703  0.00  0.00    -0.190 NA
ATOM     18  C   UNL     1      -0.597   3.088  25.262  0.00  0.00    +0.203 A 
ATOM     19  N   UNL     1      -0.114   2.799  25.864  0.00  0.00    -0.056 NA
ATOM     20  O   UNL     1       0.088   2.022  25.678  0.00  0.00    -0.336 OA
BRANCH  18  21
ATOM     21  C   UNL     1      -0.927   3.844  25.224  0.00  0.00    +0.039 A 
ATOM     22  C   UNL     1      -1.679   3.981  25.533  0.00  0.00    +0.005 A 
ATOM     23  C   UNL     1      -2.008   4.737  25.496  0.00  0.00    +0.030 A 
ATOM     24  C   UNL     1      -1.585   5.355  25.149  0.00  0.00    +0.140 A 
ATOM     25  F   UNL     1      -1.914   6.111  25.111  0.00  0.00    -0.204 F 
ATOM     26  C   UNL     1      -0.833   5.217  24.839  0.00  0.00    +0.030 A 
ATOM     27  C   UNL     1      -0.503   4.461  24.877  0.00  0.00    +0.005 A 
ENDBRANCH  18  21
ENDBRANCH  15  16
BRANCH  10   9
ATOM      9  C   UNL     1      -1.303   0.392  25.252  0.00  0.00    +0.100 C 
BRANCH   9   8
ATOM      5  C   UNL     1      -3.034  -1.362  25.009  0.00  0.00    +0.073 A 
ATOM      6  C   UNL     1      -2.389  -1.485  25.508  0.00  0.00    +0.016 A 
ATOM      7  C   UNL     1      -1.812  -0.901  25.590  0.00  0.00    -0.002 A 
ATOM      8  C   UNL     1      -1.881  -0.193  25.171  0.00  0.00    -0.006 A 
ATOM     28  C   UNL     1      -2.525  -0.070  24.671  0.00  0.00    -0.002 A 
ATOM     29  C   UNL     1      -3.102  -0.655  24.590  0.00  0.00    +0.016 A 
BRANCH   5   4
ATOM      1  C   UNL     1      -4.057  -3.171  24.343  0.00  0.00    +0.097 C 
ATOM      2  C   UNL     1      -3.480  -2.587  24.424  0.00  0.00    +0.246 C 
ATOM      3  O   UNL     1      -2.775  -2.642  24.001  0.00  0.00    -0.273 OA
ATOM      4  N   UNL     1      -3.610  -1.946  24.928  0.00  0.00    -0.179 NA
ENDBRANCH   5   4
ENDBRANCH   9   8
ENDBRANCH  10   9
TORSDOF 5
ENDMDL
MODEL 3
REMARK VINA RESULT:     -12.2      2.211      5.390
REMARK  Name = 
REMARK  5 active torsions:
REMARK  status: ('A' for Active; 'I' for Inactive)
REMARK    1  A    between atoms: N_4  and  C_5
REMARK    2  A    between atoms: C_8  and  C_9
REMARK    3  A    between atoms: C_9  and  N_10
REMARK    4  A    between atoms: C_15  and  C_16
REMARK    5  A    between atoms: C_18  and  C_21
REMARK                            x       y       z     vdW  Elec       q    Type
REMARK                         _______ _______ _______ _____ _____    ______ ____
ROOT
ATOM     10  N   UNL     1      -4.159   2.118  25.152  0.00  0.00    -0.260 NA
ATOM     11  C   UNL     1      -4.643   2.708  25.463  0.00  0.00    +0.106 C 
ATOM     12  C   UNL     1      -5.425   2.447  25.417  0.00  0.00    +0.170 C 
ATOM     13  O   UNL     1      -6.091   2.864  25.666  0.00  0.00    -0.222 OA
ATOM     14  C   UNL     1      -5.422   1.695  25.077  0.00  0.00    +0.060 C 
ATOM     15  C   UNL     1      -4.639   1.492  24.914  0.00  0.00    +0.140 C 
ENDROOT
BRANCH  15  16
ATOM     16  C   UNL     1      -4.382   0.787  24.572  0.00  0.00    +0.251 A 
ATOM     17  N   UNL     1      -4.303   0.061  24.958  0.00  0.00    -0.190 NA
ATOM     18  C   UNL     1      -4.031  -0.491  24.409  0.00  0.00    +0.203 A 
ATOM     19  N   UNL     1      -3.942  -0.108  23.685  0.00  0.00    -0.056 NA
ATOM     20  O   UNL     1      -4.159   0.681  23.785  0.00  0.00    -0.336 OA
BRANCH  18  21
ATOM     21  C   UNL     1      -3.875  -1.288  24.559  0.00  0.00    +0.039 A 
ATOM     22  C   UNL     1      -4.098  -1.861  24.009  0.00  0.00    +0.005 A 
ATOM     23  C   UNL     1      -3.942  -2.658  24.159  0.00  0.00    +0.030 A 
ATOM     24  C   UNL     1      -3.564  -2.880  24.858  0.00  0.00    +0.140 A 
ATOM     25  F   UNL     1      -3.408  -3.677  25.008  0.00  0.00    -0.204 F 
ATOM     26  C   UNL     1      -3.342  -2.306  25.407  0.00  0.00    +0.030 A 
ATOM     27  C   UNL     1      -3.497  -1.510  25.258  0.00  0.00    +0.005 A 
ENDBRANCH  18  21
ENDBRANCH  15  16
BRANCH  10   9
ATOM      9  C   UNL     1      -3.337   2.149  25.090  0.00  0.00    +0.100 C 
BRANCH   9   8
ATOM      5  C   UNL     1      -2.171   4.331  25.166  0.00  0.00    +0.073 A 
ATOM      6  C   UNL     1      -2.188   3.850  25.835  0.00  0.00    +0.016 A 
ATOM      7  C   UNL     1      -2.577   3.123  25.811  0.00  0.00    -0.002 A 
ATOM      8  C   UNL     1      -2.948   2.877  25.115  0.00  0.00    -0.006 A 
ATOM     28  C   UNL     1      -2.930   3.358  24.446  0.00  0.00    -0.002 A 
ATOM     29  C   UNL     1      -2.541   4.086  24.472  0.00  0.00    +0.016 A 
BRANCH   5   4
ATOM      1  C   UNL     1      -0.621   5.851  24.931  0.00  0.00    +0.097 C 
ATOM      2  C   UNL     1      -1.010   5.124  24.906  0.00  0.00    +0.246 C 
ATOM      3  O   UNL     1      -0.627   4.462  24.596  0.00  0.00    -0.273 OA
ATOM      4  N   UNL     1      -1.782   5.058  25.191  0.00  0.00    -0.179 NA
ENDBRANCH   5   4
ENDBRANCH   9   8
ENDBRANCH  10   9
TORSDOF 5
ENDMDL
MODEL 4
REMARK VINA RESULT:     -12.1      2.913      6.085
REMARK  Name = 
REMARK  5 active torsions:
REMARK  status: ('A' for Active; 'I' for Inactive)
REMARK    1  A    between atoms: N_4  and  C_5
REMARK    2  A    between atoms: C_8  and  C_9
REMARK    3  A    between atoms: C_9  and  N_10
REMARK    4  A    between atoms: C_15  and  C_16
REMARK    5  A    between atoms: C_18  and  C_21
REMARK                            x       y       z     vdW  Elec       q    Type
REMARK                         _______ _______ _______ _____ _____    ______ ____
ROOT
ATOM     10  N   UNL     1      -0.680   0.980  24.837  0.00  0.00    -0.260 NA
ATOM     11  C   UNL     1      -0.054   1.386  24.484  0.00  0.00    +0.106 C 
ATOM     12  C   UNL     1       0.338   0.862  23.982  0.00  0.00    +0.170 C 
ATOM     13  O   UNL     1       0.997   1.037  23.518  0.00  0.00    -0.222 OA
ATOM     14  C   UNL     1      -0.046   0.133  24.024  0.00  0.00    +0.060 C 
ATOM     15  C   UNL     1      -0.675   0.207  24.553  0.00  0.00    +0.140 C 
ENDROOT
BRANCH  15  16
ATOM     16  C   UNL     1      -1.206  -0.389  24.761  0.00  0.00    +0.251 A 
ATOM     17  N   UNL     1      -1.856  -0.637  24.317  0.00  0.00    -0.190 NA
ATOM     18  C   UNL     1      -2.232  -1.243  24.731  0.00  0.00    +0.203 A 
ATOM     19  N   UNL     1      -1.814  -1.370  25.431  0.00  0.00    -0.056 NA
ATOM     20  O   UNL     1      -1.181  -0.843  25.449  0.00  0.00    -0.336 OA
BRANCH  18  21
ATOM     21  C   UNL     1      -2.907  -1.650  24.488  0.00  0.00    +0.039 A 
ATOM     22  C   UNL     1      -3.565  -1.233  24.218  0.00  0.00    +0.005 A 
ATOM     23  C   UNL     1      -4.240  -1.640  23.975  0.00  0.00    +0.030 A 
ATOM     24  C   UNL     1      -4.257  -2.465  24.001  0.00  0.00    +0.140 A 
ATOM     25  F   UNL     1      -4.932  -2.872  23.758  0.00  0.00    -0.204 F 
ATOM     26  C   UNL     1      -3.598  -2.882  24.271  0.00  0.00    +0.030 A 
ATOM     27  C   UNL     1      -2.923  -2.475  24.514  0.00  0.00    +0.005 A 
ENDBRANCH  18  21
ENDBRANCH  15  16
BRANCH  10   9
ATOM      9  C   UNL     1      -1.217   1.295  25.379  0.00  0.00    +0.100 C 
BRANCH   9   8
ATOM      5  C   UNL     1      -1.657   3.731  25.415  0.00  0.00    +0.073 A 
ATOM      6  C   UNL     1      -1.079   3.408  25.907  0.00  0.00    +0.016 A 
ATOM      7  C   UNL     1      -0.932   2.597  25.896  0.00  0.00    -0.002 A 
ATOM      8  C   UNL     1      -1.364   2.107  25.391  0.00  0.00    -0.006 A 
ATOM     28  C   UNL     1      -1.942   2.429  24.898  0.00  0.00    -0.002 A 
ATOM     29  C   UNL     1      -2.088   3.241  24.911  0.00  0.00    +0.016 A 
BRANCH   5   4
ATOM      1  C   UNL     1      -1.451   5.870  25.032  0.00  0.00    +0.097 C 
ATOM      2  C   UNL     1      -1.304   5.058  25.020  0.00  0.00    +0.246 C 
ATOM      3  O   UNL     1      -0.659   4.761  24.601  0.00  0.00    -0.273 OA
ATOM      4  N   UNL     1      -1.804   4.542  25.427  0.00  0.00    -0.179 NA
ENDBRANCH   5   4
ENDBRANCH   9   8
ENDBRANCH  10   9
TORSDOF 5
ENDMDL
MODEL 5
REMARK VINA RESULT:     -10.7      2.743      4.357
REMARK  Name = 
REMARK  5 active torsions:
REMARK  status: ('A' for Active; 'I' for Inactive)
REMARK    1  A    between atoms: N_4  and  C_5
REMARK    2  A    between atoms: C_8  and  C_9
REMARK    3  A    between atoms: C_9  and  N_10
REMARK    4  A    between atoms: C_15  and  C_16
REMARK    5  A    between atoms: C_18  and  C_21
REMARK                            x       y       z     vdW  Elec       q    Type
REMARK                         _______ _______ _______ _____ _____    ______ ____
ROOT
ATOM     10  N   UNL     1      -1.410   3.673  25.303  0.00  0.00    -0.260 NA
ATOM     11  C   UNL     1      -0.790   4.151  25.040  0.00  0.00    +0.106 C 
ATOM     12  C   UNL     1      -1.072   4.925  24.987  0.00  0.00    +0.170 C 
ATOM     13  O   UNL     1      -0.637   5.583  24.746  0.00  0.00    -0.222 OA
ATOM     14  C   UNL     1      -1.864   4.925  25.217  0.00  0.00    +0.060 C 
ATOM     15  C   UNL     1      -2.072   4.150  25.412  0.00  0.00    +0.140 C 
ENDROOT
BRANCH  15  16
ATOM     16  C   UNL     1      -2.813   3.899  25.672  0.00  0.00    +0.251 A 
ATOM     17  N   UNL     1      -3.362   3.470  25.229  0.00  0.00    -0.190 NA
ATOM     18  C   UNL     1      -4.024   3.338  25.703  0.00  0.00    +0.203 A 
ATOM     19  N   UNL     1      -3.885   3.684  26.438  0.00  0.00    -0.056 NA
ATOM     20  O   UNL     1      -3.138   4.030  26.418  0.00  0.00    -0.336 OA
BRANCH  18  21
ATOM     21  C   UNL     1      -4.706   2.930  25.480  0.00  0.00    +0.039 A 
ATOM     22  C   UNL     1      -4.652   2.280  24.974  0.00  0.00    +0.005 A 
ATOM     23  C   UNL     1      -5.334   1.872  24.752  0.00  0.00    +0.030 A 
ATOM     24  C   UNL     1      -6.070   2.114  25.035  0.00  0.00    +0.140 A 
ATOM     25  F   UNL     1      -6.752   1.706  24.812  0.00  0.00    -0.204 F 
ATOM     26  C   UNL     1      -6.125   2.764  25.540  0.00  0.00    +0.030 A 
ATOM     27  C   UNL     1      -5.443   3.172  25.763  0.00  0.00    +0.005 A 
ENDBRANCH  18  21
ENDBRANCH  15  16
BRANCH  10   9
ATOM      9  C   UNL     1      -1.371   2.859  25.433  0.00  0.00    +0.100 C 
BRANCH   9   8
ATOM      5  C   UNL     1       0.142   1.456  24.066  0.00  0.00    +0.073 A 
ATOM      6  C   UNL     1      -0.594   1.678  23.769  0.00  0.00    +0.016 A 
ATOM      7  C   UNL     1      -1.099   2.146  24.224  0.00  0.00    -0.002 A 
ATOM      8  C   UNL     1      -0.866   2.391  24.977  0.00  0.00    -0.006 A 
ATOM     28  C   UNL     1      -0.130   2.169  25.274  0.00  0.00    -0.002 A 
ATOM     29  C   UNL     1       0.374   1.701  24.818  0.00  0.00    +0.016 A 
BRANCH   5   4
ATOM      1  C   UNL     1       1.003  -0.287  23.074  0.00  0.00    +0.097 C 
ATOM      2  C   UNL     1       0.498   0.180  23.530  0.00  0.00    +0.246 C 
ATOM      3  O   UNL     1      -0.153  -0.159  23.904  0.00  0.00    -0.273 OA
ATOM      4  N   UNL     1       0.646   0.989  23.611  0.00  0.00    -0.179 NA
ENDBRANCH   5   4
ENDBRANCH   9   8
ENDBRANCH  10   9
TORSDOF 5
ENDMDL
MODEL 6
REMARK VINA RESULT:     -10.3      2.603      5.541
REMARK  Name = 
REMARK  5 active torsions:
REMARK  status: ('A' for Active; 'I' for Inactive)
REMARK    1  A    between atoms: N_4  and  C_5
REMARK    2  A    between atoms: C_8  and  C_9
REMARK    3  A    between atoms: C_9  and  N_10
REMARK    4  A    between atoms: C_15  and  C_16
REMARK    5  A    between atoms: C_18  and  C_21
REMARK                            x       y       z     vdW  Elec       q    Type
REMARK                         _______ _______ _______ _____ _____    ______ ____
ROOT
ATOM     10  N   UNL     1      -1.655   1.883  24.992  0.00  0.00    -0.260 NA
ATOM     11  C   UNL     1      -1.329   2.551  24.637  0.00  0.00    +0.106 C 
ATOM     12  C   UNL     1      -0.676   2.310  24.193  0.00  0.00    +0.170 C 
ATOM     13  O   UNL     1      -0.186   2.801  23.746  0.00  0.00    -0.222 OA
ATOM     14  C   UNL     1      -0.600   1.493  24.275  0.00  0.00    +0.060 C 
ATOM     15  C   UNL     1      -1.206   1.229  24.770  0.00  0.00    +0.140 C 
ENDROOT
BRANCH  15  16
ATOM     16  C   UNL     1      -1.338   0.448  25.000  0.00  0.00    +0.251 A 
ATOM     17  N   UNL     1      -1.906  -0.061  24.686  0.00  0.00    -0.190 NA
ATOM     18  C   UNL     1      -1.844  -0.784  25.077  0.00  0.00    +0.203 A 
ATOM     19  N   UNL     1      -1.238  -0.723  25.633  0.00  0.00    -0.056 NA
ATOM     20  O   UNL     1      -0.926   0.038  25.586  0.00  0.00    -0.336 OA
BRANCH  18  21
ATOM     21  C   UNL     1      -2.307  -1.453  24.936  0.00  0.00    +0.039 A 
ATOM     22  C   UNL     1      -1.987  -2.099  24.536  0.00  0.00    +0.005 A 
ATOM     23  C   UNL     1      -2.450  -2.768  24.395  0.00  0.00    +0.030 A 
ATOM     24  C   UNL     1      -3.233  -2.789  24.655  0.00  0.00    +0.140 A 
ATOM     25  F   UNL     1      -3.696  -3.458  24.514  0.00  0.00    -0.204 F 
ATOM     26  C   UNL     1      -3.553  -2.143  25.055  0.00  0.00    +0.030 A 
ATOM     27  C   UNL     1      -3.090  -1.474  25.196  0.00  0.00    +0.005 A 
ENDBRANCH  18  21
ENDBRANCH  15  16
BRANCH  10   9
ATOM      9  C   UNL     1      -2.317   1.870  25.485  0.00  0.00    +0.100 C 
BRANCH   9   8
ATOM      5  C   UNL     1      -4.106   3.557  25.198  0.00  0.00    +0.073 A 
ATOM      6  C   UNL     1      -4.130   2.853  24.769  0.00  0.00    +0.016 A 
ATOM      7  C   UNL     1      -3.534   2.291  24.864  0.00  0.00    -0.002 A 
ATOM      8  C   UNL     1      -2.914   2.433  25.390  0.00  0.00    -0.006 A 
ATOM     28  C   UNL     1      -2.890   3.137  25.819  0.00  0.00    -0.002 A 
ATOM     29  C   UNL     1      -3.486   3.699  25.723  0.00  0.00    +0.016 A 
BRANCH   5   4
ATOM      1  C   UNL     1      -6.009   4.603  25.419  0.00  0.00    +0.097 C 
ATOM      2  C   UNL     1      -5.413   4.040  25.515  0.00  0.00    +0.246 C 
ATOM      3  O   UNL     1      -5.527   3.401  26.023  0.00  0.00    -0.273 OA
ATOM      4  N   UNL     1      -4.702   4.119  25.103  0.00  0.00    -0.179 NA
ENDBRANCH   5   4
ENDBRANCH   9   8
ENDBRANCH  10   9
TORSDOF 5
ENDMDL
