MODEL 1
REMARK VINA RESULT:     -11.9      0.000      0.000
REMARK  Name = 
REMARK  7 active torsions:
REMARK  status: ('A' for Active; 'I' for Inactive)
REMARK    1  A    between atoms: O_2  and  C_3
REMARK    2  A    between atoms: C_6  and  C_9
REMARK    3  A    between atoms: N_11  and  C_12
REMARK    4  A    between atoms: C_19  and  C_20
REMARK    5  A    between atoms: C_20  and  C_22
REMARK    6  A    between atoms: N_24  and  C_25
REMARK    7  A    between atoms: C_25  and  C_26
REMARK                            x       y       z     vdW  Elec       q    Type
REMARK                         _______ _______ _______ _____ _____    ______ ____
ROOT
ATOM     12  C   UNL     1      -4.572   0.688  24.694  0.00  0.00    +0.096 C 
ATOM     13  C   UNL     1      -5.217   0.824  25.192  0.00  0.00    +0.022 C 
ATOM     14  C   UNL     1      -5.378   1.588  25.457  0.00  0.00    +0.002 C 
ATOM     15  C   UNL     1      -4.897   2.216  25.225  0.00  0.00    +0.002 C 
ATOM     16  C   UNL     1      -5.540   2.352  25.722  0.00  0.00    +0.000 C 
ATOM     17  C   UNL     1      -5.058   2.980  25.490  0.00  0.00    +0.000 C 
ATOM     18  C   UNL     1      -4.576   3.608  25.258  0.00  0.00    +0.003 C 
ATOM     19  C   UNL     1      -3.932   3.471  24.760  0.00  0.00    +0.039 C 
ATOM     32  C   UNL     1      -3.770   2.708  24.495  0.00  0.00    +0.152 C 
ATOM     33  O   UNL     1      -3.127   2.571  23.997  0.00  0.00    -0.223 OA
ATOM     34  C   UNL     1      -4.252   2.079  24.727  0.00  0.00    +0.032 C 
ATOM     35  C   UNL     1      -4.091   1.315  24.462  0.00  0.00    +0.022 C 
ATOM     36  C   UNL     1      -3.447   1.179  23.964  0.00  0.00    +0.002 C 
ENDROOT
BRANCH  12  11
ATOM      9  C   UNL     1      -4.187  -0.662  24.966  0.00  0.00    +0.265 C 
ATOM     10  O   UNL     1      -4.123  -0.482  25.769  0.00  0.00    -0.268 OA
ATOM     11  N   UNL     1      -4.411  -0.077  24.429  0.00  0.00    -0.203 NA
BRANCH   9   6
ATOM      3  C   UNL     1      -3.703  -2.955  24.170  0.00  0.00    +0.139 A 
ATOM      4  C   UNL     1      -4.207  -2.466  23.737  0.00  0.00    +0.037 A 
ATOM      5  C   UNL     1      -4.368  -1.701  24.003  0.00  0.00    +0.008 A 
ATOM      6  C   UNL     1      -4.026  -1.426  24.700  0.00  0.00    +0.055 A 
ATOM      7  C   UNL     1      -3.522  -1.915  25.133  0.00  0.00    +0.008 A 
ATOM      8  C   UNL     1      -3.360  -2.679  24.869  0.00  0.00    +0.037 A 
BRANCH   3   2
ATOM      1  C   UNL     1      -2.808  -3.895  23.575  0.00  0.00    +0.252 C 
ATOM      2  O   UNL     1      -3.542  -3.719  23.905  0.00  0.00    -0.471 OA
ENDBRANCH   3   2
ENDBRANCH   9   6
ENDBRANCH  12  11
BRANCH  19  20
ATOM     20  C   UNL     1      -3.450   4.100  24.528  0.00  0.00    +0.081 C 
ATOM     21  C   UNL     1      -3.611   4.505  23.827  0.00  0.00    +0.010 C 
BRANCH  20  22
ATOM     22  C   UNL     1      -2.809   4.323  24.995  0.00  0.00    +0.241 C 
ATOM     23  O   UNL     1      -2.886   4.944  25.534  0.00  0.00    -0.273 OA
ATOM     24  N   UNL     1      -2.088   3.926  24.925  0.00  0.00    -0.201 NA
BRANCH  24  25
ATOM     25  C   UNL     1      -1.447   4.149  25.392  0.00  0.00    +0.143 C 
BRANCH  25  26
ATOM     26  C   UNL     1      -0.838   3.613  25.540  0.00  0.00    +0.019 A 
ATOM     27  C   UNL     1      -0.838   3.169  26.235  0.00  0.00    +0.001 A 
ATOM     28  C   UNL     1      -0.229   2.632  26.383  0.00  0.00    +0.020 A 
ATOM     29  C   UNL     1       0.381   2.541  25.836  0.00  0.00    +0.099 A 
ATOM     30  N   UNL     1       0.383   2.985  25.140  0.00  0.00    -0.243 NA
ATOM     31  C   UNL     1      -0.227   3.521  24.993  0.00  0.00    +0.096 A 
ENDBRANCH  25  26
ENDBRANCH  24  25
ENDBRANCH  20  22
ENDBRANCH  19  20
TORSDOF 7
ENDMDL
MODEL 2
REMARK VINA RESULT:     -11.2      2.883      5.075
REMARK  Name = 
REMARK  7 active torsions:
REMARK  status: ('A' for Active; 'I' for Inactive)
REMARK    1  A    between atoms: O_2  and  C_3
REMARK    2  A    between atoms: C_6  and  C_9
REMARK    3  A    between atoms: N_11  and  C_12
REMARK    4  A    between atoms: C_19  and  C_20
REMARK    5  A    between atoms: C_20  and  C_22
REMARK    6  A    between atoms: N_24  and  C_25
REMARK    7  A    between atoms: C_25  and  C_26
REMARK                            x       y       z     vdW  Elec       q    Type
REMARK                         _______ _______ _______ _____ _____    ______ ____
ROOT
ATOM     12  C   UNL     1      -0.660  -0.056  24.391  0.00  0.00    +0.096 C 
ATOM     13  C   UNL     1      -0.573  -0.590  25.015  0.00  0.00    +0.022 C 
ATOM     14  C   UNL     1      -1.237  -0.860  25.423  0.00  0.00    +0.002 C 
ATOM     15  C   UNL     1      -1.988  -0.597  25.208  0.00  0.00    +0.002 C 
ATOM     16  C   UNL     1      -1.900  -1.130  25.830  0.00  0.00    +0.000 C 
ATOM     17  C   UNL     1      -2.652  -0.867  25.616  0.00  0.00    +0.000 C 
ATOM     18  C   UNL     1      -3.404  -0.604  25.401  0.00  0.00    +0.003 C 
ATOM     19  C   UNL     1      -3.491  -0.070  24.777  0.00  0.00    +0.039 C 
ATOM     32  C   UNL     1      -2.828   0.200  24.369  0.00  0.00    +0.152 C 
ATOM     33  O   UNL     1      -2.915   0.733  23.746  0.00  0.00    -0.223 OA
ATOM     34  C   UNL     1      -2.075  -0.063  24.584  0.00  0.00    +0.032 C 
ATOM     35  C   UNL     1      -1.412   0.207  24.176  0.00  0.00    +0.022 C 
ATOM     36  C   UNL     1      -1.499   0.740  23.553  0.00  0.00    +0.002 C 
ENDROOT
BRANCH  12  11
ATOM      9  C   UNL     1       0.576  -0.321  23.725  0.00  0.00    +0.265 C 
ATOM     10  O   UNL     1       0.484  -1.128  23.873  0.00  0.00    -0.268 OA
ATOM     11  N   UNL     1       0.004   0.214  23.984  0.00  0.00    -0.203 NA
BRANCH   9   6
ATOM      3  C   UNL     1       2.569   0.490  22.502  0.00  0.00    +0.139 A 
ATOM      4  C   UNL     1       2.355   0.838  23.219  0.00  0.00    +0.037 A 
ATOM      5  C   UNL     1       1.690   0.567  23.626  0.00  0.00    +0.008 A 
ATOM      6  C   UNL     1       1.240  -0.051  23.317  0.00  0.00    +0.055 A 
ATOM      7  C   UNL     1       1.455  -0.399  22.601  0.00  0.00    +0.008 A 
ATOM      8  C   UNL     1       2.119  -0.129  22.193  0.00  0.00    +0.037 A 
BRANCH   3   2
ATOM      1  C   UNL     1       3.956   0.832  22.484  0.00  0.00    +0.252 C 
ATOM      2  O   UNL     1       3.233   0.760  22.094  0.00  0.00    -0.471 OA
ENDBRANCH   3   2
ENDBRANCH   9   6
ENDBRANCH  12  11
BRANCH  19  20
ATOM     20  C   UNL     1      -4.243   0.193  24.562  0.00  0.00    +0.081 C 
ATOM     21  C   UNL     1      -4.547   0.009  23.817  0.00  0.00    +0.010 C 
BRANCH  20  22
ATOM     22  C   UNL     1      -4.692   0.638  25.091  0.00  0.00    +0.241 C 
ATOM     23  O   UNL     1      -5.105   0.263  25.700  0.00  0.00    -0.273 OA
ATOM     24  N   UNL     1      -4.729   1.459  25.013  0.00  0.00    -0.201 NA
BRANCH  24  25
ATOM     25  C   UNL     1      -5.177   1.904  25.542  0.00  0.00    +0.143 C 
BRANCH  25  26
ATOM     26  C   UNL     1      -5.142   2.728  25.522  0.00  0.00    +0.019 A 
ATOM     27  C   UNL     1      -4.431   3.107  25.349  0.00  0.00    +0.001 A 
ATOM     28  C   UNL     1      -4.396   3.932  25.328  0.00  0.00    +0.020 A 
ATOM     29  C   UNL     1      -5.074   4.377  25.481  0.00  0.00    +0.099 A 
ATOM     30  N   UNL     1      -5.786   3.997  25.655  0.00  0.00    -0.243 NA
ATOM     31  C   UNL     1      -5.820   3.173  25.675  0.00  0.00    +0.096 A 
ENDBRANCH  25  26
ENDBRANCH  24  25
ENDBRANCH  20  22
ENDBRANCH  19  20
TORSDOF 7
ENDMDL
MODEL 3
REMARK VINA RESULT:     -11.1      3.163      5.244
REMARK  Name = 
REMARK  7 active torsions:
REMARK  status: ('A' for Active; 'I' for Inactive)
REMARK    1  A    between atoms: O_2  and  C_3
REMARK    2  A    between atoms: C_6  and  C_9
REMARK    3  A    between atoms: N_11  and  C_12
REMARK    4  A    between atoms: C_19  and  C_20
REMARK    5  A    between atoms: C_20  and  C_22
REMARK    6  A    between atoms: N_24  and  C_25
REMARK    7  A    between atoms: C_25  and  C_26
REMARK                            x       y       z     vdW  Elec       q    Type
REMARK                         _______ _______ _______ _____ _____    ______ ____
ROOT
ATOM     12  C   UNL     1      -2.065   1.921  24.789  0.00  0.00    +0.096 C 
ATOM     13  C   UNL     1      -1.658   2.640  24.825  0.00  0.00    +0.022 C 
ATOM     14  C   UNL     1      -0.868   2.677  24.596  0.00  0.00    +0.002 C 
ATOM     15  C   UNL     1      -0.482   1.999  24.330  0.00  0.00    +0.002 C 
ATOM     16  C   UNL     1      -0.077   2.715  24.366  0.00  0.00    +0.000 C 
ATOM     17  C   UNL     1       0.310   2.036  24.100  0.00  0.00    +0.000 C 
ATOM     18  C   UNL     1       0.695   1.358  23.835  0.00  0.00    +0.003 C 
ATOM     19  C   UNL     1       0.289   0.640  23.798  0.00  0.00    +0.039 C 
ATOM     32  C   UNL     1      -0.502   0.602  24.028  0.00  0.00    +0.152 C 
ATOM     33  O   UNL     1      -0.908  -0.116  23.991  0.00  0.00    -0.223 OA
ATOM     34  C   UNL     1      -0.889   1.281  24.294  0.00  0.00    +0.032 C 
ATOM     35  C   UNL     1      -1.679   1.243  24.523  0.00  0.00    +0.022 C 
ATOM     36  C   UNL     1      -2.085   0.526  24.487  0.00  0.00    +0.002 C 
ENDROOT
BRANCH  12  11
ATOM      9  C   UNL     1      -3.389   2.460  24.763  0.00  0.00    +0.265 C 
ATOM     10  O   UNL     1      -3.130   3.075  24.277  0.00  0.00    -0.268 OA
ATOM     11  N   UNL     1      -2.856   1.884  25.018  0.00  0.00    -0.203 NA
BRANCH   9   6
ATOM      3  C   UNL     1      -5.763   2.346  25.453  0.00  0.00    +0.139 A 
ATOM      4  C   UNL     1      -5.267   2.922  25.775  0.00  0.00    +0.037 A 
ATOM      5  C   UNL     1      -4.475   2.959  25.544  0.00  0.00    +0.008 A 
ATOM      6  C   UNL     1      -4.180   2.422  24.993  0.00  0.00    +0.055 A 
ATOM      7  C   UNL     1      -4.676   1.847  24.671  0.00  0.00    +0.008 A 
ATOM      8  C   UNL     1      -5.467   1.809  24.900  0.00  0.00    +0.037 A 
BRANCH   3   2
ATOM      1  C   UNL     1      -6.767   1.897  26.364  0.00  0.00    +0.252 C 
ATOM      2  O   UNL     1      -6.554   2.308  25.682  0.00  0.00    -0.471 OA
ENDBRANCH   3   2
ENDBRANCH   9   6
ENDBRANCH  12  11
BRANCH  19  20
ATOM     20  C   UNL     1       0.675  -0.039  23.532  0.00  0.00    +0.081 C 
ATOM     21  C   UNL     1       0.472  -0.777  23.842  0.00  0.00    +0.010 C 
BRANCH  20  22
ATOM     22  C   UNL     1       1.263   0.018  22.957  0.00  0.00    +0.241 C 
ATOM     23  O   UNL     1       1.056   0.067  22.159  0.00  0.00    -0.273 OA
ATOM     24  N   UNL     1       2.058   0.028  23.178  0.00  0.00    -0.201 NA
BRANCH  24  25
ATOM     25  C   UNL     1       2.645   0.086  22.603  0.00  0.00    +0.143 C 
BRANCH  25  26
ATOM     26  C   UNL     1       3.438   0.142  22.826  0.00  0.00    +0.019 A 
ATOM     27  C   UNL     1       3.846   0.851  22.724  0.00  0.00    +0.001 A 
ATOM     28  C   UNL     1       4.639   0.908  22.947  0.00  0.00    +0.020 A 
ATOM     29  C   UNL     1       5.022   0.254  23.273  0.00  0.00    +0.099 A 
ATOM     30  N   UNL     1       4.614  -0.456  23.375  0.00  0.00    -0.243 NA
ATOM     31  C   UNL     1       3.822  -0.511  23.152  0.00  0.00    +0.096 A 
ENDBRANCH  25  26
ENDBRANCH  24  25
ENDBRANCH  20  22
ENDBRANCH  19  20
TORSDOF 7
ENDMDL
MODEL 4
REMARK VINA RESULT:     -11.0      3.333      5.617
REMARK  Name = 
REMARK  7 active torsions:
REMARK  status: ('A' for Active; 'I' for Inactive)
REMARK    1  A    between atoms: O_2  and  C_3
REMARK    2  A    between atoms: C_6  and  C_9
REMARK    3  A    between atoms: N_11  and  C_12
REMARK    4  A    between atoms: C_19  and  C_20
REMARK    5  A    between atoms: C_20  and  C_22
REMARK    6  A    between atoms: N_24  and  C_25
REMARK    7  A    between atoms: C_25  and  C_26
REMARK                            x       y       z     vdW  Elec       q    Type
REMARK                         _______ _______ _______ _____ _____    ______ ____
ROOT
ATOM     12  C   UNL     1       0.639   0.704  23.889  0.00  0.00    +0.096 C 
ATOM     13  C   UNL     1       0.215   0.010  23.740  0.00  0.00    +0.022 C 
ATOM     14  C   UNL     1      -0.601  -0.007  23.859  0.00  0.00    +0.002 C 
ATOM     15  C   UNL     1      -0.993   0.667  24.125  0.00  0.00    +0.002 C 
ATOM     16  C   UNL     1      -1.416  -0.024  23.977  0.00  0.00    +0.000 C 
ATOM     17  C   UNL     1      -1.810   0.650  24.244  0.00  0.00    +0.000 C 
ATOM     18  C   UNL     1      -2.202   1.324  24.510  0.00  0.00    +0.003 C 
ATOM     19  C   UNL     1      -1.778   2.018  24.659  0.00  0.00    +0.039 C 
ATOM     32  C   UNL     1      -0.963   2.035  24.540  0.00  0.00    +0.152 C 
ATOM     33  O   UNL     1      -0.539   2.727  24.688  0.00  0.00    -0.223 OA
ATOM     34  C   UNL     1      -0.569   1.360  24.274  0.00  0.00    +0.032 C 
ATOM     35  C   UNL     1       0.247   1.378  24.155  0.00  0.00    +0.022 C 
ATOM     36  C   UNL     1       0.670   2.070  24.303  0.00  0.00    +0.002 C 
ENDROOT
BRANCH  12  11
ATOM      9  C   UNL     1       1.792   0.301  23.144  0.00  0.00    +0.265 C 
ATOM     10  O   UNL     1       1.310  -0.137  22.636  0.00  0.00    -0.268 OA
ATOM     11  N   UNL     1       1.456   0.721  23.770  0.00  0.00    -0.203 NA
BRANCH   9   6
ATOM      3  C   UNL     1       4.240   0.352  22.789  0.00  0.00    +0.139 A 
ATOM      4  C   UNL     1       3.877  -0.336  23.064  0.00  0.00    +0.037 A 
ATOM      5  C   UNL     1       3.061  -0.353  23.182  0.00  0.00    +0.008 A 
ATOM      6  C   UNL     1       2.607   0.318  23.026  0.00  0.00    +0.055 A 
ATOM      7  C   UNL     1       2.970   1.006  22.751  0.00  0.00    +0.008 A 
ATOM      8  C   UNL     1       3.786   1.024  22.633  0.00  0.00    +0.037 A 
BRANCH   3   2
ATOM      1  C   UNL     1       5.565   0.111  23.265  0.00  0.00    +0.252 C 
ATOM      2  O   UNL     1       5.056   0.370  22.671  0.00  0.00    -0.471 OA
ENDBRANCH   3   2
ENDBRANCH   9   6
ENDBRANCH  12  11
BRANCH  19  20
ATOM     20  C   UNL     1      -2.172   2.692  24.925  0.00  0.00    +0.081 C 
ATOM     21  C   UNL     1      -1.829   3.166  25.507  0.00  0.00    +0.010 C 
BRANCH  20  22
ATOM     22  C   UNL     1      -2.907   2.893  24.611  0.00  0.00    +0.241 C 
ATOM     23  O   UNL     1      -2.956   3.233  23.860  0.00  0.00    -0.273 OA
ATOM     24  N   UNL     1      -3.594   2.753  25.046  0.00  0.00    -0.201 NA
BRANCH  24  25
ATOM     25  C   UNL     1      -4.329   2.954  24.732  0.00  0.00    +0.143 C 
BRANCH  25  26
ATOM     26  C   UNL     1      -5.021   2.700  25.104  0.00  0.00    +0.019 A 
ATOM     27  C   UNL     1      -5.446   2.064  24.796  0.00  0.00    +0.001 A 
ATOM     28  C   UNL     1      -6.137   1.810  25.167  0.00  0.00    +0.020 A 
ATOM     29  C   UNL     1      -6.404   2.193  25.848  0.00  0.00    +0.099 A 
ATOM     30  N   UNL     1      -5.978   2.830  26.157  0.00  0.00    -0.243 NA
ATOM     31  C   UNL     1      -5.287   3.083  25.784  0.00  0.00    +0.096 A 
ENDBRANCH  25  26
ENDBRANCH  24  25
ENDBRANCH  20  22
ENDBRANCH  19  20
TORSDOF 7
ENDMDL
MODEL 5
REMARK VINA RESULT:     -10.8      2.552      5.007
REMARK  Name = 
REMARK  7 active torsions:
REMARK  status: ('A' for Active; 'I' for Inactive)
REMARK    1  A    between atoms: O_2  and  C_3
REMARK    2  A    between atoms: C_6  and  C_9
REMARK    3  A    between atoms: N_11  and  C_12
REMARK    4  A    between atoms: C_19  and  C_20
REMARK    5  A    between atoms: C_20  and  C_22
REMARK    6  A    between atoms: N_24  and  C_25
REMARK    7  A    between atoms: C_25  and  C_26
REMARK                            x       y       z     vdW  Elec       q    Type
REMARK                         _______ _______ _______ _____ _____    ______ ____
ROOT
ATOM     12  C   UNL     1      -3.779   0.263  25.182  0.00  0.00    +0.096 C 
ATOM     13  C   UNL     1      -4.241  -0.403  25.022  0.00  0.00    +0.022 C 
ATOM     14  C   UNL     1      -3.881  -1.111  24.802  0.00  0.00    +0.002 C 
ATOM     15  C   UNL     1      -3.060  -1.155  24.743  0.00  0.00    +0.002 C 
ATOM     16  C   UNL     1      -3.520  -1.819  24.583  0.00  0.00    +0.000 C 
ATOM     17  C   UNL     1      -2.699  -1.864  24.523  0.00  0.00    +0.000 C 
ATOM     18  C   UNL     1      -1.878  -1.908  24.464  0.00  0.00    +0.003 C 
ATOM     19  C   UNL     1      -1.416  -1.242  24.624  0.00  0.00    +0.039 C 
ATOM     32  C   UNL     1      -1.776  -0.534  24.843  0.00  0.00    +0.152 C 
ATOM     33  O   UNL     1      -1.315   0.131  25.003  0.00  0.00    -0.223 OA
ATOM     34  C   UNL     1      -2.598  -0.489  24.903  0.00  0.00    +0.032 C 
ATOM     35  C   UNL     1      -2.958   0.219  25.122  0.00  0.00    +0.022 C 
ATOM     36  C   UNL     1      -2.497   0.884  25.282  0.00  0.00    +0.002 C 
ENDROOT
BRANCH  12  11
ATOM      9  C   UNL     1      -4.778   1.263  24.966  0.00  0.00    +0.265 C 
ATOM     10  O   UNL     1      -5.055   0.846  24.310  0.00  0.00    -0.268 OA
ATOM     11  N   UNL     1      -4.141   0.972  25.402  0.00  0.00    -0.203 NA
BRANCH   9   6
ATOM      3  C   UNL     1      -5.860   3.389  25.626  0.00  0.00    +0.139 A 
ATOM      4  C   UNL     1      -5.195   3.399  25.138  0.00  0.00    +0.037 A 
ATOM      5  C   UNL     1      -4.834   2.690  24.919  0.00  0.00    +0.008 A 
ATOM      6  C   UNL     1      -5.138   1.971  25.186  0.00  0.00    +0.055 A 
ATOM      7  C   UNL     1      -5.804   1.961  25.674  0.00  0.00    +0.008 A 
ATOM      8  C   UNL     1      -6.165   2.669  25.894  0.00  0.00    +0.037 A 
BRANCH   3   2
ATOM      1  C   UNL     1      -5.934   4.813  25.559  0.00  0.00    +0.252 C 
ATOM      2  O   UNL     1      -6.222   4.097  25.846  0.00  0.00    -0.471 OA
ENDBRANCH   3   2
ENDBRANCH   9   6
ENDBRANCH  12  11
BRANCH  19  20
ATOM     20  C   UNL     1      -0.594  -1.286  24.564  0.00  0.00    +0.081 C 
ATOM     21  C   UNL     1      -0.141  -1.462  25.231  0.00  0.00    +0.010 C 
BRANCH  20  22
ATOM     22  C   UNL     1      -0.225  -1.155  23.838  0.00  0.00    +0.241 C 
ATOM     23  O   UNL     1      -0.449  -1.595  23.176  0.00  0.00    -0.273 OA
ATOM     24  N   UNL     1       0.368  -0.585  23.773  0.00  0.00    -0.201 NA
BRANCH  24  25
ATOM     25  C   UNL     1       0.737  -0.454  23.048  0.00  0.00    +0.143 C 
BRANCH  25  26
ATOM     26  C   UNL     1       1.428  -0.005  23.011  0.00  0.00    +0.019 A 
ATOM     27  C   UNL     1       2.083  -0.289  22.598  0.00  0.00    +0.001 A 
ATOM     28  C   UNL     1       2.775   0.160  22.561  0.00  0.00    +0.020 A 
ATOM     29  C   UNL     1       2.810   0.894  22.938  0.00  0.00    +0.099 A 
ATOM     30  N   UNL     1       2.155   1.178  23.351  0.00  0.00    -0.243 NA
ATOM     31  C   UNL     1       1.464   0.728  23.387  0.00  0.00    +0.096 A 
ENDBRANCH  25  26
ENDBRANCH  24  25
ENDBRANCH  20  22
ENDBRANCH  19  20
TORSDOF 7
ENDMDL
MODEL 6
REMARK VINA RESULT:     -10.2      2.527      5.004
REMARK  Name = 
REMARK  7 active torsions:
REMARK  status: ('A' for Active; 'I' for Inactive)
REMARK    1  A    between atoms: O_2  and  C_3
REMARK    2  A    between atoms: C_6  and  C_9
REMARK    3  A    between atoms: N_11  and  C_12
REMARK    4  A    between atoms: C_19  and  C_20
REMARK    5  A    between atoms: C_20  and  C_22
REMARK    6  A    between atoms: N_24  and  C_25
REMARK    7  A    between atoms: C_25  and  C_26
REMARK                            x       y       z     vdW  Elec       q    Type
REMARK                         _______ _______ _______ _____ _____    ______ ____
ROOT
ATOM     12  C   UNL     1      -0.286   2.205  24.182  0.00  0.00    +0.096 C 
ATOM     13  C   UNL     1      -0.123   2.610  24.882  0.00  0.00    +0.022 C 
ATOM     14  C   UNL     1      -0.742   2.897  25.346  0.00  0.00    +0.002 C 
ATOM     15  C   UNL     1      -1.523   2.780  25.110  0.00  0.00    +0.002 C 
ATOM     16  C   UNL     1      -1.360   3.184  25.809  0.00  0.00    +0.000 C 
ATOM     17  C   UNL     1      -2.142   3.067  25.573  0.00  0.00    +0.000 C 
ATOM     18  C   UNL     1      -2.923   2.949  25.337  0.00  0.00    +0.003 C 
ATOM     19  C   UNL     1      -3.086   2.544  24.637  0.00  0.00    +0.039 C 
ATOM     32  C   UNL     1      -2.468   2.257  24.173  0.00  0.00    +0.152 C 
ATOM     33  O   UNL     1      -2.631   1.852  23.473  0.00  0.00    -0.223 OA
ATOM     34  C   UNL     1      -1.686   2.374  24.409  0.00  0.00    +0.032 C 
ATOM     35  C   UNL     1      -1.067   2.087  23.946  0.00  0.00    +0.022 C 
ATOM     36  C   UNL     1      -1.230   1.682  23.246  0.00  0.00    +0.002 C 
ENDROOT
BRANCH  12  11
ATOM      9  C   UNL     1       0.817   1.312  24.003  0.00  0.00    +0.265 C 
ATOM     10  O   UNL     1       0.681   0.994  24.753  0.00  0.00    -0.268 OA
ATOM     11  N   UNL     1       0.333   1.917  23.718  0.00  0.00    -0.203 NA
BRANCH   9   6
ATOM      3  C   UNL     1       2.674   0.453  22.612  0.00  0.00    +0.139 A 
ATOM      4  C   UNL     1       1.963   0.036  22.655  0.00  0.00    +0.037 A 
ATOM      5  C   UNL     1       1.344   0.323  23.119  0.00  0.00    +0.008 A 
ATOM      6  C   UNL     1       1.435   1.026  23.539  0.00  0.00    +0.055 A 
ATOM      7  C   UNL     1       2.146   1.443  23.497  0.00  0.00    +0.008 A 
ATOM      8  C   UNL     1       2.766   1.157  23.033  0.00  0.00    +0.037 A 
BRANCH   3   2
ATOM      1  C   UNL     1       4.066   0.416  22.292  0.00  0.00    +0.252 C 
ATOM      2  O   UNL     1       3.294   0.167  22.149  0.00  0.00    -0.471 OA
ENDBRANCH   3   2
ENDBRANCH   9   6
ENDBRANCH  12  11
BRANCH  19  20
ATOM     20  C   UNL     1      -3.868   2.427  24.401  0.00  0.00    +0.081 C 
ATOM     21  C   UNL     1      -4.204   2.917  23.828  0.00  0.00    +0.010 C 
BRANCH  20  22
ATOM     22  C   UNL     1      -4.314   1.820  24.737  0.00  0.00    +0.241 C 
ATOM     23  O   UNL     1      -4.922   1.999  25.266  0.00  0.00    -0.273 OA
ATOM     24  N   UNL     1      -4.154   1.034  24.544  0.00  0.00    -0.201 NA
BRANCH  24  25
ATOM     25  C   UNL     1      -4.600   0.427  24.880  0.00  0.00    +0.143 C 
BRANCH  25  26
ATOM     26  C   UNL     1      -4.341  -0.354  24.827  0.00  0.00    +0.019 A 
ATOM     27  C   UNL     1      -3.916  -0.692  25.447  0.00  0.00    +0.001 A 
ATOM     28  C   UNL     1      -3.657  -1.473  25.394  0.00  0.00    +0.020 A 
ATOM     29  C   UNL     1      -3.824  -1.918  24.719  0.00  0.00    +0.099 A 
ATOM     30  N   UNL     1      -4.250  -1.580  24.098  0.00  0.00    -0.243 NA
ATOM     31  C   UNL     1      -4.508  -0.799  24.152  0.00  0.00    +0.096 A 
ENDBRANCH  25  26
ENDBRANCH  24  25
ENDBRANCH  20  22
ENDBRANCH  19  20
TORSDOF 7
ENDMDL
MODEL 7
REMARK VINA RESULT:      -9.9      1.465      3.197
REMARK  Name = 
REMARK  7 active torsions:
REMARK  status: ('A' for Active; 'I' for Inactive)
REMARK    1  A    between atoms: O_2  and  C_3
REMARK    2  A    between atoms: C_6  and  C_9
REMARK    3  A    between atoms: N_11  and  C_12
REMARK    4  A    between atoms: C_19  and  C_20
REMARK    5  A    between atoms: C_20  and  C_22
REMARK    6  A    between atoms: N_24  and  C_25
REMARK    7  A    between atoms: C_25  and  C_26
REMARK                            x       y       z     vdW  Elec       q    Type
REMARK                         _______ _______ _______ _____ _____    ______ ____
ROOT
ATOM     12  C   UNL     1      -1.338   0.416  25.098  0.00  0.00    +0.096 C 
ATOM     13  C   UNL     1      -0.803   0.356  25.724  0.00  0.00    +0.022 C 
ATOM     14  C   UNL     1      -0.449   1.035  26.031  0.00  0.00    +0.002 C 
ATOM     15  C   UNL     1      -0.630   1.773  25.712  0.00  0.00    +0.002 C 
ATOM     16  C   UNL     1      -0.096   1.713  26.337  0.00  0.00    +0.000 C 
ATOM     17  C   UNL     1      -0.276   2.453  26.019  0.00  0.00    +0.000 C 
ATOM     18  C   UNL     1      -0.456   3.192  25.701  0.00  0.00    +0.003 C 
ATOM     19  C   UNL     1      -0.992   3.252  25.074  0.00  0.00    +0.039 C 
ATOM     32  C   UNL     1      -1.345   2.573  24.768  0.00  0.00    +0.152 C 
ATOM     33  O   UNL     1      -1.880   2.633  24.143  0.00  0.00    -0.223 OA
ATOM     34  C   UNL     1      -1.165   1.834  25.086  0.00  0.00    +0.032 C 
ATOM     35  C   UNL     1      -1.519   1.155  24.780  0.00  0.00    +0.022 C 
ATOM     36  C   UNL     1      -2.054   1.215  24.155  0.00  0.00    +0.002 C 
ENDROOT
BRANCH  12  11
ATOM      9  C   UNL     1      -2.068  -0.798  25.296  0.00  0.00    +0.265 C 
ATOM     10  O   UNL     1      -2.090  -0.652  26.109  0.00  0.00    -0.268 OA
ATOM     11  N   UNL     1      -1.692  -0.263  24.792  0.00  0.00    -0.203 NA
BRANCH   9   6
ATOM      3  C   UNL     1      -3.129  -2.835  24.376  0.00  0.00    +0.139 A 
ATOM      4  C   UNL     1      -2.308  -2.755  24.362  0.00  0.00    +0.037 A 
ATOM      5  C   UNL     1      -1.955  -2.076  24.669  0.00  0.00    +0.008 A 
ATOM      6  C   UNL     1      -2.421  -1.476  24.990  0.00  0.00    +0.055 A 
ATOM      7  C   UNL     1      -3.242  -1.556  25.004  0.00  0.00    +0.008 A 
ATOM      8  C   UNL     1      -3.597  -2.235  24.697  0.00  0.00    +0.037 A 
BRANCH   3   2
ATOM      1  C   UNL     1      -4.197  -3.458  23.661  0.00  0.00    +0.252 C 
ATOM      2  O   UNL     1      -3.483  -3.514  24.070  0.00  0.00    -0.471 OA
ENDBRANCH   3   2
ENDBRANCH   9   6
ENDBRANCH  12  11
BRANCH  19  20
ATOM     20  C   UNL     1      -1.172   3.992  24.756  0.00  0.00    +0.081 C 
ATOM     21  C   UNL     1      -0.743   4.279  24.113  0.00  0.00    +0.010 C 
BRANCH  20  22
ATOM     22  C   UNL     1      -1.780   4.444  25.080  0.00  0.00    +0.241 C 
ATOM     23  O   UNL     1      -1.614   5.180  25.415  0.00  0.00    -0.273 OA
ATOM     24  N   UNL     1      -2.556   4.161  25.071  0.00  0.00    -0.201 NA
BRANCH  24  25
ATOM     25  C   UNL     1      -3.164   4.613  25.395  0.00  0.00    +0.143 C 
BRANCH  25  26
ATOM     26  C   UNL     1      -3.910   4.280  25.511  0.00  0.00    +0.019 A 
ATOM     27  C   UNL     1      -4.439   4.223  24.881  0.00  0.00    +0.001 A 
ATOM     28  C   UNL     1      -5.185   3.889  24.996  0.00  0.00    +0.020 A 
ATOM     29  C   UNL     1      -5.402   3.613  25.742  0.00  0.00    +0.099 A 
ATOM     30  N   UNL     1      -4.873   3.670  26.374  0.00  0.00    -0.243 NA
ATOM     31  C   UNL     1      -4.127   4.003  26.257  0.00  0.00    +0.096 A 
ENDBRANCH  25  26
ENDBRANCH  24  25
ENDBRANCH  20  22
ENDBRANCH  19  20
TORSDOF 7
ENDMDL
