REMARK  Name = 
REMARK  6 active torsions:
REMARK  status: ('A' for Active; 'I' for Inactive)
REMARK    1  A    between atoms: C_2  and  C_4
REMARK    2  A    between atoms: C_8  and  N_9
REMARK    3  A    between atoms: C_10  and  O_12
REMARK    4  A    between atoms: O_12  and  C_13
REMARK    5  A    between atoms: C_17  and  N_21
REMARK    6  A    between atoms: N_24  and  C_25
REMARK                            x       y       z     vdW  Elec       q    Type
REMARK                         _______ _______ _______ _____ _____    ______ ____
ROOT
ATOM     13  C   UNL     1       1.270  -0.922   0.000  0.00  0.00    +0.229 C 
ATOM     14  C   UNL     1       0.785  -0.255   0.000  0.00  0.00    +0.188 C 
ATOM     15  O   UNL     1       1.270   0.412   0.000  0.00  0.00    -0.348 OA
ATOM     16  C   UNL     1       2.054   0.158   0.000  0.00  0.00    +0.168 C 
ATOM     17  C   UNL     1       2.839   0.412   0.000  0.00  0.00    +0.156 C 
ATOM     18  C   UNL     1       3.324  -0.255   0.000  0.00  0.00    +0.166 C 
ATOM     19  O   UNL     1       2.839  -0.922   0.000  0.00  0.00    -0.348 OA
ATOM     20  C   UNL     1       2.054  -0.667   0.000  0.00  0.00    +0.186 C 
ENDROOT
BRANCH  17  21
ATOM     21  N   UNL     1       3.094   1.197   0.000  0.00  0.00    -0.184 NA
ATOM     22  C   UNL     1       3.901   1.369   0.000  0.00  0.00    +0.344 C 
ATOM     23  O   UNL     1       4.453   0.756   0.000  0.00  0.00    -0.249 OA
ATOM     24  N   UNL     1       4.156   2.153   0.000  0.00  0.00    -0.161 NA
BRANCH  24  25
ATOM     25  C   UNL     1       4.963   2.325   0.000  0.00  0.00    +0.075 A 
ATOM     26  C   UNL     1       5.218   3.109   0.000  0.00  0.00    +0.017 A 
ATOM     27  C   UNL     1       6.024   3.281   0.000  0.00  0.00    +0.001 A 
ATOM     28  C   UNL     1       6.577   2.668   0.000  0.00  0.00    +0.000 A 
ATOM     29  C   UNL     1       6.322   1.883   0.000  0.00  0.00    +0.001 A 
ATOM     30  C   UNL     1       5.515   1.712   0.000  0.00  0.00    +0.017 A 
ENDBRANCH  24  25
ENDBRANCH  17  21
BRANCH  13  12
ATOM     12  O   UNL     1       1.015  -1.707   0.000  0.00  0.00    -0.432 OA
BRANCH  12  10
ATOM      9  N   UNL     1      -0.047  -2.663   0.000  0.00  0.00    -0.142 NA
ATOM     10  C   UNL     1       0.208  -1.879   0.000  0.00  0.00    +0.425 C 
ATOM     11  O   UNL     1      -0.344  -1.265   0.000  0.00  0.00    -0.224 OA
BRANCH   9   8
ATOM      4  C   UNL     1      -1.916  -3.791   0.000  0.00  0.00    +0.036 A 
ATOM      5  C   UNL     1      -2.468  -3.178   0.000  0.00  0.00    +0.003 A 
ATOM      6  C   UNL     1      -2.213  -2.393   0.000  0.00  0.00    +0.001 A 
ATOM      7  C   UNL     1      -1.406  -2.222   0.000  0.00  0.00    +0.017 A 
ATOM      8  C   UNL     1      -0.854  -2.835   0.000  0.00  0.00    +0.077 A 
ATOM     31  C   UNL     1      -1.109  -3.619   0.000  0.00  0.00    +0.020 A 
BRANCH   4   2
ATOM      1  C   UNL     1      -2.978  -4.747   0.000  0.00  0.00    +0.077 C 
ATOM      2  C   UNL     1      -2.171  -4.575   0.000  0.00  0.00    +0.174 C 
ATOM      3  O   UNL     1      -1.619  -5.189   0.000  0.00  0.00    -0.291 OA
ENDBRANCH   4   2
ENDBRANCH   9   8
ENDBRANCH  12  10
ENDBRANCH  13  12
TORSDOF 6
