MODEL 1
REMARK VINA RESULT:      -8.7      0.000      0.000
REMARK  Name = 
REMARK  6 active torsions:
REMARK  status: ('A' for Active; 'I' for Inactive)
REMARK    1  A    between atoms: O_2  and  C_3
REMARK    2  A    between atoms: C_6  and  C_9
REMARK    3  A    between atoms: N_14  and  C_15
REMARK    4  A    between atoms: C_19  and  N_23
REMARK    5  A    between atoms: N_26  and  C_27
REMARK    6  A    between atoms: C_27  and  C_28
REMARK                            x       y       z     vdW  Elec       q    Type
REMARK                         _______ _______ _______ _____ _____    ______ ____
ROOT
ATOM      9  C   UNL     1      -3.542   1.883  24.389  0.00  0.00    +0.086 A 
ATOM     10  C   UNL     1      -3.657   1.593  23.625  0.00  0.00    +0.040 A 
ATOM     11  C   UNL     1      -3.053   1.177  23.246  0.00  0.00    +0.103 A 
ATOM     12  N   UNL     1      -2.334   1.051  23.632  0.00  0.00    -0.211 NA
ATOM     13  C   UNL     1      -2.221   1.341  24.396  0.00  0.00    +0.237 A 
ATOM     14  N   UNL     1      -1.502   1.215  24.782  0.00  0.00    -0.200 NA
ATOM     30  N   UNL     1      -2.824   1.757  24.774  0.00  0.00    -0.212 NA
ENDROOT
BRANCH  14  15
ATOM     15  C   UNL     1      -0.898   0.799  24.403  0.00  0.00    +0.154 C 
ATOM     16  C   UNL     1      -0.920   0.004  24.187  0.00  0.00    +0.166 C 
ATOM     17  O   UNL     1      -0.201  -0.181  23.825  0.00  0.00    -0.350 OA
ATOM     18  C   UNL     1       0.264   0.500  23.818  0.00  0.00    +0.166 C 
ATOM     19  C   UNL     1       0.995   0.807  23.590  0.00  0.00    +0.156 C 
ATOM     20  C   UNL     1       1.016   1.603  23.807  0.00  0.00    +0.166 C 
ATOM     21  O   UNL     1       0.298   1.788  24.169  0.00  0.00    -0.350 OA
ATOM     22  C   UNL     1      -0.167   1.106  24.175  0.00  0.00    +0.166 C 
BRANCH  19  23
ATOM     23  N   UNL     1       1.599   0.391  23.212  0.00  0.00    -0.184 NA
ATOM     24  C   UNL     1       2.357   0.713  23.169  0.00  0.00    +0.340 C 
ATOM     25  O   UNL     1       2.511   1.451  23.505  0.00  0.00    -0.249 OA
ATOM     26  N   UNL     1       2.960   0.297  22.791  0.00  0.00    -0.182 NA
BRANCH  26  27
ATOM     27  C   UNL     1       3.719   0.620  22.748  0.00  0.00    +0.143 C 
BRANCH  27  28
ATOM     28  C   UNL     1       4.376   0.123  22.699  0.00  0.00    -0.003 C 
ATOM     29  C   UNL     1       5.063   0.305  23.119  0.00  0.00    -0.003 C 
ENDBRANCH  27  28
ENDBRANCH  26  27
ENDBRANCH  19  23
ENDBRANCH  14  15
BRANCH   9   6
ATOM      3  C   UNL     1      -5.355   3.130  25.524  0.00  0.00    +0.139 A 
ATOM      4  C   UNL     1      -4.676   3.526  25.271  0.00  0.00    +0.037 A 
ATOM      5  C   UNL     1      -4.073   3.111  24.893  0.00  0.00    +0.005 A 
ATOM      6  C   UNL     1      -4.147   2.299  24.767  0.00  0.00    +0.018 A 
ATOM      7  C   UNL     1      -4.824   1.902  25.020  0.00  0.00    +0.005 A 
ATOM      8  C   UNL     1      -5.429   2.318  25.398  0.00  0.00    +0.037 A 
BRANCH   3   2
ATOM      1  C   UNL     1      -6.126   4.323  25.682  0.00  0.00    +0.252 C 
ATOM      2  O   UNL     1      -5.958   3.545  25.902  0.00  0.00    -0.471 OA
ENDBRANCH   3   2
ENDBRANCH   9   6
TORSDOF 6
ENDMDL
MODEL 2
REMARK VINA RESULT:      -8.1      1.242      7.007
REMARK  Name = 
REMARK  6 active torsions:
REMARK  status: ('A' for Active; 'I' for Inactive)
REMARK    1  A    between atoms: O_2  and  C_3
REMARK    2  A    between atoms: C_6  and  C_9
REMARK    3  A    between atoms: N_14  and  C_15
REMARK    4  A    between atoms: C_19  and  N_23
REMARK    5  A    between atoms: N_26  and  C_27
REMARK    6  A    between atoms: C_27  and  C_28
REMARK                            x       y       z     vdW  Elec       q    Type
REMARK                         _______ _______ _______ _____ _____    ______ ____
ROOT
ATOM      9  C   UNL     1       2.129   0.177  22.910  0.00  0.00    +0.086 A 
ATOM     10  C   UNL     1       1.769  -0.252  22.305  0.00  0.00    +0.040 A 
ATOM     11  C   UNL     1       0.945  -0.309  22.274  0.00  0.00    +0.103 A 
ATOM     12  N   UNL     1       0.484   0.062  22.848  0.00  0.00    -0.211 NA
ATOM     13  C   UNL     1       0.845   0.490  23.453  0.00  0.00    +0.237 A 
ATOM     14  N   UNL     1       0.384   0.861  24.028  0.00  0.00    -0.200 NA
ATOM     30  N   UNL     1       1.667   0.548  23.484  0.00  0.00    -0.212 NA
ENDROOT
BRANCH  14  15
ATOM     15  C   UNL     1      -0.439   0.804  23.997  0.00  0.00    +0.154 C 
ATOM     16  C   UNL     1      -0.875   0.104  23.972  0.00  0.00    +0.166 C 
ATOM     17  O   UNL     1      -1.675   0.304  23.945  0.00  0.00    -0.350 OA
ATOM     18  C   UNL     1      -1.734   1.126  23.953  0.00  0.00    +0.166 C 
ATOM     19  C   UNL     1      -2.264   1.758  23.942  0.00  0.00    +0.156 C 
ATOM     20  C   UNL     1      -1.827   2.458  23.967  0.00  0.00    +0.166 C 
ATOM     21  O   UNL     1      -1.027   2.259  23.993  0.00  0.00    -0.350 OA
ATOM     22  C   UNL     1      -0.969   1.435  23.985  0.00  0.00    +0.166 C 
BRANCH  19  23
ATOM     23  N   UNL     1      -3.087   1.700  23.911  0.00  0.00    -0.184 NA
ATOM     24  C   UNL     1      -3.548   2.083  24.478  0.00  0.00    +0.340 C 
ATOM     25  O   UNL     1      -3.187   2.523  25.075  0.00  0.00    -0.249 OA
ATOM     26  N   UNL     1      -4.370   2.025  24.446  0.00  0.00    -0.182 NA
BRANCH  26  27
ATOM     27  C   UNL     1      -4.832   2.408  25.013  0.00  0.00    +0.143 C 
BRANCH  27  28
ATOM     28  C   UNL     1      -5.649   2.292  25.026  0.00  0.00    -0.003 C 
ATOM     29  C   UNL     1      -6.058   2.318  25.742  0.00  0.00    -0.003 C 
ENDBRANCH  27  28
ENDBRANCH  26  27
ENDBRANCH  19  23
ENDBRANCH  14  15
BRANCH   9   6
ATOM      3  C   UNL     1       4.597   0.350  23.003  0.00  0.00    +0.139 A 
ATOM      4  C   UNL     1       4.148   0.985  22.725  0.00  0.00    +0.037 A 
ATOM      5  C   UNL     1       3.326   0.927  22.694  0.00  0.00    +0.005 A 
ATOM      6  C   UNL     1       2.952   0.235  22.941  0.00  0.00    +0.018 A 
ATOM      7  C   UNL     1       3.399  -0.400  23.219  0.00  0.00    +0.005 A 
ATOM      8  C   UNL     1       4.222  -0.342  23.250  0.00  0.00    +0.037 A 
BRANCH   3   2
ATOM      1  C   UNL     1       5.824   0.174  23.714  0.00  0.00    +0.252 C 
ATOM      2  O   UNL     1       5.418   0.407  23.034  0.00  0.00    -0.471 OA
ENDBRANCH   3   2
ENDBRANCH   9   6
TORSDOF 6
ENDMDL
MODEL 3
REMARK VINA RESULT:      -6.5     17.156     19.055
REMARK  Name = 
REMARK  6 active torsions:
REMARK  status: ('A' for Active; 'I' for Inactive)
REMARK    1  A    between atoms: O_2  and  C_3
REMARK    2  A    between atoms: C_6  and  C_9
REMARK    3  A    between atoms: N_14  and  C_15
REMARK    4  A    between atoms: C_19  and  N_23
REMARK    5  A    between atoms: N_26  and  C_27
REMARK    6  A    between atoms: C_27  and  C_28
REMARK                            x       y       z     vdW  Elec       q    Type
REMARK                         _______ _______ _______ _____ _____    ______ ____
ROOT
ATOM      9  C   UNL     1      -5.026  -9.511  11.245  0.00  0.00    +0.086 A 
ATOM     10  C   UNL     1      -5.473  -9.304  11.906  0.00  0.00    +0.040 A 
ATOM     11  C   UNL     1      -6.229  -8.986  11.809  0.00  0.00    +0.103 A 
ATOM     12  N   UNL     1      -6.536  -8.876  11.051  0.00  0.00    -0.211 NA
ATOM     13  C   UNL     1      -6.087  -9.083  10.391  0.00  0.00    +0.237 A 
ATOM     14  N   UNL     1      -6.395  -8.973   9.633  0.00  0.00    -0.200 NA
ATOM     30  N   UNL     1      -5.333  -9.401  10.487  0.00  0.00    -0.212 NA
ENDROOT
BRANCH  14  15
ATOM     15  C   UNL     1      -7.150  -8.655   9.536  0.00  0.00    +0.154 C 
ATOM     16  C   UNL     1      -7.841  -8.932   9.891  0.00  0.00    +0.166 C 
ATOM     17  O   UNL     1      -8.465  -8.453   9.641  0.00  0.00    -0.350 OA
ATOM     18  C   UNL     1      -8.159  -7.880   9.132  0.00  0.00    +0.166 C 
ATOM     19  C   UNL     1      -8.356  -7.230   8.664  0.00  0.00    +0.156 C 
ATOM     20  C   UNL     1      -7.664  -6.953   8.309  0.00  0.00    +0.166 C 
ATOM     21  O   UNL     1      -7.040  -7.432   8.558  0.00  0.00    -0.350 OA
ATOM     22  C   UNL     1      -7.346  -8.005   9.068  0.00  0.00    +0.166 C 
BRANCH  19  23
ATOM     23  N   UNL     1      -9.111  -6.913   8.567  0.00  0.00    -0.184 NA
ATOM     24  C   UNL     1      -9.211  -6.095   8.520  0.00  0.00    +0.340 C 
ATOM     25  O   UNL     1      -8.557  -5.595   8.571  0.00  0.00    -0.249 OA
ATOM     26  N   UNL     1      -9.967  -5.778   8.423  0.00  0.00    -0.182 NA
BRANCH  26  27
ATOM     27  C   UNL     1     -10.067  -4.960   8.377  0.00  0.00    +0.143 C 
BRANCH  27  28
ATOM     28  C   UNL     1     -10.717  -4.604   8.739  0.00  0.00    -0.003 C 
ATOM     29  C   UNL     1     -10.691  -3.802   8.935  0.00  0.00    -0.003 C 
ENDBRANCH  27  28
ENDBRANCH  26  27
ENDBRANCH  19  23
ENDBRANCH  14  15
BRANCH   9   6
ATOM      3  C   UNL     1      -2.759 -10.464  11.536  0.00  0.00    +0.139 A 
ATOM      4  C   UNL     1      -3.326 -10.559  12.127  0.00  0.00    +0.037 A 
ATOM      5  C   UNL     1      -4.081 -10.241  12.031  0.00  0.00    +0.005 A 
ATOM      6  C   UNL     1      -4.270  -9.829  11.342  0.00  0.00    +0.018 A 
ATOM      7  C   UNL     1      -3.704  -9.733  10.750  0.00  0.00    +0.005 A 
ATOM      8  C   UNL     1      -2.948 -10.051  10.847  0.00  0.00    +0.037 A 
BRANCH   3   2
ATOM      1  C   UNL     1      -1.411 -10.334  11.992  0.00  0.00    +0.252 C 
ATOM      2  O   UNL     1      -2.004 -10.781  11.632  0.00  0.00    -0.471 OA
ENDBRANCH   3   2
ENDBRANCH   9   6
TORSDOF 6
ENDMDL
MODEL 4
REMARK VINA RESULT:      -6.5     14.917     16.017
REMARK  Name = 
REMARK  6 active torsions:
REMARK  status: ('A' for Active; 'I' for Inactive)
REMARK    1  A    between atoms: O_2  and  C_3
REMARK    2  A    between atoms: C_6  and  C_9
REMARK    3  A    between atoms: N_14  and  C_15
REMARK    4  A    between atoms: C_19  and  N_23
REMARK    5  A    between atoms: N_26  and  C_27
REMARK    6  A    between atoms: C_27  and  C_28
REMARK                            x       y       z     vdW  Elec       q    Type
REMARK                         _______ _______ _______ _____ _____    ______ ____
ROOT
ATOM      9  C   UNL     1      -8.042  -9.791  17.044  0.00  0.00    +0.086 A 
ATOM     10  C   UNL     1      -7.327  -9.514  17.347  0.00  0.00    +0.040 A 
ATOM     11  C   UNL     1      -6.657  -9.487  16.865  0.00  0.00    +0.103 A 
ATOM     12  N   UNL     1      -6.703  -9.738  16.081  0.00  0.00    -0.211 NA
ATOM     13  C   UNL     1      -7.419 -10.015  15.778  0.00  0.00    +0.237 A 
ATOM     14  N   UNL     1      -7.465 -10.266  14.993  0.00  0.00    -0.200 NA
ATOM     30  N   UNL     1      -8.088 -10.041  16.259  0.00  0.00    -0.212 NA
ENDROOT
BRANCH  14  15
ATOM     15  C   UNL     1      -6.795 -10.240  14.512  0.00  0.00    +0.154 C 
ATOM     16  C   UNL     1      -6.050 -10.538  14.702  0.00  0.00    +0.166 C 
ATOM     17  O   UNL     1      -5.548 -10.393  14.063  0.00  0.00    -0.350 OA
ATOM     18  C   UNL     1      -5.982 -10.007  13.479  0.00  0.00    +0.166 C 
ATOM     19  C   UNL     1      -5.941  -9.679  12.723  0.00  0.00    +0.156 C 
ATOM     20  C   UNL     1      -6.687  -9.381  12.533  0.00  0.00    +0.166 C 
ATOM     21  O   UNL     1      -7.189  -9.525  13.171  0.00  0.00    -0.350 OA
ATOM     22  C   UNL     1      -6.754  -9.912  13.756  0.00  0.00    +0.166 C 
BRANCH  19  23
ATOM     23  N   UNL     1      -5.271  -9.652  12.241  0.00  0.00    -0.184 NA
ATOM     24  C   UNL     1      -5.312  -9.296  11.498  0.00  0.00    +0.340 C 
ATOM     25  O   UNL     1      -6.021  -8.967  11.237  0.00  0.00    -0.249 OA
ATOM     26  N   UNL     1      -4.642  -9.271  11.017  0.00  0.00    -0.182 NA
BRANCH  26  27
ATOM     27  C   UNL     1      -4.683  -8.914  10.274  0.00  0.00    +0.143 C 
BRANCH  27  28
ATOM     28  C   UNL     1      -4.015  -8.894   9.790  0.00  0.00    -0.003 C 
ATOM     29  C   UNL     1      -4.101  -8.861   8.969  0.00  0.00    -0.003 C 
ENDBRANCH  27  28
ENDBRANCH  26  27
ENDBRANCH  19  23
ENDBRANCH  14  15
BRANCH   9   6
ATOM      3  C   UNL     1     -10.050  -9.869  18.489  0.00  0.00    +0.139 A 
ATOM      4  C   UNL     1      -9.953  -9.252  17.949  0.00  0.00    +0.037 A 
ATOM      5  C   UNL     1      -9.285  -9.226  17.468  0.00  0.00    +0.005 A 
ATOM      6  C   UNL     1      -8.712  -9.817  17.525  0.00  0.00    +0.018 A 
ATOM      7  C   UNL     1      -8.807 -10.434  18.064  0.00  0.00    +0.005 A 
ATOM      8  C   UNL     1      -9.477 -10.460  18.546  0.00  0.00    +0.037 A 
BRANCH   3   2
ATOM      1  C   UNL     1     -10.675 -10.236  19.720  0.00  0.00    +0.252 C 
ATOM      2  O   UNL     1     -10.719  -9.895  18.970  0.00  0.00    -0.471 OA
ENDBRANCH   3   2
ENDBRANCH   9   6
TORSDOF 6
ENDMDL
MODEL 5
REMARK VINA RESULT:      -6.5     16.565     17.700
REMARK  Name = 
REMARK  6 active torsions:
REMARK  status: ('A' for Active; 'I' for Inactive)
REMARK    1  A    between atoms: O_2  and  C_3
REMARK    2  A    between atoms: C_6  and  C_9
REMARK    3  A    between atoms: N_14  and  C_15
REMARK    4  A    between atoms: C_19  and  N_23
REMARK    5  A    between atoms: N_26  and  C_27
REMARK    6  A    between atoms: C_27  and  C_28
REMARK                            x       y       z     vdW  Elec       q    Type
REMARK                         _______ _______ _______ _____ _____    ______ ____
ROOT
ATOM      9  C   UNL     1      -6.402  -8.732   9.590  0.00  0.00    +0.086 A 
ATOM     10  C   UNL     1      -5.871  -8.105   9.519  0.00  0.00    +0.040 A 
ATOM     11  C   UNL     1      -5.125  -8.155   9.869  0.00  0.00    +0.103 A 
ATOM     12  N   UNL     1      -4.911  -8.831  10.291  0.00  0.00    -0.211 NA
ATOM     13  C   UNL     1      -5.443  -9.458  10.361  0.00  0.00    +0.237 A 
ATOM     14  N   UNL     1      -5.230 -10.135  10.782  0.00  0.00    -0.200 NA
ATOM     30  N   UNL     1      -6.188  -9.409  10.011  0.00  0.00    -0.212 NA
ENDROOT
BRANCH  14  15
ATOM     15  C   UNL     1      -4.484 -10.184  11.133  0.00  0.00    +0.154 C 
ATOM     16  C   UNL     1      -3.760 -10.107  10.745  0.00  0.00    +0.166 C 
ATOM     17  O   UNL     1      -3.161 -10.195  11.305  0.00  0.00    -0.350 OA
ATOM     18  C   UNL     1      -3.514 -10.326  12.039  0.00  0.00    +0.166 C 
ATOM     19  C   UNL     1      -3.362 -10.462  12.838  0.00  0.00    +0.156 C 
ATOM     20  C   UNL     1      -4.087 -10.539  13.226  0.00  0.00    +0.166 C 
ATOM     21  O   UNL     1      -4.686 -10.451  12.666  0.00  0.00    -0.350 OA
ATOM     22  C   UNL     1      -4.332 -10.320  11.932  0.00  0.00    +0.166 C 
BRANCH  19  23
ATOM     23  N   UNL     1      -2.617 -10.512  13.188  0.00  0.00    -0.184 NA
ATOM     24  C   UNL     1      -2.547 -10.503  14.010  0.00  0.00    +0.340 C 
ATOM     25  O   UNL     1      -3.221 -10.444  14.482  0.00  0.00    -0.249 OA
ATOM     26  N   UNL     1      -1.801 -10.552  14.360  0.00  0.00    -0.182 NA
BRANCH  26  27
ATOM     27  C   UNL     1      -1.731 -10.543  15.183  0.00  0.00    +0.143 C 
BRANCH  27  28
ATOM     28  C   UNL     1      -1.141 -10.091  15.541  0.00  0.00    -0.003 C 
ATOM     29  C   UNL     1      -0.609 -10.447  16.062  0.00  0.00    -0.003 C 
ENDBRANCH  27  28
ENDBRANCH  26  27
ENDBRANCH  19  23
ENDBRANCH  14  15
BRANCH   9   6
ATOM      3  C   UNL     1      -8.638  -8.583   8.538  0.00  0.00    +0.139 A 
ATOM      4  C   UNL     1      -8.013  -8.936   8.131  0.00  0.00    +0.037 A 
ATOM      5  C   UNL     1      -7.268  -8.986   8.481  0.00  0.00    +0.005 A 
ATOM      6  C   UNL     1      -7.148  -8.683   9.239  0.00  0.00    +0.018 A 
ATOM      7  C   UNL     1      -7.772  -8.329   9.647  0.00  0.00    +0.005 A 
ATOM      8  C   UNL     1      -8.518  -8.280   9.296  0.00  0.00    +0.037 A 
BRANCH   3   2
ATOM      1  C   UNL     1     -10.061  -8.666   8.639  0.00  0.00    +0.252 C 
ATOM      2  O   UNL     1      -9.383  -8.533   8.188  0.00  0.00    -0.471 OA
ENDBRANCH   3   2
ENDBRANCH   9   6
TORSDOF 6
ENDMDL
MODEL 6
REMARK VINA RESULT:      -6.2     14.755     15.644
REMARK  Name = 
REMARK  6 active torsions:
REMARK  status: ('A' for Active; 'I' for Inactive)
REMARK    1  A    between atoms: O_2  and  C_3
REMARK    2  A    between atoms: C_6  and  C_9
REMARK    3  A    between atoms: N_14  and  C_15
REMARK    4  A    between atoms: C_19  and  N_23
REMARK    5  A    between atoms: N_26  and  C_27
REMARK    6  A    between atoms: C_27  and  C_28
REMARK                            x       y       z     vdW  Elec       q    Type
REMARK                         _______ _______ _______ _____ _____    ______ ____
ROOT
ATOM      9  C   UNL     1      -7.207  -9.791  16.368  0.00  0.00    +0.086 A 
ATOM     10  C   UNL     1      -6.651  -9.377  16.814  0.00  0.00    +0.040 A 
ATOM     11  C   UNL     1      -5.855  -9.388  16.594  0.00  0.00    +0.103 A 
ATOM     12  N   UNL     1      -5.617  -9.813  15.929  0.00  0.00    -0.211 NA
ATOM     13  C   UNL     1      -6.174 -10.228  15.483  0.00  0.00    +0.237 A 
ATOM     14  N   UNL     1      -5.936 -10.653  14.818  0.00  0.00    -0.200 NA
ATOM     30  N   UNL     1      -6.969 -10.217  15.703  0.00  0.00    -0.212 NA
ENDROOT
BRANCH  14  15
ATOM     15  C   UNL     1      -5.140 -10.664  14.598  0.00  0.00    +0.154 C 
ATOM     16  C   UNL     1      -4.496 -10.650  15.112  0.00  0.00    +0.166 C 
ATOM     17  O   UNL     1      -3.807 -10.669  14.656  0.00  0.00    -0.350 OA
ATOM     18  C   UNL     1      -4.027 -10.693  13.862  0.00  0.00    +0.166 C 
ATOM     19  C   UNL     1      -3.738 -10.720  13.090  0.00  0.00    +0.156 C 
ATOM     20  C   UNL     1      -4.384 -10.734  12.576  0.00  0.00    +0.166 C 
ATOM     21  O   UNL     1      -5.072 -10.716  13.030  0.00  0.00    -0.350 OA
ATOM     22  C   UNL     1      -4.851 -10.691  13.826  0.00  0.00    +0.166 C 
BRANCH  19  23
ATOM     23  N   UNL     1      -2.942 -10.731  12.870  0.00  0.00    -0.184 NA
ATOM     24  C   UNL     1      -2.670 -10.219  12.283  0.00  0.00    +0.340 C 
ATOM     25  O   UNL     1      -3.193  -9.696  11.917  0.00  0.00    -0.249 OA
ATOM     26  N   UNL     1      -1.875 -10.230  12.064  0.00  0.00    -0.182 NA
BRANCH  26  27
ATOM     27  C   UNL     1      -1.603  -9.717  11.477  0.00  0.00    +0.143 C 
BRANCH  27  28
ATOM     28  C   UNL     1      -0.816  -9.471  11.479  0.00  0.00    -0.003 C 
ATOM     29  C   UNL     1      -0.575  -8.857  10.981  0.00  0.00    -0.003 C 
ENDBRANCH  27  28
ENDBRANCH  26  27
ENDBRANCH  19  23
ENDBRANCH  14  15
BRANCH   9   6
ATOM      3  C   UNL     1      -9.593  -9.759  17.029  0.00  0.00    +0.139 A 
ATOM      4  C   UNL     1      -9.284  -9.149  16.566  0.00  0.00    +0.037 A 
ATOM      5  C   UNL     1      -8.489  -9.160  16.346  0.00  0.00    +0.005 A 
ATOM      6  C   UNL     1      -8.003  -9.780  16.588  0.00  0.00    +0.018 A 
ATOM      7  C   UNL     1      -8.310 -10.390  17.051  0.00  0.00    +0.005 A 
ATOM      8  C   UNL     1      -9.106 -10.379  17.271  0.00  0.00    +0.037 A 
BRANCH   3   2
ATOM      1  C   UNL     1     -10.719  -9.062  17.565  0.00  0.00    +0.252 C 
ATOM      2  O   UNL     1     -10.387  -9.748  17.249  0.00  0.00    -0.471 OA
ENDBRANCH   3   2
ENDBRANCH   9   6
TORSDOF 6
ENDMDL
MODEL 7
REMARK VINA RESULT:      -6.1     14.999     17.046
REMARK  Name = 
REMARK  6 active torsions:
REMARK  status: ('A' for Active; 'I' for Inactive)
REMARK    1  A    between atoms: O_2  and  C_3
REMARK    2  A    between atoms: C_6  and  C_9
REMARK    3  A    between atoms: N_14  and  C_15
REMARK    4  A    between atoms: C_19  and  N_23
REMARK    5  A    between atoms: N_26  and  C_27
REMARK    6  A    between atoms: C_27  and  C_28
REMARK                            x       y       z     vdW  Elec       q    Type
REMARK                         _______ _______ _______ _____ _____    ______ ____
ROOT
ATOM      9  C   UNL     1      -4.506 -10.223  12.572  0.00  0.00    +0.086 A 
ATOM     10  C   UNL     1      -5.175 -10.239  12.089  0.00  0.00    +0.040 A 
ATOM     11  C   UNL     1      -5.927 -10.291  12.428  0.00  0.00    +0.103 A 
ATOM     12  N   UNL     1      -6.008 -10.326  13.248  0.00  0.00    -0.211 NA
ATOM     13  C   UNL     1      -5.338 -10.310  13.730  0.00  0.00    +0.237 A 
ATOM     14  N   UNL     1      -5.419 -10.345  14.550  0.00  0.00    -0.200 NA
ATOM     30  N   UNL     1      -4.588 -10.258  13.392  0.00  0.00    -0.212 NA
ENDROOT
BRANCH  14  15
ATOM     15  C   UNL     1      -6.170 -10.396  14.889  0.00  0.00    +0.154 C 
ATOM     16  C   UNL     1      -6.825 -10.773  14.558  0.00  0.00    +0.166 C 
ATOM     17  O   UNL     1      -7.457 -10.689  15.083  0.00  0.00    -0.350 OA
ATOM     18  C   UNL     1      -7.192 -10.262  15.736  0.00  0.00    +0.166 C 
ATOM     19  C   UNL     1      -7.419  -9.947  16.464  0.00  0.00    +0.156 C 
ATOM     20  C   UNL     1      -6.763  -9.571  16.794  0.00  0.00    +0.166 C 
ATOM     21  O   UNL     1      -6.131  -9.653  16.271  0.00  0.00    -0.350 OA
ATOM     22  C   UNL     1      -6.396 -10.081  15.616  0.00  0.00    +0.166 C 
BRANCH  19  23
ATOM     23  N   UNL     1      -8.170  -9.999  16.803  0.00  0.00    -0.184 NA
ATOM     24  C   UNL     1      -8.248 -10.158  17.608  0.00  0.00    +0.340 C 
ATOM     25  O   UNL     1      -7.577 -10.265  18.075  0.00  0.00    -0.249 OA
ATOM     26  N   UNL     1      -8.999 -10.209  17.946  0.00  0.00    -0.182 NA
BRANCH  26  27
ATOM     27  C   UNL     1      -9.078 -10.368  18.753  0.00  0.00    +0.143 C 
BRANCH  27  28
ATOM     28  C   UNL     1      -9.828 -10.405  19.094  0.00  0.00    -0.003 C 
ATOM     29  C   UNL     1      -9.932 -10.781  19.821  0.00  0.00    -0.003 C 
ENDBRANCH  27  28
ENDBRANCH  26  27
ENDBRANCH  19  23
ENDBRANCH  14  15
BRANCH   9   6
ATOM      3  C   UNL     1      -2.254 -10.068  11.555  0.00  0.00    +0.139 A 
ATOM      4  C   UNL     1      -2.341 -10.353  12.325  0.00  0.00    +0.037 A 
ATOM      5  C   UNL     1      -3.091 -10.404  12.664  0.00  0.00    +0.005 A 
ATOM      6  C   UNL     1      -3.755 -10.171  12.233  0.00  0.00    +0.018 A 
ATOM      7  C   UNL     1      -3.669  -9.886  11.464  0.00  0.00    +0.005 A 
ATOM      8  C   UNL     1      -2.918  -9.835  11.125  0.00  0.00    +0.037 A 
BRANCH   3   2
ATOM      1  C   UNL     1      -1.140  -9.281  11.129  0.00  0.00    +0.252 C 
ATOM      2  O   UNL     1      -1.504 -10.016  11.217  0.00  0.00    -0.471 OA
ENDBRANCH   3   2
ENDBRANCH   9   6
TORSDOF 6
ENDMDL
MODEL 8
REMARK VINA RESULT:      -6.0     14.962     16.166
REMARK  Name = 
REMARK  6 active torsions:
REMARK  status: ('A' for Active; 'I' for Inactive)
REMARK    1  A    between atoms: O_2  and  C_3
REMARK    2  A    between atoms: C_6  and  C_9
REMARK    3  A    between atoms: N_14  and  C_15
REMARK    4  A    between atoms: C_19  and  N_23
REMARK    5  A    between atoms: N_26  and  C_27
REMARK    6  A    between atoms: C_27  and  C_28
REMARK                            x       y       z     vdW  Elec       q    Type
REMARK                         _______ _______ _______ _____ _____    ______ ____
ROOT
ATOM      9  C   UNL     1      -5.614 -10.470  16.981  0.00  0.00    +0.086 A 
ATOM     10  C   UNL     1      -4.798 -10.389  17.066  0.00  0.00    +0.040 A 
ATOM     11  C   UNL     1      -4.320 -10.311  16.396  0.00  0.00    +0.103 A 
ATOM     12  N   UNL     1      -4.660 -10.315  15.644  0.00  0.00    -0.211 NA
ATOM     13  C   UNL     1      -5.477 -10.396  15.562  0.00  0.00    +0.237 A 
ATOM     14  N   UNL     1      -5.816 -10.400  14.810  0.00  0.00    -0.200 NA
ATOM     30  N   UNL     1      -5.954 -10.474  16.229  0.00  0.00    -0.212 NA
ENDROOT
BRANCH  14  15
ATOM     15  C   UNL     1      -5.338 -10.323  14.141  0.00  0.00    +0.154 C 
ATOM     16  C   UNL     1      -4.561 -10.587  14.068  0.00  0.00    +0.166 C 
ATOM     17  O   UNL     1      -4.297 -10.395  13.309  0.00  0.00    -0.350 OA
ATOM     18  C   UNL     1      -4.912 -10.012  12.915  0.00  0.00    +0.166 C 
ATOM     19  C   UNL     1      -5.129  -9.657  12.203  0.00  0.00    +0.156 C 
ATOM     20  C   UNL     1      -5.907  -9.393  12.276  0.00  0.00    +0.166 C 
ATOM     21  O   UNL     1      -6.171  -9.584  13.034  0.00  0.00    -0.350 OA
ATOM     22  C   UNL     1      -5.555  -9.968  13.429  0.00  0.00    +0.166 C 
BRANCH  19  23
ATOM     23  N   UNL     1      -4.651  -9.580  11.534  0.00  0.00    -0.184 NA
ATOM     24  C   UNL     1      -4.979  -9.324  10.821  0.00  0.00    +0.340 C 
ATOM     25  O   UNL     1      -5.783  -9.145  10.777  0.00  0.00    -0.249 OA
ATOM     26  N   UNL     1      -4.501  -9.247  10.153  0.00  0.00    -0.182 NA
BRANCH  26  27
ATOM     27  C   UNL     1      -4.829  -8.990   9.440  0.00  0.00    +0.143 C 
BRANCH  27  28
ATOM     28  C   UNL     1      -4.470  -9.193   8.726  0.00  0.00    -0.003 C 
ATOM     29  C   UNL     1      -4.844  -9.720   8.212  0.00  0.00    -0.003 C 
ENDBRANCH  27  28
ENDBRANCH  26  27
ENDBRANCH  19  23
ENDBRANCH  14  15
BRANCH   9   6
ATOM      3  C   UNL     1      -7.046 -10.702  18.988  0.00  0.00    +0.139 A 
ATOM      4  C   UNL     1      -7.377 -10.768  18.235  0.00  0.00    +0.037 A 
ATOM      5  C   UNL     1      -6.900 -10.691  17.566  0.00  0.00    +0.005 A 
ATOM      6  C   UNL     1      -6.092 -10.547  17.650  0.00  0.00    +0.018 A 
ATOM      7  C   UNL     1      -5.760 -10.481  18.403  0.00  0.00    +0.005 A 
ATOM      8  C   UNL     1      -6.238 -10.559  19.072  0.00  0.00    +0.037 A 
BRANCH   3   2
ATOM      1  C   UNL     1      -8.344 -10.747  19.584  0.00  0.00    +0.252 C 
ATOM      2  O   UNL     1      -7.523 -10.779  19.656  0.00  0.00    -0.471 OA
ENDBRANCH   3   2
ENDBRANCH   9   6
TORSDOF 6
ENDMDL
MODEL 9
REMARK VINA RESULT:      -5.2     16.874     18.841
REMARK  Name = 
REMARK  6 active torsions:
REMARK  status: ('A' for Active; 'I' for Inactive)
REMARK    1  A    between atoms: O_2  and  C_3
REMARK    2  A    between atoms: C_6  and  C_9
REMARK    3  A    between atoms: N_14  and  C_15
REMARK    4  A    between atoms: C_19  and  N_23
REMARK    5  A    between atoms: N_26  and  C_27
REMARK    6  A    between atoms: C_27  and  C_28
REMARK                            x       y       z     vdW  Elec       q    Type
REMARK                         _______ _______ _______ _____ _____    ______ ____
ROOT
ATOM      9  C   UNL     1      -1.730  -9.343  11.105  0.00  0.00    +0.086 A 
ATOM     10  C   UNL     1      -1.956 -10.038  11.489  0.00  0.00    +0.040 A 
ATOM     11  C   UNL     1      -2.667 -10.407  11.289  0.00  0.00    +0.103 A 
ATOM     12  N   UNL     1      -3.151 -10.082  10.706  0.00  0.00    -0.211 NA
ATOM     13  C   UNL     1      -2.925  -9.387  10.323  0.00  0.00    +0.237 A 
ATOM     14  N   UNL     1      -3.409  -9.061   9.740  0.00  0.00    -0.200 NA
ATOM     30  N   UNL     1      -2.215  -9.018  10.522  0.00  0.00    -0.212 NA
ENDROOT
BRANCH  14  15
ATOM     15  C   UNL     1      -4.120  -9.431   9.540  0.00  0.00    +0.154 C 
ATOM     16  C   UNL     1      -4.213 -10.224   9.338  0.00  0.00    +0.166 C 
ATOM     17  O   UNL     1      -5.013 -10.355   9.181  0.00  0.00    -0.350 OA
ATOM     18  C   UNL     1      -5.413  -9.642   9.286  0.00  0.00    +0.166 C 
ATOM     19  C   UNL     1      -6.154  -9.281   9.254  0.00  0.00    +0.156 C 
ATOM     20  C   UNL     1      -6.061  -8.487   9.457  0.00  0.00    +0.166 C 
ATOM     21  O   UNL     1      -5.262  -8.356   9.614  0.00  0.00    -0.350 OA
ATOM     22  C   UNL     1      -4.861  -9.070   9.508  0.00  0.00    +0.166 C 
BRANCH  19  23
ATOM     23  N   UNL     1      -6.865  -9.651   9.054  0.00  0.00    -0.184 NA
ATOM     24  C   UNL     1      -7.577  -9.363   9.356  0.00  0.00    +0.340 C 
ATOM     25  O   UNL     1      -7.579  -8.708   9.857  0.00  0.00    -0.249 OA
ATOM     26  N   UNL     1      -8.287  -9.733   9.156  0.00  0.00    -0.182 NA
BRANCH  26  27
ATOM     27  C   UNL     1      -9.000  -9.446   9.458  0.00  0.00    +0.143 C 
BRANCH  27  28
ATOM     28  C   UNL     1      -9.711  -9.811   9.252  0.00  0.00    -0.003 C 
ATOM     29  C   UNL     1     -10.429  -9.477   9.488  0.00  0.00    -0.003 C 
ENDBRANCH  27  28
ENDBRANCH  26  27
ENDBRANCH  19  23
ENDBRANCH  14  15
BRANCH   9   6
ATOM      3  C   UNL     1       0.402  -8.236  11.704  0.00  0.00    +0.139 A 
ATOM      4  C   UNL     1      -0.245  -8.192  12.215  0.00  0.00    +0.037 A 
ATOM      5  C   UNL     1      -0.955  -8.560  12.016  0.00  0.00    +0.005 A 
ATOM      6  C   UNL     1      -1.019  -8.974  11.305  0.00  0.00    +0.018 A 
ATOM      7  C   UNL     1      -0.374  -9.019  10.793  0.00  0.00    +0.005 A 
ATOM      8  C   UNL     1       0.337  -8.650  10.993  0.00  0.00    +0.037 A 
BRANCH   3   2
ATOM      1  C   UNL     1       1.105  -7.152  12.313  0.00  0.00    +0.252 C 
ATOM      2  O   UNL     1       1.112  -7.868  11.903  0.00  0.00    -0.471 OA
ENDBRANCH   3   2
ENDBRANCH   9   6
TORSDOF 6
ENDMDL
MODEL 10
REMARK VINA RESULT:      -5.0     17.156     18.212
REMARK  Name = 
REMARK  6 active torsions:
REMARK  status: ('A' for Active; 'I' for Inactive)
REMARK    1  A    between atoms: O_2  and  C_3
REMARK    2  A    between atoms: C_6  and  C_9
REMARK    3  A    between atoms: N_14  and  C_15
REMARK    4  A    between atoms: C_19  and  N_23
REMARK    5  A    between atoms: N_26  and  C_27
REMARK    6  A    between atoms: C_27  and  C_28
REMARK                            x       y       z     vdW  Elec       q    Type
REMARK                         _______ _______ _______ _____ _____    ______ ____
ROOT
ATOM      9  C   UNL     1      -8.218  -7.628   8.837  0.00  0.00    +0.086 A 
ATOM     10  C   UNL     1      -7.696  -7.832   8.232  0.00  0.00    +0.040 A 
ATOM     11  C   UNL     1      -7.094  -8.380   8.374  0.00  0.00    +0.103 A 
ATOM     12  N   UNL     1      -7.016  -8.723   9.120  0.00  0.00    -0.211 NA
ATOM     13  C   UNL     1      -7.540  -8.518   9.724  0.00  0.00    +0.237 A 
ATOM     14  N   UNL     1      -7.462  -8.861  10.470  0.00  0.00    -0.200 NA
ATOM     30  N   UNL     1      -8.140  -7.971   9.583  0.00  0.00    -0.212 NA
ENDROOT
BRANCH  14  15
ATOM     15  C   UNL     1      -6.860  -9.408  10.612  0.00  0.00    +0.154 C 
ATOM     16  C   UNL     1      -6.765 -10.133  10.230  0.00  0.00    +0.166 C 
ATOM     17  O   UNL     1      -6.094 -10.499  10.543  0.00  0.00    -0.350 OA
ATOM     18  C   UNL     1      -5.777 -10.001  11.118  0.00  0.00    +0.166 C 
ATOM     19  C   UNL     1      -5.167  -9.920  11.667  0.00  0.00    +0.156 C 
ATOM     20  C   UNL     1      -5.263  -9.195  12.050  0.00  0.00    +0.166 C 
ATOM     21  O   UNL     1      -5.932  -8.828  11.737  0.00  0.00    -0.350 OA
ATOM     22  C   UNL     1      -6.250  -9.327  11.161  0.00  0.00    +0.166 C 
BRANCH  19  23
ATOM     23  N   UNL     1      -4.565 -10.467  11.809  0.00  0.00    -0.184 NA
ATOM     24  C   UNL     1      -3.776 -10.233  11.760  0.00  0.00    +0.340 C 
ATOM     25  O   UNL     1      -3.587  -9.453  11.569  0.00  0.00    -0.249 OA
ATOM     26  N   UNL     1      -3.175 -10.781  11.902  0.00  0.00    -0.182 NA
BRANCH  26  27
ATOM     27  C   UNL     1      -2.385 -10.547  11.852  0.00  0.00    +0.143 C 
BRANCH  27  28
ATOM     28  C   UNL     1      -1.918 -10.525  12.533  0.00  0.00    -0.003 C 
ATOM     29  C   UNL     1      -1.134 -10.780  12.503  0.00  0.00    -0.003 C 
ENDBRANCH  27  28
ENDBRANCH  26  27
ENDBRANCH  19  23
ENDBRANCH  14  15
BRANCH   9   6
ATOM      3  C   UNL     1     -10.022  -5.987   8.411  0.00  0.00    +0.139 A 
ATOM      4  C   UNL     1      -9.233  -5.766   8.320  0.00  0.00    +0.037 A 
ATOM      5  C   UNL     1      -8.632  -6.312   8.462  0.00  0.00    +0.005 A 
ATOM      6  C   UNL     1      -8.820  -7.081   8.695  0.00  0.00    +0.018 A 
ATOM      7  C   UNL     1      -9.609  -7.303   8.785  0.00  0.00    +0.005 A 
ATOM      8  C   UNL     1     -10.211  -6.756   8.643  0.00  0.00    +0.037 A 
BRANCH   3   2
ATOM      1  C   UNL     1     -10.719  -4.792   8.770  0.00  0.00    +0.252 C 
ATOM      2  O   UNL     1     -10.623  -5.441   8.269  0.00  0.00    -0.471 OA
ENDBRANCH   3   2
ENDBRANCH   9   6
TORSDOF 6
ENDMDL
