REMARK  Name = 
REMARK  5 active torsions:
REMARK  status: ('A' for Active; 'I' for Inactive)
REMARK    1  A    between atoms: O_2  and  C_3
REMARK    2  A    between atoms: C_5  and  O_6
REMARK    3  A    between atoms: C_9  and  N_10
REMARK    4  A    between atoms: C_22  and  N_23
REMARK    5  A    between atoms: C_24  and  C_26
REMARK                            x       y       z     vdW  Elec       q    Type
REMARK                         _______ _______ _______ _____ _____    ______ ____
ROOT
ATOM     10  N   UNL     1      -0.614  -2.179   0.000  0.00  0.00    -0.162 NA
ATOM     11  C   UNL     1       0.125  -2.547   0.000  0.00  0.00    +0.327 C 
ATOM     12  O   UNL     1       0.176  -3.370   0.000  0.00  0.00    -0.250 OA
ATOM     13  N   UNL     1       0.813  -2.091   0.000  0.00  0.00    -0.262 N 
ATOM     14  C   UNL     1       1.629  -1.912   0.000  0.00  0.00    +0.097 C 
ATOM     15  C   UNL     1       1.582  -0.925   0.000  0.00  0.00    +0.043 C 
ATOM     16  C   UNL     1       1.713  -0.121   0.000  0.00  0.00    +0.011 C 
ATOM     17  C   UNL     1       1.163  -0.557   0.000  0.00  0.00    +0.058 C 
ATOM     18  C   UNL     1       1.225  -1.510   0.000  0.00  0.00    +0.101 C 
ATOM     19  C   UNL     1       0.244  -0.558   0.000  0.00  0.00    +0.041 A 
ATOM     20  C   UNL     1      -0.397  -0.039   0.000  0.00  0.00    +0.014 A 
ATOM     21  C   UNL     1      -1.167  -0.335   0.000  0.00  0.00    +0.023 A 
ATOM     22  C   UNL     1      -1.296  -1.150   0.000  0.00  0.00    +0.130 A 
ATOM     32  C   UNL     1      -0.655  -1.669   0.000  0.00  0.00    +0.276 A 
ATOM     33  O   UNL     1      -1.238  -2.252   0.000  0.00  0.00    -0.266 OA
ATOM     34  N   UNL     1       0.115  -1.373   0.000  0.00  0.00    -0.298 N 
ATOM     35  C   UNL     1       0.622  -0.936   0.000  0.00  0.00    +0.110 C 
ENDROOT
BRANCH  10   9
ATOM      3  C   UNL     1      -1.938  -3.914   0.000  0.00  0.00    +0.143 A 
ATOM      4  C   UNL     1      -2.677  -3.546   0.000  0.00  0.00    +0.074 A 
ATOM      5  C   UNL     1      -2.728  -2.723   0.000  0.00  0.00    +0.143 A 
ATOM      8  C   UNL     1      -2.040  -2.267   0.000  0.00  0.00    +0.054 A 
ATOM      9  C   UNL     1      -1.301  -2.635   0.000  0.00  0.00    +0.081 A 
ATOM     36  C   UNL     1      -1.251  -3.458   0.000  0.00  0.00    +0.054 A 
BRANCH   3   2
ATOM      1  C   UNL     1      -2.575  -5.193   0.000  0.00  0.00    +0.252 C 
ATOM      2  O   UNL     1      -1.888  -4.737   0.000  0.00  0.00    -0.471 OA
ENDBRANCH   3   2
BRANCH   5   6
ATOM      6  O   UNL     1      -3.466  -2.355   0.000  0.00  0.00    -0.471 OA
ATOM      7  C   UNL     1      -4.154  -2.811   0.000  0.00  0.00    +0.252 C 
ENDBRANCH   5   6
ENDBRANCH  10   9
BRANCH  22  23
ATOM     23  N   UNL     1      -2.066  -1.445   0.000  0.00  0.00    -0.171 NA
ATOM     24  C   UNL     1      -2.707  -0.926   0.000  0.00  0.00    +0.269 C 
ATOM     25  O   UNL     1      -2.578  -0.111   0.000  0.00  0.00    -0.268 OA
BRANCH  24  26
ATOM     26  C   UNL     1      -3.478  -1.222   0.000  0.00  0.00    +0.055 A 
ATOM     27  C   UNL     1      -3.606  -2.037   0.000  0.00  0.00    +0.005 A 
ATOM     28  C   UNL     1      -4.377  -2.333   0.000  0.00  0.00    +0.000 A 
ATOM     29  C   UNL     1      -5.018  -1.813   0.000  0.00  0.00    +0.000 A 
ATOM     30  C   UNL     1      -4.889  -0.999   0.000  0.00  0.00    +0.000 A 
ATOM     31  C   UNL     1      -4.119  -0.703   0.000  0.00  0.00    +0.005 A 
ENDBRANCH  24  26
ENDBRANCH  22  23
TORSDOF 5
