MODEL 1
REMARK VINA RESULT:     -17.9      0.000      0.000
REMARK  Name = 
REMARK  5 active torsions:
REMARK  status: ('A' for Active; 'I' for Inactive)
REMARK    1  A    between atoms: C_2  and  C_26
REMARK    2  A    between atoms: C_12  and  N_13
REMARK    3  A    between atoms: N_13  and  S_14
REMARK    4  A    between atoms: S_14  and  C_17
REMARK    5  A    between atoms: C_29  and  C_32
REMARK                            x       y       z     vdW  Elec       q    Type
REMARK                         _______ _______ _______ _____ _____    ______ ____
ROOT
ATOM      1  O   UNL     1      -3.367   3.029  23.428  0.00  0.00    -0.270 OA
ATOM      2  C   UNL     1      -3.676   2.354  23.895  0.00  0.00    +0.249 C 
ATOM      3  N   UNL     1      -4.280   2.685  24.371  0.00  0.00    -0.276 N 
ATOM      4  C   UNL     1      -4.724   3.352  24.609  0.00  0.00    +0.096 C 
ATOM      5  C   UNL     1      -5.317   2.926  25.275  0.00  0.00    +0.043 C 
ATOM      6  C   UNL     1      -5.870   2.731  25.841  0.00  0.00    +0.011 C 
ATOM      7  C   UNL     1      -5.375   2.405  25.466  0.00  0.00    +0.058 C 
ATOM      8  C   UNL     1      -4.809   2.831  24.825  0.00  0.00    +0.099 C 
ATOM      9  C   UNL     1      -4.999   1.577  25.334  0.00  0.00    +0.041 A 
ATOM     10  C   UNL     1      -5.059   0.797  25.596  0.00  0.00    +0.014 A 
ATOM     11  C   UNL     1      -4.561   0.218  25.285  0.00  0.00    +0.024 A 
ATOM     12  C   UNL     1      -3.986   0.525  24.667  0.00  0.00    +0.147 A 
ATOM     22  C   UNL     1      -3.943   1.198  24.449  0.00  0.00    +0.277 A 
ATOM     23  O   UNL     1      -3.354   1.708  23.764  0.00  0.00    -0.266 OA
ATOM     24  N   UNL     1      -4.441   1.777  24.760  0.00  0.00    -0.298 N 
ATOM     25  C   UNL     1      -4.919   2.064  25.130  0.00  0.00    +0.110 C 
ENDROOT
BRANCH   2  26
ATOM     26  C   UNL     1      -3.643   1.433  24.107  0.00  0.00    +0.054 A 
ATOM     27  C   UNL     1      -3.869   0.918  23.505  0.00  0.00    +0.005 A 
ATOM     28  C   UNL     1      -3.860   0.102  23.634  0.00  0.00    +0.000 A 
ATOM     29  C   UNL     1      -3.624  -0.196  24.366  0.00  0.00    +0.000 A 
ATOM     30  C   UNL     1      -3.398   0.320  24.969  0.00  0.00    +0.000 A 
ATOM     31  C   UNL     1      -3.408   1.135  24.839  0.00  0.00    +0.005 A 
BRANCH  29  32
ATOM     32  C   UNL     1      -3.614  -1.011  24.496  0.00  0.00    +0.000 A 
ATOM     33  C   UNL     1      -3.789  -1.529  23.878  0.00  0.00    +0.000 A 
ATOM     34  C   UNL     1      -3.779  -2.343  24.007  0.00  0.00    +0.000 A 
ATOM     35  C   UNL     1      -3.595  -2.640  24.755  0.00  0.00    +0.000 A 
ATOM     36  C   UNL     1      -3.420  -2.122  25.372  0.00  0.00    +0.000 A 
ATOM     37  C   UNL     1      -3.429  -1.308  25.243  0.00  0.00    +0.000 A 
ENDBRANCH  29  32
ENDBRANCH   2  26
BRANCH  12  13
ATOM     13  N   UNL     1      -3.366   0.269  24.155  0.00  0.00    -0.091 NA
BRANCH  13  14
ATOM     14  S   UNL     1      -2.519   0.361  24.685  0.00  0.00    +0.099 S 
ATOM     15  O   UNL     1      -2.779   0.330  25.500  0.00  0.00    -0.148 OA
ATOM     16  O   UNL     1      -1.963   0.424  23.944  0.00  0.00    -0.148 OA
BRANCH  14  17
ATOM     17  C   UNL     1      -1.298   0.496  24.698  0.00  0.00    +0.156 A 
ATOM     18  C   UNL     1      -0.673   0.863  25.093  0.00  0.00    +0.027 A 
ATOM     19  C   UNL     1       0.028   0.645  24.716  0.00  0.00    +0.009 A 
ATOM     20  C   UNL     1      -0.163   0.144  24.090  0.00  0.00    +0.037 A 
ATOM     21  S   UNL     1      -0.983   0.052  24.078  0.00  0.00    -0.066 S 
ENDBRANCH  14  17
ENDBRANCH  13  14
ENDBRANCH  12  13
TORSDOF 5
ENDMDL
MODEL 2
REMARK VINA RESULT:     -16.7      1.103      3.493
REMARK  Name = 
REMARK  5 active torsions:
REMARK  status: ('A' for Active; 'I' for Inactive)
REMARK    1  A    between atoms: C_2  and  C_26
REMARK    2  A    between atoms: C_12  and  N_13
REMARK    3  A    between atoms: N_13  and  S_14
REMARK    4  A    between atoms: S_14  and  C_17
REMARK    5  A    between atoms: C_29  and  C_32
REMARK                            x       y       z     vdW  Elec       q    Type
REMARK                         _______ _______ _______ _____ _____    ______ ____
ROOT
ATOM      1  O   UNL     1      -2.589  -1.546  26.498  0.00  0.00    -0.270 OA
ATOM      2  C   UNL     1      -2.925  -1.139  25.798  0.00  0.00    +0.249 C 
ATOM      3  N   UNL     1      -3.227  -1.755  25.320  0.00  0.00    -0.276 N 
ATOM      4  C   UNL     1      -3.360  -2.571  25.197  0.00  0.00    +0.096 C 
ATOM      5  C   UNL     1      -3.818  -2.534  24.322  0.00  0.00    +0.043 C 
ATOM      6  C   UNL     1      -4.201  -2.673  23.616  0.00  0.00    +0.011 C 
ATOM      7  C   UNL     1      -3.964  -2.120  23.978  0.00  0.00    +0.058 C 
ATOM      8  C   UNL     1      -3.523  -2.172  24.824  0.00  0.00    +0.099 C 
ATOM      9  C   UNL     1      -3.909  -1.203  23.940  0.00  0.00    +0.041 A 
ATOM     10  C   UNL     1      -4.113  -0.569  23.453  0.00  0.00    +0.014 A 
ATOM     11  C   UNL     1      -3.928   0.202  23.682  0.00  0.00    +0.024 A 
ATOM     12  C   UNL     1      -3.507   0.257  24.474  0.00  0.00    +0.147 A 
ATOM     22  C   UNL     1      -3.336  -0.296  24.884  0.00  0.00    +0.277 A 
ATOM     23  O   UNL     1      -2.863  -0.407  25.800  0.00  0.00    -0.266 OA
ATOM     24  N   UNL     1      -3.521  -1.066  24.655  0.00  0.00    -0.298 N 
ATOM     25  C   UNL     1      -3.755  -1.576  24.290  0.00  0.00    +0.110 C 
ENDROOT
BRANCH   2  26
ATOM     26  C   UNL     1      -3.101  -0.331  25.337  0.00  0.00    +0.054 A 
ATOM     27  C   UNL     1      -3.658   0.167  25.685  0.00  0.00    +0.005 A 
ATOM     28  C   UNL     1      -3.851   0.884  25.326  0.00  0.00    +0.000 A 
ATOM     29  C   UNL     1      -3.487   1.103  24.620  0.00  0.00    +0.000 A 
ATOM     30  C   UNL     1      -2.929   0.604  24.271  0.00  0.00    +0.000 A 
ATOM     31  C   UNL     1      -2.736  -0.114  24.630  0.00  0.00    +0.005 A 
BRANCH  29  32
ATOM     32  C   UNL     1      -3.679   1.820  24.260  0.00  0.00    +0.000 A 
ATOM     33  C   UNL     1      -4.074   2.404  24.690  0.00  0.00    +0.000 A 
ATOM     34  C   UNL     1      -4.267   3.121  24.331  0.00  0.00    +0.000 A 
ATOM     35  C   UNL     1      -4.064   3.255  23.542  0.00  0.00    +0.000 A 
ATOM     36  C   UNL     1      -3.669   2.672  23.113  0.00  0.00    +0.000 A 
ATOM     37  C   UNL     1      -3.476   1.955  23.472  0.00  0.00    +0.000 A 
ENDBRANCH  29  32
ENDBRANCH   2  26
BRANCH  12  13
ATOM     13  N   UNL     1      -3.178   0.818  25.011  0.00  0.00    -0.091 NA
BRANCH  13  14
ATOM     14  S   UNL     1      -2.235   0.968  24.706  0.00  0.00    +0.099 S 
ATOM     15  O   UNL     1      -2.215   0.636  23.917  0.00  0.00    -0.148 OA
ATOM     16  O   UNL     1      -1.959   1.384  25.489  0.00  0.00    -0.148 OA
BRANCH  14  17
ATOM     17  C   UNL     1      -1.110   1.403  24.944  0.00  0.00    +0.156 A 
ATOM     18  C   UNL     1      -0.652   1.784  25.515  0.00  0.00    +0.027 A 
ATOM     19  C   UNL     1       0.109   1.877  25.208  0.00  0.00    +0.009 A 
ATOM     20  C   UNL     1       0.120   1.555  24.449  0.00  0.00    +0.037 A 
ATOM     21  S   UNL     1      -0.634   1.262  24.286  0.00  0.00    -0.066 S 
ENDBRANCH  14  17
ENDBRANCH  13  14
ENDBRANCH  12  13
TORSDOF 5
ENDMDL
MODEL 3
REMARK VINA RESULT:     -16.6      1.577      3.211
REMARK  Name = 
REMARK  5 active torsions:
REMARK  status: ('A' for Active; 'I' for Inactive)
REMARK    1  A    between atoms: C_2  and  C_26
REMARK    2  A    between atoms: C_12  and  N_13
REMARK    3  A    between atoms: N_13  and  S_14
REMARK    4  A    between atoms: S_14  and  C_17
REMARK    5  A    between atoms: C_29  and  C_32
REMARK                            x       y       z     vdW  Elec       q    Type
REMARK                         _______ _______ _______ _____ _____    ______ ____
ROOT
ATOM      1  O   UNL     1      -1.332   1.716  22.829  0.00  0.00    -0.270 OA
ATOM      2  C   UNL     1      -1.854   2.016  23.466  0.00  0.00    +0.249 C 
ATOM      3  N   UNL     1      -1.386   2.576  23.876  0.00  0.00    -0.276 N 
ATOM      4  C   UNL     1      -0.660   2.981  23.964  0.00  0.00    +0.096 C 
ATOM      5  C   UNL     1      -0.878   3.543  24.747  0.00  0.00    +0.043 C 
ATOM      6  C   UNL     1      -0.898   4.063  25.374  0.00  0.00    +0.011 C 
ATOM      7  C   UNL     1      -1.331   3.605  25.066  0.00  0.00    +0.058 C 
ATOM      8  C   UNL     1      -1.106   3.069  24.308  0.00  0.00    +0.099 C 
ATOM      9  C   UNL     1      -2.184   3.267  25.125  0.00  0.00    +0.041 A 
ATOM     10  C   UNL     1      -2.870   3.336  25.578  0.00  0.00    +0.014 A 
ATOM     11  C   UNL     1      -3.532   2.879  25.395  0.00  0.00    +0.024 A 
ATOM     12  C   UNL     1      -3.417   2.336  24.689  0.00  0.00    +0.147 A 
ATOM     22  C   UNL     1      -2.822   2.284  24.307  0.00  0.00    +0.277 A 
ATOM     23  O   UNL     1      -2.527   1.725  23.485  0.00  0.00    -0.266 OA
ATOM     24  N   UNL     1      -2.160   2.741  24.490  0.00  0.00    -0.298 N 
ATOM     25  C   UNL     1      -1.766   3.184  24.802  0.00  0.00    +0.110 C 
ENDROOT
BRANCH   2  26
ATOM     26  C   UNL     1      -2.694   2.000  23.901  0.00  0.00    +0.054 A 
ATOM     27  C   UNL     1      -3.329   2.296  23.466  0.00  0.00    +0.005 A 
ATOM     28  C   UNL     1      -4.085   2.306  23.796  0.00  0.00    +0.000 A 
ATOM     29  C   UNL     1      -4.206   2.021  24.560  0.00  0.00    +0.000 A 
ATOM     30  C   UNL     1      -3.570   1.724  24.995  0.00  0.00    +0.000 A 
ATOM     31  C   UNL     1      -2.814   1.714  24.665  0.00  0.00    +0.005 A 
BRANCH  29  32
ATOM     32  C   UNL     1      -4.962   2.030  24.889  0.00  0.00    +0.000 A 
ATOM     33  C   UNL     1      -5.624   1.937  24.406  0.00  0.00    +0.000 A 
ATOM     34  C   UNL     1      -6.380   1.947  24.735  0.00  0.00    +0.000 A 
ATOM     35  C   UNL     1      -6.474   2.050  25.549  0.00  0.00    +0.000 A 
ATOM     36  C   UNL     1      -5.812   2.143  26.032  0.00  0.00    +0.000 A 
ATOM     37  C   UNL     1      -5.057   2.133  25.703  0.00  0.00    +0.000 A 
ENDBRANCH  29  32
ENDBRANCH   2  26
BRANCH  12  13
ATOM     13  N   UNL     1      -3.821   1.759  24.224  0.00  0.00    -0.091 NA
BRANCH  13  14
ATOM     14  S   UNL     1      -3.672   0.882  24.686  0.00  0.00    +0.099 S 
ATOM     15  O   UNL     1      -3.387   1.101  25.463  0.00  0.00    -0.148 OA
ATOM     16  O   UNL     1      -3.942   0.361  23.966  0.00  0.00    -0.148 OA
BRANCH  14  17
ATOM     17  C   UNL     1      -3.711  -0.346  24.647  0.00  0.00    +0.156 A 
ATOM     18  C   UNL     1      -3.893  -0.991  24.165  0.00  0.00    +0.027 A 
ATOM     19  C   UNL     1      -3.754  -1.679  24.599  0.00  0.00    +0.009 A 
ATOM     20  C   UNL     1      -3.486  -1.460  25.348  0.00  0.00    +0.037 A 
ATOM     21  S   UNL     1      -3.459  -0.635  25.377  0.00  0.00    -0.066 S 
ENDBRANCH  14  17
ENDBRANCH  13  14
ENDBRANCH  12  13
TORSDOF 5
ENDMDL
MODEL 4
REMARK VINA RESULT:     -16.2      1.344      3.102
REMARK  Name = 
REMARK  5 active torsions:
REMARK  status: ('A' for Active; 'I' for Inactive)
REMARK    1  A    between atoms: C_2  and  C_26
REMARK    2  A    between atoms: C_12  and  N_13
REMARK    3  A    between atoms: N_13  and  S_14
REMARK    4  A    between atoms: S_14  and  C_17
REMARK    5  A    between atoms: C_29  and  C_32
REMARK                            x       y       z     vdW  Elec       q    Type
REMARK                         _______ _______ _______ _____ _____    ______ ____
ROOT
ATOM      1  O   UNL     1      -2.432   3.607  23.688  0.00  0.00    -0.270 OA
ATOM      2  C   UNL     1      -2.325   2.817  24.053  0.00  0.00    +0.249 C 
ATOM      3  N   UNL     1      -1.606   2.875  24.476  0.00  0.00    -0.276 N 
ATOM      4  C   UNL     1      -0.945   3.329  24.714  0.00  0.00    +0.096 C 
ATOM      5  C   UNL     1      -0.471   2.657  25.261  0.00  0.00    +0.043 C 
ATOM      6  C   UNL     1       0.033   2.227  25.735  0.00  0.00    +0.011 C 
ATOM      7  C   UNL     1      -0.574   2.126  25.398  0.00  0.00    +0.058 C 
ATOM      8  C   UNL     1      -1.020   2.786  24.872  0.00  0.00    +0.099 C 
ATOM      9  C   UNL     1      -1.214   1.485  25.244  0.00  0.00    +0.041 A 
ATOM     10  C   UNL     1      -1.394   0.702  25.428  0.00  0.00    +0.014 A 
ATOM     11  C   UNL     1      -2.083   0.356  25.133  0.00  0.00    +0.024 A 
ATOM     12  C   UNL     1      -2.575   0.905  24.621  0.00  0.00    +0.147 A 
ATOM     22  C   UNL     1      -2.411   1.578  24.468  0.00  0.00    +0.277 A 
ATOM     23  O   UNL     1      -2.856   2.330  23.909  0.00  0.00    -0.266 OA
ATOM     24  N   UNL     1      -1.723   1.923  24.763  0.00  0.00    -0.298 N 
ATOM     25  C   UNL     1      -1.145   1.994  25.094  0.00  0.00    +0.110 C 
ENDROOT
BRANCH   2  26
ATOM     26  C   UNL     1      -2.645   1.937  24.188  0.00  0.00    +0.054 A 
ATOM     27  C   UNL     1      -2.667   1.456  23.518  0.00  0.00    +0.005 A 
ATOM     28  C   UNL     1      -2.937   0.678  23.577  0.00  0.00    +0.000 A 
ATOM     29  C   UNL     1      -3.184   0.382  24.306  0.00  0.00    +0.000 A 
ATOM     30  C   UNL     1      -3.162   0.863  24.976  0.00  0.00    +0.000 A 
ATOM     31  C   UNL     1      -2.892   1.641  24.917  0.00  0.00    +0.005 A 
BRANCH  29  32
ATOM     32  C   UNL     1      -3.454  -0.395  24.366  0.00  0.00    +0.000 A 
ATOM     33  C   UNL     1      -3.762  -0.776  23.702  0.00  0.00    +0.000 A 
ATOM     34  C   UNL     1      -4.032  -1.553  23.762  0.00  0.00    +0.000 A 
ATOM     35  C   UNL     1      -3.994  -1.950  24.485  0.00  0.00    +0.000 A 
ATOM     36  C   UNL     1      -3.685  -1.568  25.148  0.00  0.00    +0.000 A 
ATOM     37  C   UNL     1      -3.415  -0.792  25.089  0.00  0.00    +0.000 A 
ENDBRANCH  29  32
ENDBRANCH   2  26
BRANCH  12  13
ATOM     13  N   UNL     1      -3.289   0.927  24.171  0.00  0.00    -0.091 NA
BRANCH  13  14
ATOM     14  S   UNL     1      -4.010   1.195  24.814  0.00  0.00    +0.099 S 
ATOM     15  O   UNL     1      -3.670   1.038  25.584  0.00  0.00    -0.148 OA
ATOM     16  O   UNL     1      -4.615   1.455  24.159  0.00  0.00    -0.148 OA
BRANCH  14  17
ATOM     17  C   UNL     1      -5.141   1.640  24.999  0.00  0.00    +0.156 A 
ATOM     18  C   UNL     1      -5.852   1.824  24.624  0.00  0.00    +0.027 A 
ATOM     19  C   UNL     1      -6.370   2.122  25.194  0.00  0.00    +0.009 A 
ATOM     20  C   UNL     1      -5.978   2.121  25.920  0.00  0.00    +0.037 A 
ATOM     21  S   UNL     1      -5.218   1.823  25.799  0.00  0.00    -0.066 S 
ENDBRANCH  14  17
ENDBRANCH  13  14
ENDBRANCH  12  13
TORSDOF 5
ENDMDL
MODEL 5
REMARK VINA RESULT:     -15.9      1.262      2.660
REMARK  Name = 
REMARK  5 active torsions:
REMARK  status: ('A' for Active; 'I' for Inactive)
REMARK    1  A    between atoms: C_2  and  C_26
REMARK    2  A    between atoms: C_12  and  N_13
REMARK    3  A    between atoms: N_13  and  S_14
REMARK    4  A    between atoms: S_14  and  C_17
REMARK    5  A    between atoms: C_29  and  C_32
REMARK                            x       y       z     vdW  Elec       q    Type
REMARK                         _______ _______ _______ _____ _____    ______ ____
ROOT
ATOM      1  O   UNL     1      -5.071   2.445  24.122  0.00  0.00    -0.270 OA
ATOM      2  C   UNL     1      -4.228   2.400  24.360  0.00  0.00    +0.249 C 
ATOM      3  N   UNL     1      -4.126   3.035  24.895  0.00  0.00    -0.276 N 
ATOM      4  C   UNL     1      -4.445   3.688  25.306  0.00  0.00    +0.096 C 
ATOM      5  C   UNL     1      -3.642   3.983  25.800  0.00  0.00    +0.043 C 
ATOM      6  C   UNL     1      -3.083   4.346  26.268  0.00  0.00    +0.011 C 
ATOM      7  C   UNL     1      -3.115   3.801  25.827  0.00  0.00    +0.058 C 
ATOM      8  C   UNL     1      -3.901   3.528  25.357  0.00  0.00    +0.099 C 
ATOM      9  C   UNL     1      -2.597   3.132  25.468  0.00  0.00    +0.041 A 
ATOM     10  C   UNL     1      -1.827   2.838  25.487  0.00  0.00    +0.014 A 
ATOM     11  C   UNL     1      -1.625   2.180  25.034  0.00  0.00    +0.024 A 
ATOM     12  C   UNL     1      -2.305   1.848  24.550  0.00  0.00    +0.147 A 
ATOM     22  C   UNL     1      -2.965   2.108  24.541  0.00  0.00    +0.277 A 
ATOM     23  O   UNL     1      -3.844   1.854  24.055  0.00  0.00    -0.266 OA
ATOM     24  N   UNL     1      -3.166   2.767  24.995  0.00  0.00    -0.298 N 
ATOM     25  C   UNL     1      -3.108   3.281  25.420  0.00  0.00    +0.110 C 
ENDROOT
BRANCH   2  26
ATOM     26  C   UNL     1      -3.389   1.968  24.293  0.00  0.00    +0.054 A 
ATOM     27  C   UNL     1      -3.018   2.018  23.558  0.00  0.00    +0.005 A 
ATOM     28  C   UNL     1      -2.283   1.660  23.443  0.00  0.00    +0.000 A 
ATOM     29  C   UNL     1      -1.921   1.252  24.061  0.00  0.00    +0.000 A 
ATOM     30  C   UNL     1      -2.293   1.202  24.796  0.00  0.00    +0.000 A 
ATOM     31  C   UNL     1      -3.028   1.560  24.912  0.00  0.00    +0.005 A 
BRANCH  29  32
ATOM     32  C   UNL     1      -1.187   0.894  23.945  0.00  0.00    +0.000 A 
ATOM     33  C   UNL     1      -0.898   0.785  23.180  0.00  0.00    +0.000 A 
ATOM     34  C   UNL     1      -0.164   0.427  23.065  0.00  0.00    +0.000 A 
ATOM     35  C   UNL     1       0.281   0.177  23.714  0.00  0.00    +0.000 A 
ATOM     36  C   UNL     1      -0.009   0.286  24.479  0.00  0.00    +0.000 A 
ATOM     37  C   UNL     1      -0.743   0.644  24.595  0.00  0.00    +0.000 A 
ENDBRANCH  29  32
ENDBRANCH   2  26
BRANCH  12  13
ATOM     13  N   UNL     1      -2.490   1.231  24.004  0.00  0.00    -0.091 NA
BRANCH  13  14
ATOM     14  S   UNL     1      -2.754   0.441  24.562  0.00  0.00    +0.099 S 
ATOM     15  O   UNL     1      -2.455   0.628  25.342  0.00  0.00    -0.148 OA
ATOM     16  O   UNL     1      -3.171  -0.015  23.869  0.00  0.00    -0.148 OA
BRANCH  14  17
ATOM     17  C   UNL     1      -3.303  -0.656  24.637  0.00  0.00    +0.156 A 
ATOM     18  C   UNL     1      -3.767  -1.197  24.221  0.00  0.00    +0.027 A 
ATOM     19  C   UNL     1      -3.901  -1.847  24.712  0.00  0.00    +0.009 A 
ATOM     20  C   UNL     1      -3.520  -1.707  25.430  0.00  0.00    +0.037 A 
ATOM     21  S   UNL     1      -3.150  -0.970  25.383  0.00  0.00    -0.066 S 
ENDBRANCH  14  17
ENDBRANCH  13  14
ENDBRANCH  12  13
TORSDOF 5
ENDMDL
MODEL 6
REMARK VINA RESULT:     -15.7      1.211      1.718
REMARK  Name = 
REMARK  5 active torsions:
REMARK  status: ('A' for Active; 'I' for Inactive)
REMARK    1  A    between atoms: C_2  and  C_26
REMARK    2  A    between atoms: C_12  and  N_13
REMARK    3  A    between atoms: N_13  and  S_14
REMARK    4  A    between atoms: S_14  and  C_17
REMARK    5  A    between atoms: C_29  and  C_32
REMARK                            x       y       z     vdW  Elec       q    Type
REMARK                         _______ _______ _______ _____ _____    ______ ____
ROOT
ATOM      1  O   UNL     1      -1.330   3.024  25.723  0.00  0.00    -0.270 OA
ATOM      2  C   UNL     1      -1.974   2.562  25.346  0.00  0.00    +0.249 C 
ATOM      3  N   UNL     1      -2.516   3.139  25.074  0.00  0.00    -0.276 N 
ATOM      4  C   UNL     1      -2.732   3.942  24.994  0.00  0.00    +0.096 C 
ATOM      5  C   UNL     1      -3.590   3.835  24.515  0.00  0.00    +0.043 C 
ATOM      6  C   UNL     1      -4.302   3.916  24.127  0.00  0.00    +0.011 C 
ATOM      7  C   UNL     1      -3.881   3.394  24.334  0.00  0.00    +0.058 C 
ATOM      8  C   UNL     1      -3.054   3.514  24.796  0.00  0.00    +0.099 C 
ATOM      9  C   UNL     1      -3.812   2.478  24.328  0.00  0.00    +0.041 A 
ATOM     10  C   UNL     1      -4.218   1.807  24.072  0.00  0.00    +0.014 A 
ATOM     11  C   UNL     1      -3.903   1.057  24.209  0.00  0.00    +0.024 A 
ATOM     12  C   UNL     1      -3.117   1.066  24.643  0.00  0.00    +0.147 A 
ATOM     22  C   UNL     1      -2.777   1.649  24.859  0.00  0.00    +0.277 A 
ATOM     23  O   UNL     1      -1.886   1.833  25.359  0.00  0.00    -0.266 OA
ATOM     24  N   UNL     1      -3.092   2.399  24.722  0.00  0.00    -0.298 N 
ATOM     25  C   UNL     1      -3.510   2.878  24.514  0.00  0.00    +0.110 C 
ENDROOT
BRANCH   2  26
ATOM     26  C   UNL     1      -2.334   1.721  25.106  0.00  0.00    +0.054 A 
ATOM     27  C   UNL     1      -2.577   1.243  25.733  0.00  0.00    +0.005 A 
ATOM     28  C   UNL     1      -2.900   0.498  25.583  0.00  0.00    +0.000 A 
ATOM     29  C   UNL     1      -2.979   0.232  24.806  0.00  0.00    +0.000 A 
ATOM     30  C   UNL     1      -2.736   0.711  24.179  0.00  0.00    +0.000 A 
ATOM     31  C   UNL     1      -2.413   1.456  24.330  0.00  0.00    +0.005 A 
BRANCH  29  32
ATOM     32  C   UNL     1      -3.301  -0.512  24.655  0.00  0.00    +0.000 A 
ATOM     33  C   UNL     1      -3.300  -1.089  25.245  0.00  0.00    +0.000 A 
ATOM     34  C   UNL     1      -3.622  -1.833  25.095  0.00  0.00    +0.000 A 
ATOM     35  C   UNL     1      -3.946  -2.001  24.354  0.00  0.00    +0.000 A 
ATOM     36  C   UNL     1      -3.947  -1.423  23.765  0.00  0.00    +0.000 A 
ATOM     37  C   UNL     1      -3.625  -0.679  23.915  0.00  0.00    +0.000 A 
ENDBRANCH  29  32
ENDBRANCH   2  26
BRANCH  12  13
ATOM     13  N   UNL     1      -2.523   0.549  24.946  0.00  0.00    -0.091 NA
BRANCH  13  14
ATOM     14  S   UNL     1      -1.867   0.418  24.199  0.00  0.00    +0.099 S 
ATOM     15  O   UNL     1      -2.318   0.595  23.493  0.00  0.00    -0.148 OA
ATOM     16  O   UNL     1      -1.159   0.180  24.750  0.00  0.00    -0.148 OA
BRANCH  14  17
ATOM     17  C   UNL     1      -0.729   0.124  23.839  0.00  0.00    +0.156 A 
ATOM     18  C   UNL     1      -0.110   0.349  23.343  0.00  0.00    +0.027 A 
ATOM     19  C   UNL     1       0.506  -0.191  23.445  0.00  0.00    +0.009 A 
ATOM     20  C   UNL     1       0.267  -0.749  24.004  0.00  0.00    +0.037 A 
ATOM     21  S   UNL     1      -0.498  -0.554  24.247  0.00  0.00    -0.066 S 
ENDBRANCH  14  17
ENDBRANCH  13  14
ENDBRANCH  12  13
TORSDOF 5
ENDMDL
MODEL 7
REMARK VINA RESULT:     -15.7      1.671      3.677
REMARK  Name = 
REMARK  5 active torsions:
REMARK  status: ('A' for Active; 'I' for Inactive)
REMARK    1  A    between atoms: C_2  and  C_26
REMARK    2  A    between atoms: C_12  and  N_13
REMARK    3  A    between atoms: N_13  and  S_14
REMARK    4  A    between atoms: S_14  and  C_17
REMARK    5  A    between atoms: C_29  and  C_32
REMARK                            x       y       z     vdW  Elec       q    Type
REMARK                         _______ _______ _______ _____ _____    ______ ____
ROOT
ATOM      1  O   UNL     1      -0.026   0.910  23.303  0.00  0.00    -0.270 OA
ATOM      2  C   UNL     1      -0.760   0.736  23.751  0.00  0.00    +0.249 C 
ATOM      3  N   UNL     1      -0.615  -0.004  24.114  0.00  0.00    -0.276 N 
ATOM      4  C   UNL     1      -0.105  -0.652  24.249  0.00  0.00    +0.096 C 
ATOM      5  C   UNL     1      -0.681  -1.196  24.839  0.00  0.00    +0.043 C 
ATOM      6  C   UNL     1      -1.025  -1.752  25.325  0.00  0.00    +0.011 C 
ATOM      7  C   UNL     1      -1.196  -1.132  25.045  0.00  0.00    +0.058 C 
ATOM      8  C   UNL     1      -0.627  -0.617  24.476  0.00  0.00    +0.099 C 
ATOM      9  C   UNL     1      -1.880  -0.520  25.013  0.00  0.00    +0.041 A 
ATOM     10  C   UNL     1      -2.643  -0.396  25.301  0.00  0.00    +0.014 A 
ATOM     11  C   UNL     1      -3.055   0.289  25.098  0.00  0.00    +0.024 A 
ATOM     12  C   UNL     1      -2.597   0.843  24.559  0.00  0.00    +0.147 A 
ATOM     22  C   UNL     1      -1.941   0.727  24.316  0.00  0.00    +0.277 A 
ATOM     23  O   UNL     1      -1.285   1.246  23.703  0.00  0.00    -0.266 OA
ATOM     24  N   UNL     1      -1.529   0.041  24.520  0.00  0.00    -0.298 N 
ATOM     25  C   UNL     1      -1.391  -0.551  24.799  0.00  0.00    +0.110 C 
ENDROOT
BRANCH   2  26
ATOM     26  C   UNL     1      -1.631   0.997  24.012  0.00  0.00    +0.054 A 
ATOM     27  C   UNL     1      -2.192   1.028  23.409  0.00  0.00    +0.005 A 
ATOM     28  C   UNL     1      -2.969   1.249  23.579  0.00  0.00    +0.000 A 
ATOM     29  C   UNL     1      -3.183   1.439  24.352  0.00  0.00    +0.000 A 
ATOM     30  C   UNL     1      -2.622   1.408  24.956  0.00  0.00    +0.000 A 
ATOM     31  C   UNL     1      -1.845   1.187  24.785  0.00  0.00    +0.005 A 
BRANCH  29  32
ATOM     32  C   UNL     1      -3.959   1.660  24.522  0.00  0.00    +0.000 A 
ATOM     33  C   UNL     1      -4.378   2.136  23.993  0.00  0.00    +0.000 A 
ATOM     34  C   UNL     1      -5.154   2.357  24.164  0.00  0.00    +0.000 A 
ATOM     35  C   UNL     1      -5.512   2.103  24.863  0.00  0.00    +0.000 A 
ATOM     36  C   UNL     1      -5.093   1.628  25.391  0.00  0.00    +0.000 A 
ATOM     37  C   UNL     1      -4.317   1.406  25.222  0.00  0.00    +0.000 A 
ENDBRANCH  29  32
ENDBRANCH   2  26
BRANCH  12  13
ATOM     13  N   UNL     1      -2.664   1.584  24.160  0.00  0.00    -0.091 NA
BRANCH  13  14
ATOM     14  S   UNL     1      -2.337   2.275  24.808  0.00  0.00    +0.099 S 
ATOM     15  O   UNL     1      -2.393   1.888  25.570  0.00  0.00    -0.148 OA
ATOM     16  O   UNL     1      -2.172   2.923  24.164  0.00  0.00    -0.148 OA
BRANCH  14  17
ATOM     17  C   UNL     1      -1.900   3.406  25.006  0.00  0.00    +0.156 A 
ATOM     18  C   UNL     1      -1.389   3.983  24.710  0.00  0.00    +0.027 A 
ATOM     19  C   UNL     1      -1.422   4.634  25.216  0.00  0.00    +0.009 A 
ATOM     20  C   UNL     1      -1.951   4.460  25.823  0.00  0.00    +0.037 A 
ATOM     21  S   UNL     1      -2.247   3.700  25.693  0.00  0.00    -0.066 S 
ENDBRANCH  14  17
ENDBRANCH  13  14
ENDBRANCH  12  13
TORSDOF 5
ENDMDL
MODEL 8
REMARK VINA RESULT:     -15.4      1.352      3.741
REMARK  Name = 
REMARK  5 active torsions:
REMARK  status: ('A' for Active; 'I' for Inactive)
REMARK    1  A    between atoms: C_2  and  C_26
REMARK    2  A    between atoms: C_12  and  N_13
REMARK    3  A    between atoms: N_13  and  S_14
REMARK    4  A    between atoms: S_14  and  C_17
REMARK    5  A    between atoms: C_29  and  C_32
REMARK                            x       y       z     vdW  Elec       q    Type
REMARK                         _______ _______ _______ _____ _____    ______ ____
ROOT
ATOM      1  O   UNL     1      -4.209  -0.369  23.100  0.00  0.00    -0.270 OA
ATOM      2  C   UNL     1      -3.603  -0.264  23.725  0.00  0.00    +0.249 C 
ATOM      3  N   UNL     1      -3.660  -0.955  24.193  0.00  0.00    -0.276 N 
ATOM      4  C   UNL     1      -4.019  -1.694  24.344  0.00  0.00    +0.096 C 
ATOM      5  C   UNL     1      -3.510  -1.965  25.147  0.00  0.00    +0.043 C 
ATOM      6  C   UNL     1      -3.188  -2.327  25.801  0.00  0.00    +0.011 C 
ATOM      7  C   UNL     1      -3.100  -1.730  25.443  0.00  0.00    +0.058 C 
ATOM      8  C   UNL     1      -3.601  -1.482  24.668  0.00  0.00    +0.099 C 
ATOM      9  C   UNL     1      -2.597  -0.961  25.436  0.00  0.00    +0.041 A 
ATOM     10  C   UNL     1      -1.992  -0.587  25.853  0.00  0.00    +0.014 A 
ATOM     11  C   UNL     1      -1.715   0.149  25.607  0.00  0.00    +0.024 A 
ATOM     12  C   UNL     1      -2.129   0.470  24.877  0.00  0.00    +0.147 A 
ATOM     22  C   UNL     1      -2.649   0.140  24.525  0.00  0.00    +0.277 A 
ATOM     23  O   UNL     1      -3.220   0.361  23.689  0.00  0.00    -0.266 OA
ATOM     24  N   UNL     1      -2.926  -0.597  24.772  0.00  0.00    -0.298 N 
ATOM     25  C   UNL     1      -2.989  -1.158  25.131  0.00  0.00    +0.110 C 
ENDROOT
BRANCH   2  26
ATOM     26  C   UNL     1      -2.921   0.266  24.111  0.00  0.00    +0.054 A 
ATOM     27  C   UNL     1      -2.244   0.370  23.652  0.00  0.00    +0.005 A 
ATOM     28  C   UNL     1      -1.617   0.823  23.939  0.00  0.00    +0.000 A 
ATOM     29  C   UNL     1      -1.667   1.171  24.685  0.00  0.00    +0.000 A 
ATOM     30  C   UNL     1      -2.345   1.067  25.144  0.00  0.00    +0.000 A 
ATOM     31  C   UNL     1      -2.972   0.614  24.857  0.00  0.00    +0.005 A 
BRANCH  29  32
ATOM     32  C   UNL     1      -1.040   1.624  24.972  0.00  0.00    +0.000 A 
ATOM     33  C   UNL     1      -0.456   1.894  24.455  0.00  0.00    +0.000 A 
ATOM     34  C   UNL     1       0.170   2.347  24.742  0.00  0.00    +0.000 A 
ATOM     35  C   UNL     1       0.214   2.530  25.546  0.00  0.00    +0.000 A 
ATOM     36  C   UNL     1      -0.370   2.259  26.062  0.00  0.00    +0.000 A 
ATOM     37  C   UNL     1      -0.997   1.806  25.776  0.00  0.00    +0.000 A 
ENDBRANCH  29  32
ENDBRANCH   2  26
BRANCH  12  13
ATOM     13  N   UNL     1      -2.134   1.135  24.357  0.00  0.00    -0.091 NA
BRANCH  13  14
ATOM     14  S   UNL     1      -2.770   1.794  24.764  0.00  0.00    +0.099 S 
ATOM     15  O   UNL     1      -2.856   1.529  25.573  0.00  0.00    -0.148 OA
ATOM     16  O   UNL     1      -2.875   2.297  23.990  0.00  0.00    -0.148 OA
BRANCH  14  17
ATOM     17  C   UNL     1      -3.473   2.794  24.632  0.00  0.00    +0.156 A 
ATOM     18  C   UNL     1      -3.710   3.374  24.095  0.00  0.00    +0.027 A 
ATOM     19  C   UNL     1      -4.234   3.880  24.484  0.00  0.00    +0.009 A 
ATOM     20  C   UNL     1      -4.320   3.613  25.259  0.00  0.00    +0.037 A 
ATOM     21  S   UNL     1      -3.849   2.941  25.350  0.00  0.00    -0.066 S 
ENDBRANCH  14  17
ENDBRANCH  13  14
ENDBRANCH  12  13
TORSDOF 5
ENDMDL
