REMARK  Name = 
REMARK  6 active torsions:
REMARK  status: ('A' for Active; 'I' for Inactive)
REMARK    1  A    between atoms: N_2  and  C_4
REMARK    2  A    between atoms: C_7  and  C_10
REMARK    3  A    between atoms: C_15  and  C_17
REMARK    4  A    between atoms: C_24  and  C_25
REMARK    5  A    between atoms: C_25  and  N_26
REMARK    6  A    between atoms: C_27  and  C_29
REMARK                            x       y       z     vdW  Elec       q    Type
REMARK                         _______ _______ _______ _____ _____    ______ ____
ROOT
ATOM     17  C   UNL     1       1.661  -1.343   0.000  0.00  0.00    +0.056 C 
ATOM     18  C   UNL     1       1.814  -2.106   0.000  0.00  0.00    +0.078 C 
ATOM     19  N   UNL     1       1.065  -1.759   0.000  0.00  0.00    -0.272 NA
ATOM     20  C   UNL     1       1.205  -0.720   0.000  0.00  0.00    +0.072 C 
ATOM     21  C   UNL     1       0.961  -0.114   0.000  0.00  0.00    +0.018 C 
ATOM     22  C   UNL     1       0.923  -1.010   0.000  0.00  0.00    +0.010 C 
ATOM     23  C   UNL     1       0.119  -1.362   0.000  0.00  0.00    +0.018 C 
ATOM     24  C   UNL     1       0.226  -2.118   0.000  0.00  0.00    +0.079 C 
ENDROOT
BRANCH  17  15
ATOM     10  C   UNL     1       2.829   0.501   0.000  0.00  0.00    +0.084 A 
ATOM     11  N   UNL     1       3.597   0.200   0.000  0.00  0.00    -0.231 NA
ATOM     12  C   UNL     1       3.720  -0.616   0.000  0.00  0.00    +0.139 A 
ATOM     13  C   UNL     1       4.488  -0.918   0.000  0.00  0.00    +0.074 C 
ATOM     14  N   UNL     1       3.075  -1.130   0.000  0.00  0.00    -0.235 NA
ATOM     15  C   UNL     1       2.307  -0.828   0.000  0.00  0.00    +0.063 A 
ATOM     16  C   UNL     1       2.184  -0.013   0.000  0.00  0.00    +0.034 A 
BRANCH  10   7
ATOM      4  C   UNL     1       2.462   2.949   0.000  0.00  0.00    +0.048 A 
ATOM      5  C   UNL     1       3.229   2.647   0.000  0.00  0.00    +0.015 A 
ATOM      6  C   UNL     1       3.352   1.831   0.000  0.00  0.00    +0.003 A 
ATOM      7  C   UNL     1       2.707   1.317   0.000  0.00  0.00    +0.018 A 
ATOM      8  C   UNL     1       1.939   1.619   0.000  0.00  0.00    +0.003 A 
ATOM      9  C   UNL     1       1.816   2.435   0.000  0.00  0.00    +0.015 A 
BRANCH   4   2
ATOM      1  C   UNL     1       1.571   4.067   0.000  0.00  0.00    +0.112 C 
ATOM      2  N   UNL     1       2.339   3.765   0.000  0.00  0.00    -0.304 N 
ATOM      3  C   UNL     1       2.984   4.279   0.000  0.00  0.00    +0.112 C 
ENDBRANCH   4   2
ENDBRANCH  10   7
ENDBRANCH  17  15
BRANCH  24  25
ATOM     25  C   UNL     1      -0.179  -2.836   0.000  0.00  0.00    +0.131 C 
BRANCH  25  26
ATOM     26  N   UNL     1      -1.004  -2.845   0.000  0.00  0.00    -0.200 NA
ATOM     27  C   UNL     1      -1.408  -3.564   0.000  0.00  0.00    +0.265 C 
ATOM     28  O   UNL     1      -0.988  -4.274   0.000  0.00  0.00    -0.268 OA
BRANCH  27  29
ATOM     29  C   UNL     1      -2.233  -3.573   0.000  0.00  0.00    +0.055 A 
ATOM     30  C   UNL     1      -2.638  -4.292   0.000  0.00  0.00    +0.005 A 
ATOM     31  C   UNL     1      -3.463  -4.301   0.000  0.00  0.00    +0.000 A 
ATOM     32  C   UNL     1      -3.883  -3.591   0.000  0.00  0.00    +0.000 A 
ATOM     33  C   UNL     1      -3.478  -2.872   0.000  0.00  0.00    +0.000 A 
ATOM     34  C   UNL     1      -2.654  -2.863   0.000  0.00  0.00    +0.005 A 
ENDBRANCH  27  29
ENDBRANCH  25  26
ENDBRANCH  24  25
TORSDOF 6
