MODEL 1
REMARK VINA RESULT:     -14.6      0.000      0.000
REMARK  Name = 
REMARK  5 active torsions:
REMARK  status: ('A' for Active; 'I' for Inactive)
REMARK    1  A    between atoms: S_2  and  C_3
REMARK    2  A    between atoms: C_6  and  C_9
REMARK    3  A    between atoms: N_15  and  S_17
REMARK    4  A    between atoms: S_17  and  C_20
REMARK    5  A    between atoms: C_23  and  N_24
REMARK                            x       y       z     vdW  Elec       q    Type
REMARK                         _______ _______ _______ _____ _____    ______ ____
ROOT
ATOM      9  C   UNL     1      -3.618   0.698  24.737  0.00  0.00    +0.012 A 
ATOM     10  C   UNL     1      -4.279   1.166  24.894  0.00  0.00    +0.041 A 
ATOM     11  C   UNL     1      -5.189   1.102  24.999  0.00  0.00    +0.056 C 
ATOM     12  C   UNL     1      -5.713   0.635  24.992  0.00  0.00    +0.011 C 
ATOM     13  C   UNL     1      -5.623   1.436  25.107  0.00  0.00    +0.041 C 
ATOM     14  C   UNL     1      -5.717   2.406  25.272  0.00  0.00    +0.098 C 
ATOM     15  N   UNL     1      -4.917   2.638  25.207  0.00  0.00    -0.155 NA
ATOM     16  C   UNL     1      -5.297   2.037  25.161  0.00  0.00    +0.102 C 
ATOM     30  C   UNL     1      -4.672   1.512  24.999  0.00  0.00    +0.110 C 
ATOM     31  N   UNL     1      -4.191   1.978  25.011  0.00  0.00    -0.299 N 
ATOM     32  C   UNL     1      -3.442   2.322  24.971  0.00  0.00    +0.261 A 
ATOM     33  O   UNL     1      -3.354   3.134  25.088  0.00  0.00    -0.267 OA
ATOM     34  C   UNL     1      -2.781   1.854  24.814  0.00  0.00    +0.061 A 
ATOM     35  C   UNL     1      -2.869   1.042  24.697  0.00  0.00    +0.006 A 
ENDROOT
BRANCH   9   6
ATOM      3  C   UNL     1      -3.882  -1.739  24.386  0.00  0.00    +0.025 A 
ATOM      4  C   UNL     1      -3.959  -1.220  23.750  0.00  0.00    +0.006 A 
ATOM      5  C   UNL     1      -3.871  -0.407  23.867  0.00  0.00    +0.001 A 
ATOM      6  C   UNL     1      -3.706  -0.115  24.620  0.00  0.00    +0.001 A 
ATOM      7  C   UNL     1      -3.629  -0.634  25.256  0.00  0.00    +0.001 A 
ATOM      8  C   UNL     1      -3.717  -1.446  25.139  0.00  0.00    +0.006 A 
BRANCH   3   2
ATOM      1  C   UNL     1      -3.417  -3.075  24.584  0.00  0.00    +0.074 C 
ATOM      2  S   UNL     1      -3.970  -2.550  24.269  0.00  0.00    -0.113 S 
ENDBRANCH   3   2
ENDBRANCH   9   6
BRANCH  15  17
ATOM     17  S   UNL     1      -4.258   3.134  25.202  0.00  0.00    +0.063 S 
ATOM     18  O   UNL     1      -4.346   3.243  24.389  0.00  0.00    -0.153 OA
ATOM     19  O   UNL     1      -4.169   3.025  26.016  0.00  0.00    -0.153 OA
BRANCH  17  20
ATOM     20  C   UNL     1      -3.598   3.630  25.197  0.00  0.00    +0.122 A 
ATOM     21  C   UNL     1      -3.174   3.760  25.893  0.00  0.00    +0.021 A 
ATOM     22  C   UNL     1      -2.515   4.256  25.888  0.00  0.00    +0.018 A 
ATOM     23  C   UNL     1      -2.280   4.622  25.187  0.00  0.00    +0.073 A 
ATOM     28  C   UNL     1      -2.704   4.493  24.492  0.00  0.00    +0.018 A 
ATOM     29  C   UNL     1      -3.364   3.996  24.497  0.00  0.00    +0.021 A 
BRANCH  23  24
ATOM     24  N   UNL     1      -1.621   5.118  25.182  0.00  0.00    -0.179 NA
ATOM     25  C   UNL     1      -0.901   4.845  24.883  0.00  0.00    +0.246 C 
ATOM     26  C   UNL     1      -0.242   5.340  24.878  0.00  0.00    +0.097 C 
ATOM     27  O   UNL     1      -0.842   4.076  24.590  0.00  0.00    -0.273 OA
ENDBRANCH  23  24
ENDBRANCH  17  20
ENDBRANCH  15  17
TORSDOF 5
ENDMDL
MODEL 2
REMARK VINA RESULT:     -13.7      1.771      4.732
REMARK  Name = 
REMARK  5 active torsions:
REMARK  status: ('A' for Active; 'I' for Inactive)
REMARK    1  A    between atoms: S_2  and  C_3
REMARK    2  A    between atoms: C_6  and  C_9
REMARK    3  A    between atoms: N_15  and  S_17
REMARK    4  A    between atoms: S_17  and  C_20
REMARK    5  A    between atoms: C_23  and  N_24
REMARK                            x       y       z     vdW  Elec       q    Type
REMARK                         _______ _______ _______ _____ _____    ______ ____
ROOT
ATOM      9  C   UNL     1      -2.854   2.288  24.942  0.00  0.00    +0.012 A 
ATOM     10  C   UNL     1      -3.669   2.168  24.991  0.00  0.00    +0.041 A 
ATOM     11  C   UNL     1      -4.455   2.634  25.088  0.00  0.00    +0.056 C 
ATOM     12  C   UNL     1      -4.702   3.287  25.162  0.00  0.00    +0.011 C 
ATOM     13  C   UNL     1      -5.002   2.531  25.118  0.00  0.00    +0.041 C 
ATOM     14  C   UNL     1      -5.548   1.708  25.087  0.00  0.00    +0.098 C 
ATOM     15  N   UNL     1      -4.941   1.141  24.994  0.00  0.00    -0.155 NA
ATOM     16  C   UNL     1      -4.996   1.848  25.059  0.00  0.00    +0.102 C 
ATOM     30  C   UNL     1      -4.186   2.035  25.017  0.00  0.00    +0.110 C 
ATOM     31  N   UNL     1      -3.976   1.403  24.947  0.00  0.00    -0.299 N 
ATOM     32  C   UNL     1      -3.469   0.759  24.855  0.00  0.00    +0.261 A 
ATOM     33  O   UNL     1      -3.776  -0.005  24.811  0.00  0.00    -0.267 OA
ATOM     34  C   UNL     1      -2.654   0.880  24.806  0.00  0.00    +0.061 A 
ATOM     35  C   UNL     1      -2.347   1.644  24.850  0.00  0.00    +0.006 A 
ENDROOT
BRANCH   9   6
ATOM      3  C   UNL     1      -1.932   4.582  25.073  0.00  0.00    +0.025 A 
ATOM      4  C   UNL     1      -1.992   4.122  25.755  0.00  0.00    +0.006 A 
ATOM      5  C   UNL     1      -2.299   3.357  25.711  0.00  0.00    +0.001 A 
ATOM      6  C   UNL     1      -2.547   3.053  24.986  0.00  0.00    +0.001 A 
ATOM      7  C   UNL     1      -2.488   3.513  24.304  0.00  0.00    +0.001 A 
ATOM      8  C   UNL     1      -2.180   4.278  24.348  0.00  0.00    +0.006 A 
BRANCH   3   2
ATOM      1  C   UNL     1      -0.831   5.482  24.941  0.00  0.00    +0.074 C 
ATOM      2  S   UNL     1      -1.625   5.346  25.117  0.00  0.00    -0.113 S 
ENDBRANCH   3   2
ENDBRANCH   9   6
BRANCH  15  17
ATOM     17  S   UNL     1      -4.586   0.401  24.905  0.00  0.00    +0.063 S 
ATOM     18  O   UNL     1      -4.608   0.490  24.084  0.00  0.00    -0.153 OA
ATOM     19  O   UNL     1      -4.565   0.312  25.725  0.00  0.00    -0.153 OA
BRANCH  17  20
ATOM     20  C   UNL     1      -4.231  -0.339  24.815  0.00  0.00    +0.122 A 
ATOM     21  C   UNL     1      -3.945  -0.741  25.475  0.00  0.00    +0.021 A 
ATOM     22  C   UNL     1      -3.590  -1.480  25.386  0.00  0.00    +0.018 A 
ATOM     23  C   UNL     1      -3.522  -1.817  24.636  0.00  0.00    +0.073 A 
ATOM     28  C   UNL     1      -3.809  -1.415  23.976  0.00  0.00    +0.018 A 
ATOM     29  C   UNL     1      -4.164  -0.675  24.065  0.00  0.00    +0.021 A 
BRANCH  23  24
ATOM     24  N   UNL     1      -3.167  -2.557  24.547  0.00  0.00    -0.179 NA
ATOM     25  C   UNL     1      -2.353  -2.611  24.420  0.00  0.00    +0.246 C 
ATOM     26  C   UNL     1      -1.998  -3.350  24.331  0.00  0.00    +0.097 C 
ATOM     27  O   UNL     1      -1.895  -1.925  24.383  0.00  0.00    -0.273 OA
ENDBRANCH  23  24
ENDBRANCH  17  20
ENDBRANCH  15  17
TORSDOF 5
ENDMDL
MODEL 3
REMARK VINA RESULT:     -12.3      1.930      2.915
REMARK  Name = 
REMARK  5 active torsions:
REMARK  status: ('A' for Active; 'I' for Inactive)
REMARK    1  A    between atoms: S_2  and  C_3
REMARK    2  A    between atoms: C_6  and  C_9
REMARK    3  A    between atoms: N_15  and  S_17
REMARK    4  A    between atoms: S_17  and  C_20
REMARK    5  A    between atoms: C_23  and  N_24
REMARK                            x       y       z     vdW  Elec       q    Type
REMARK                         _______ _______ _______ _____ _____    ______ ____
ROOT
ATOM      9  C   UNL     1      -2.630  -0.111  24.725  0.00  0.00    +0.012 A 
ATOM     10  C   UNL     1      -1.809  -0.067  24.656  0.00  0.00    +0.041 A 
ATOM     11  C   UNL     1      -1.074  -0.603  24.523  0.00  0.00    +0.056 C 
ATOM     12  C   UNL     1      -0.893  -1.274  24.423  0.00  0.00    +0.011 C 
ATOM     13  C   UNL     1      -0.521  -0.551  24.480  0.00  0.00    +0.041 C 
ATOM     14  C   UNL     1       0.102   0.214  24.519  0.00  0.00    +0.098 C 
ATOM     15  N   UNL     1      -0.444   0.833  24.645  0.00  0.00    -0.155 NA
ATOM     16  C   UNL     1      -0.459   0.127  24.559  0.00  0.00    +0.102 C 
ATOM     30  C   UNL     1      -1.282   0.016  24.619  0.00  0.00    +0.110 C 
ATOM     31  N   UNL     1      -1.429   0.663  24.713  0.00  0.00    -0.299 N 
ATOM     32  C   UNL     1      -1.869   1.349  24.838  0.00  0.00    +0.261 A 
ATOM     33  O   UNL     1      -1.489   2.079  24.895  0.00  0.00    -0.267 OA
ATOM     34  C   UNL     1      -2.690   1.305  24.907  0.00  0.00    +0.061 A 
ATOM     35  C   UNL     1      -3.070   0.575  24.850  0.00  0.00    +0.006 A 
ENDROOT
BRANCH   9   6
ATOM      3  C   UNL     1      -3.771  -2.301  24.555  0.00  0.00    +0.025 A 
ATOM      4  C   UNL     1      -3.451  -2.058  25.275  0.00  0.00    +0.006 A 
ATOM      5  C   UNL     1      -3.071  -1.328  25.332  0.00  0.00    +0.001 A 
ATOM      6  C   UNL     1      -3.010  -0.841  24.668  0.00  0.00    +0.001 A 
ATOM      7  C   UNL     1      -3.330  -1.085  23.948  0.00  0.00    +0.001 A 
ATOM      8  C   UNL     1      -3.710  -1.815  23.891  0.00  0.00    +0.006 A 
BRANCH   3   2
ATOM      1  C   UNL     1      -3.796  -3.650  24.084  0.00  0.00    +0.074 C 
ATOM      2  S   UNL     1      -4.151  -3.030  24.498  0.00  0.00    -0.113 S 
ENDBRANCH   3   2
ENDBRANCH   9   6
BRANCH  15  17
ATOM     17  S   UNL     1      -0.724   1.600  24.766  0.00  0.00    +0.063 S 
ATOM     18  O   UNL     1      -0.798   1.702  23.950  0.00  0.00    -0.153 OA
ATOM     19  O   UNL     1      -0.650   1.499  25.582  0.00  0.00    -0.153 OA
BRANCH  17  20
ATOM     20  C   UNL     1      -1.004   2.367  24.887  0.00  0.00    +0.122 A 
ATOM     21  C   UNL     1      -1.052   2.673  25.651  0.00  0.00    +0.021 A 
ATOM     22  C   UNL     1      -1.331   3.440  25.772  0.00  0.00    +0.018 A 
ATOM     23  C   UNL     1      -1.563   3.900  25.128  0.00  0.00    +0.073 A 
ATOM     28  C   UNL     1      -1.515   3.595  24.364  0.00  0.00    +0.018 A 
ATOM     29  C   UNL     1      -1.235   2.828  24.243  0.00  0.00    +0.021 A 
BRANCH  23  24
ATOM     24  N   UNL     1      -1.843   4.667  25.249  0.00  0.00    -0.179 NA
ATOM     25  C   UNL     1      -1.367   5.315  25.060  0.00  0.00    +0.246 C 
ATOM     26  C   UNL     1      -1.646   6.081  25.180  0.00  0.00    +0.097 C 
ATOM     27  O   UNL     1      -0.611   5.194  24.750  0.00  0.00    -0.273 OA
ENDBRANCH  23  24
ENDBRANCH  17  20
ENDBRANCH  15  17
TORSDOF 5
ENDMDL
MODEL 4
REMARK VINA RESULT:     -11.4      1.511      2.694
REMARK  Name = 
REMARK  5 active torsions:
REMARK  status: ('A' for Active; 'I' for Inactive)
REMARK    1  A    between atoms: S_2  and  C_3
REMARK    2  A    between atoms: C_6  and  C_9
REMARK    3  A    between atoms: N_15  and  S_17
REMARK    4  A    between atoms: S_17  and  C_20
REMARK    5  A    between atoms: C_23  and  N_24
REMARK                            x       y       z     vdW  Elec       q    Type
REMARK                         _______ _______ _______ _____ _____    ______ ____
ROOT
ATOM      9  C   UNL     1      -3.500  -0.016  24.775  0.00  0.00    +0.012 A 
ATOM     10  C   UNL     1      -2.791   0.382  24.641  0.00  0.00    +0.041 A 
ATOM     11  C   UNL     1      -1.905   0.220  24.455  0.00  0.00    +0.056 C 
ATOM     12  C   UNL     1      -1.453  -0.306  24.348  0.00  0.00    +0.011 C 
ATOM     13  C   UNL     1      -1.436   0.508  24.368  0.00  0.00    +0.041 C 
ATOM     14  C   UNL     1      -1.216   1.471  24.350  0.00  0.00    +0.098 C 
ATOM     15  N   UNL     1      -1.970   1.791  24.513  0.00  0.00    -0.155 NA
ATOM     16  C   UNL     1      -1.676   1.146  24.435  0.00  0.00    +0.102 C 
ATOM     30  C   UNL     1      -2.359   0.688  24.561  0.00  0.00    +0.110 C 
ATOM     31  N   UNL     1      -2.770   1.207  24.660  0.00  0.00    -0.299 N 
ATOM     32  C   UNL     1      -3.459   1.633  24.813  0.00  0.00    +0.261 A 
ATOM     33  O   UNL     1      -3.439   2.458  24.832  0.00  0.00    -0.267 OA
ATOM     34  C   UNL     1      -4.169   1.235  24.947  0.00  0.00    +0.061 A 
ATOM     35  C   UNL     1      -4.190   0.410  24.928  0.00  0.00    +0.006 A 
ENDROOT
BRANCH   9   6
ATOM      3  C   UNL     1      -3.562  -2.490  24.718  0.00  0.00    +0.025 A 
ATOM      4  C   UNL     1      -3.358  -2.099  25.415  0.00  0.00    +0.006 A 
ATOM      5  C   UNL     1      -3.338  -1.274  25.434  0.00  0.00    +0.001 A 
ATOM      6  C   UNL     1      -3.521  -0.841  24.756  0.00  0.00    +0.001 A 
ATOM      7  C   UNL     1      -3.724  -1.232  24.059  0.00  0.00    +0.001 A 
ATOM      8  C   UNL     1      -3.745  -2.057  24.040  0.00  0.00    +0.006 A 
BRANCH   3   2
ATOM      1  C   UNL     1      -3.184  -3.724  24.103  0.00  0.00    +0.074 C 
ATOM      2  S   UNL     1      -3.582  -3.314  24.699  0.00  0.00    -0.113 S 
ENDBRANCH   3   2
ENDBRANCH   9   6
BRANCH  15  17
ATOM     17  S   UNL     1      -2.552   2.360  24.648  0.00  0.00    +0.063 S 
ATOM     18  O   UNL     1      -2.722   2.378  23.841  0.00  0.00    -0.153 OA
ATOM     19  O   UNL     1      -2.382   2.343  25.456  0.00  0.00    -0.153 OA
BRANCH  17  20
ATOM     20  C   UNL     1      -3.134   2.930  24.783  0.00  0.00    +0.122 A 
ATOM     21  C   UNL     1      -3.602   3.197  24.159  0.00  0.00    +0.021 A 
ATOM     22  C   UNL     1      -4.184   3.766  24.294  0.00  0.00    +0.018 A 
ATOM     23  C   UNL     1      -4.297   4.068  25.053  0.00  0.00    +0.073 A 
ATOM     28  C   UNL     1      -3.829   3.801  25.677  0.00  0.00    +0.018 A 
ATOM     29  C   UNL     1      -3.247   3.231  25.542  0.00  0.00    +0.021 A 
BRANCH  23  24
ATOM     24  N   UNL     1      -4.879   4.638  25.188  0.00  0.00    -0.179 NA
ATOM     25  C   UNL     1      -5.605   4.417  25.512  0.00  0.00    +0.246 C 
ATOM     26  C   UNL     1      -6.186   4.985  25.647  0.00  0.00    +0.097 C 
ATOM     27  O   UNL     1      -5.749   3.626  25.701  0.00  0.00    -0.273 OA
ENDBRANCH  23  24
ENDBRANCH  17  20
ENDBRANCH  15  17
TORSDOF 5
ENDMDL
MODEL 5
REMARK VINA RESULT:     -11.3      3.141      4.423
REMARK  Name = 
REMARK  5 active torsions:
REMARK  status: ('A' for Active; 'I' for Inactive)
REMARK    1  A    between atoms: S_2  and  C_3
REMARK    2  A    between atoms: C_6  and  C_9
REMARK    3  A    between atoms: N_15  and  S_17
REMARK    4  A    between atoms: S_17  and  C_20
REMARK    5  A    between atoms: C_23  and  N_24
REMARK                            x       y       z     vdW  Elec       q    Type
REMARK                         _______ _______ _______ _____ _____    ______ ____
ROOT
ATOM      9  C   UNL     1      -2.928   0.892  24.511  0.00  0.00    +0.012 A 
ATOM     10  C   UNL     1      -2.663   0.202  24.878  0.00  0.00    +0.041 A 
ATOM     11  C   UNL     1      -2.942  -0.443  25.470  0.00  0.00    +0.056 C 
ATOM     12  C   UNL     1      -3.493  -0.629  25.863  0.00  0.00    +0.011 C 
ATOM     13  C   UNL     1      -2.743  -0.907  25.707  0.00  0.00    +0.041 C 
ATOM     14  C   UNL     1      -1.886  -1.395  25.650  0.00  0.00    +0.098 C 
ATOM     15  N   UNL     1      -1.481  -0.904  25.108  0.00  0.00    -0.155 NA
ATOM     16  C   UNL     1      -2.119  -0.926  25.425  0.00  0.00    +0.102 C 
ATOM     30  C   UNL     1      -2.443  -0.238  25.088  0.00  0.00    +0.110 C 
ATOM     31  N   UNL     1      -1.904  -0.083  24.722  0.00  0.00    -0.299 N 
ATOM     32  C   UNL     1      -1.410   0.322  24.200  0.00  0.00    +0.261 A 
ATOM     33  O   UNL     1      -0.652   0.037  24.045  0.00  0.00    -0.267 OA
ATOM     34  C   UNL     1      -1.675   1.011  23.833  0.00  0.00    +0.061 A 
ATOM     35  C   UNL     1      -2.434   1.296  23.988  0.00  0.00    +0.006 A 
ENDROOT
BRANCH   9   6
ATOM      3  C   UNL     1      -5.204   1.747  24.976  0.00  0.00    +0.025 A 
ATOM      4  C   UNL     1      -5.096   1.134  24.435  0.00  0.00    +0.006 A 
ATOM      5  C   UNL     1      -4.337   0.849  24.280  0.00  0.00    +0.001 A 
ATOM      6  C   UNL     1      -3.686   1.177  24.666  0.00  0.00    +0.001 A 
ATOM      7  C   UNL     1      -3.794   1.789  25.207  0.00  0.00    +0.001 A 
ATOM      8  C   UNL     1      -4.553   2.074  25.363  0.00  0.00    +0.006 A 
BRANCH   3   2
ATOM      1  C   UNL     1      -6.154   2.303  25.886  0.00  0.00    +0.074 C 
ATOM      2  S   UNL     1      -5.961   2.031  25.131  0.00  0.00    -0.113 S 
ENDBRANCH   3   2
ENDBRANCH   9   6
BRANCH  15  17
ATOM     17  S   UNL     1      -0.871  -0.631  24.625  0.00  0.00    +0.063 S 
ATOM     18  O   UNL     1      -0.584  -0.170  25.247  0.00  0.00    -0.153 OA
ATOM     19  O   UNL     1      -1.157  -1.092  24.003  0.00  0.00    -0.153 OA
BRANCH  17  20
ATOM     20  C   UNL     1      -0.260  -0.358  24.141  0.00  0.00    +0.122 A 
ATOM     21  C   UNL     1       0.226   0.256  24.399  0.00  0.00    +0.021 A 
ATOM     22  C   UNL     1       0.837   0.530  23.915  0.00  0.00    +0.018 A 
ATOM     23  C   UNL     1       0.960   0.188  23.175  0.00  0.00    +0.073 A 
ATOM     28  C   UNL     1       0.473  -0.426  22.917  0.00  0.00    +0.018 A 
ATOM     29  C   UNL     1      -0.137  -0.699  23.401  0.00  0.00    +0.021 A 
BRANCH  23  24
ATOM     24  N   UNL     1       1.570   0.461  22.691  0.00  0.00    -0.179 NA
ATOM     25  C   UNL     1       2.298   0.071  22.684  0.00  0.00    +0.246 C 
ATOM     26  C   UNL     1       2.907   0.343  22.201  0.00  0.00    +0.097 C 
ATOM     27  O   UNL     1       2.413  -0.593  23.161  0.00  0.00    -0.273 OA
ENDBRANCH  23  24
ENDBRANCH  17  20
ENDBRANCH  15  17
TORSDOF 5
ENDMDL
MODEL 6
REMARK VINA RESULT:     -11.1      2.337      5.479
REMARK  Name = 
REMARK  5 active torsions:
REMARK  status: ('A' for Active; 'I' for Inactive)
REMARK    1  A    between atoms: S_2  and  C_3
REMARK    2  A    between atoms: C_6  and  C_9
REMARK    3  A    between atoms: N_15  and  S_17
REMARK    4  A    between atoms: S_17  and  C_20
REMARK    5  A    between atoms: C_23  and  N_24
REMARK                            x       y       z     vdW  Elec       q    Type
REMARK                         _______ _______ _______ _____ _____    ______ ____
ROOT
ATOM      9  C   UNL     1      -2.223   2.295  24.935  0.00  0.00    +0.012 A 
ATOM     10  C   UNL     1      -1.679   1.752  25.236  0.00  0.00    +0.041 A 
ATOM     11  C   UNL     1      -0.866   1.719  25.663  0.00  0.00    +0.056 C 
ATOM     12  C   UNL     1      -0.360   2.134  25.916  0.00  0.00    +0.011 C 
ATOM     13  C   UNL     1      -0.512   1.336  25.860  0.00  0.00    +0.041 C 
ATOM     14  C   UNL     1      -0.514   0.348  25.888  0.00  0.00    +0.098 C 
ATOM     15  N   UNL     1      -1.244   0.200  25.509  0.00  0.00    -0.155 NA
ATOM     16  C   UNL     1      -0.854   0.765  25.697  0.00  0.00    +0.102 C 
ATOM     30  C   UNL     1      -1.361   1.361  25.414  0.00  0.00    +0.110 C 
ATOM     31  N   UNL     1      -1.830   0.943  25.181  0.00  0.00    -0.299 N 
ATOM     32  C   UNL     1      -2.524   0.676  24.825  0.00  0.00    +0.261 A 
ATOM     33  O   UNL     1      -2.675  -0.134  24.769  0.00  0.00    -0.267 OA
ATOM     34  C   UNL     1      -3.068   1.218  24.524  0.00  0.00    +0.061 A 
ATOM     35  C   UNL     1      -2.917   2.027  24.579  0.00  0.00    +0.006 A 
ENDROOT
BRANCH   9   6
ATOM      3  C   UNL     1      -1.770   4.723  25.101  0.00  0.00    +0.025 A 
ATOM      4  C   UNL     1      -2.230   4.349  25.674  0.00  0.00    +0.006 A 
ATOM      5  C   UNL     1      -2.381   3.539  25.619  0.00  0.00    +0.001 A 
ATOM      6  C   UNL     1      -2.072   3.104  24.990  0.00  0.00    +0.001 A 
ATOM      7  C   UNL     1      -1.612   3.478  24.417  0.00  0.00    +0.001 A 
ATOM      8  C   UNL     1      -1.461   4.287  24.472  0.00  0.00    +0.006 A 
BRANCH   3   2
ATOM      1  C   UNL     1      -0.936   5.848  24.819  0.00  0.00    +0.074 C 
ATOM      2  S   UNL     1      -1.620   5.531  25.156  0.00  0.00    -0.113 S 
ENDBRANCH   3   2
ENDBRANCH   9   6
BRANCH  15  17
ATOM     17  S   UNL     1      -1.873  -0.230  25.192  0.00  0.00    +0.063 S 
ATOM     18  O   UNL     1      -2.253  -0.216  25.925  0.00  0.00    -0.153 OA
ATOM     19  O   UNL     1      -1.494  -0.245  24.459  0.00  0.00    -0.153 OA
BRANCH  17  20
ATOM     20  C   UNL     1      -2.502  -0.660  24.875  0.00  0.00    +0.122 A 
ATOM     21  C   UNL     1      -3.121  -0.906  25.362  0.00  0.00    +0.021 A 
ATOM     22  C   UNL     1      -3.750  -1.336  25.045  0.00  0.00    +0.018 A 
ATOM     23  C   UNL     1      -3.760  -1.520  24.241  0.00  0.00    +0.073 A 
ATOM     28  C   UNL     1      -3.141  -1.274  23.754  0.00  0.00    +0.018 A 
ATOM     29  C   UNL     1      -2.512  -0.844  24.071  0.00  0.00    +0.021 A 
BRANCH  23  24
ATOM     24  N   UNL     1      -4.389  -1.950  23.924  0.00  0.00    -0.179 NA
ATOM     25  C   UNL     1      -4.337  -2.771  23.862  0.00  0.00    +0.246 C 
ATOM     26  C   UNL     1      -4.965  -3.201  23.545  0.00  0.00    +0.097 C 
ATOM     27  O   UNL     1      -3.656  -3.162  24.117  0.00  0.00    -0.273 OA
ENDBRANCH  23  24
ENDBRANCH  17  20
ENDBRANCH  15  17
TORSDOF 5
ENDMDL
MODEL 7
REMARK VINA RESULT:     -10.8      3.237      4.799
REMARK  Name = 
REMARK  5 active torsions:
REMARK  status: ('A' for Active; 'I' for Inactive)
REMARK    1  A    between atoms: S_2  and  C_3
REMARK    2  A    between atoms: C_6  and  C_9
REMARK    3  A    between atoms: N_15  and  S_17
REMARK    4  A    between atoms: S_17  and  C_20
REMARK    5  A    between atoms: C_23  and  N_24
REMARK                            x       y       z     vdW  Elec       q    Type
REMARK                         _______ _______ _______ _____ _____    ______ ____
ROOT
ATOM      9  C   UNL     1      -0.376   0.358  23.696  0.00  0.00    +0.012 A 
ATOM     10  C   UNL     1      -0.652  -0.222  24.212  0.00  0.00    +0.041 A 
ATOM     11  C   UNL     1      -0.382  -0.997  24.626  0.00  0.00    +0.056 C 
ATOM     12  C   UNL     1       0.170  -1.427  24.683  0.00  0.00    +0.011 C 
ATOM     13  C   UNL     1      -0.588  -1.379  24.976  0.00  0.00    +0.041 C 
ATOM     14  C   UNL     1      -1.458  -1.495  25.430  0.00  0.00    +0.098 C 
ATOM     15  N   UNL     1      -1.858  -0.821  25.141  0.00  0.00    -0.155 NA
ATOM     16  C   UNL     1      -1.217  -1.123  25.072  0.00  0.00    +0.102 C 
ATOM     30  C   UNL     1      -0.880  -0.570  24.548  0.00  0.00    +0.110 C 
ATOM     31  N   UNL     1      -1.420  -0.177  24.511  0.00  0.00    -0.299 N 
ATOM     32  C   UNL     1      -1.911   0.450  24.294  0.00  0.00    +0.261 A 
ATOM     33  O   UNL     1      -2.679   0.495  24.593  0.00  0.00    -0.267 OA
ATOM     34  C   UNL     1      -1.635   1.030  23.778  0.00  0.00    +0.061 A 
ATOM     35  C   UNL     1      -0.867   0.985  23.479  0.00  0.00    +0.006 A 
ENDROOT
BRANCH   9   6
ATOM      3  C   UNL     1       1.927   0.222  22.799  0.00  0.00    +0.025 A 
ATOM      4  C   UNL     1       1.766   0.701  23.450  0.00  0.00    +0.006 A 
ATOM      5  C   UNL     1       0.999   0.747  23.749  0.00  0.00    +0.001 A 
ATOM      6  C   UNL     1       0.392   0.313  23.397  0.00  0.00    +0.001 A 
ATOM      7  C   UNL     1       0.553  -0.167  22.745  0.00  0.00    +0.001 A 
ATOM      8  C   UNL     1       1.321  -0.212  22.446  0.00  0.00    +0.006 A 
BRANCH   3   2
ATOM      1  C   UNL     1       3.276   0.693  22.774  0.00  0.00    +0.074 C 
ATOM      2  S   UNL     1       2.694   0.176  22.500  0.00  0.00    -0.113 S 
ENDBRANCH   3   2
ENDBRANCH   9   6
BRANCH  15  17
ATOM     17  S   UNL     1      -2.468  -0.276  25.030  0.00  0.00    +0.063 S 
ATOM     18  O   UNL     1      -2.752  -0.722  24.397  0.00  0.00    -0.153 OA
ATOM     19  O   UNL     1      -2.185   0.170  25.664  0.00  0.00    -0.153 OA
BRANCH  17  20
ATOM     20  C   UNL     1      -3.079   0.269  24.920  0.00  0.00    +0.122 A 
ATOM     21  C   UNL     1      -3.092   0.967  25.358  0.00  0.00    +0.021 A 
ATOM     22  C   UNL     1      -3.702   1.512  25.248  0.00  0.00    +0.018 A 
ATOM     23  C   UNL     1      -4.298   1.357  24.700  0.00  0.00    +0.073 A 
ATOM     28  C   UNL     1      -4.285   0.659  24.262  0.00  0.00    +0.018 A 
ATOM     29  C   UNL     1      -3.675   0.114  24.372  0.00  0.00    +0.021 A 
BRANCH  23  24
ATOM     24  N   UNL     1      -4.909   1.902  24.590  0.00  0.00    -0.179 NA
ATOM     25  C   UNL     1      -5.551   1.913  25.108  0.00  0.00    +0.246 C 
ATOM     26  C   UNL     1      -6.160   2.456  24.999  0.00  0.00    +0.097 C 
ATOM     27  O   UNL     1      -5.582   1.378  25.737  0.00  0.00    -0.273 OA
ENDBRANCH  23  24
ENDBRANCH  17  20
ENDBRANCH  15  17
TORSDOF 5
ENDMDL
MODEL 8
REMARK VINA RESULT:     -10.8      2.365      4.950
REMARK  Name = 
REMARK  5 active torsions:
REMARK  status: ('A' for Active; 'I' for Inactive)
REMARK    1  A    between atoms: S_2  and  C_3
REMARK    2  A    between atoms: C_6  and  C_9
REMARK    3  A    between atoms: N_15  and  S_17
REMARK    4  A    between atoms: S_17  and  C_20
REMARK    5  A    between atoms: C_23  and  N_24
REMARK                            x       y       z     vdW  Elec       q    Type
REMARK                         _______ _______ _______ _____ _____    ______ ____
ROOT
ATOM      9  C   UNL     1      -3.058   2.336  25.085  0.00  0.00    +0.012 A 
ATOM     10  C   UNL     1      -2.268   2.526  25.224  0.00  0.00    +0.041 A 
ATOM     11  C   UNL     1      -1.732   3.244  25.428  0.00  0.00    +0.056 C 
ATOM     12  C   UNL     1      -1.760   3.935  25.553  0.00  0.00    +0.011 C 
ATOM     13  C   UNL     1      -1.192   3.351  25.518  0.00  0.00    +0.041 C 
ATOM     14  C   UNL     1      -0.373   2.798  25.523  0.00  0.00    +0.098 C 
ATOM     15  N   UNL     1      -0.707   2.054  25.340  0.00  0.00    -0.155 NA
ATOM     16  C   UNL     1      -0.932   2.723  25.435  0.00  0.00    +0.102 C 
ATOM     30  C   UNL     1      -1.744   2.595  25.305  0.00  0.00    +0.110 C 
ATOM     31  N   UNL     1      -1.690   1.938  25.190  0.00  0.00    -0.299 N 
ATOM     32  C   UNL     1      -1.902   1.160  25.017  0.00  0.00    +0.261 A 
ATOM     33  O   UNL     1      -1.325   0.572  24.983  0.00  0.00    -0.267 OA
ATOM     34  C   UNL     1      -2.693   0.970  24.878  0.00  0.00    +0.061 A 
ATOM     35  C   UNL     1      -3.271   1.558  24.912  0.00  0.00    +0.006 A 
ENDROOT
BRANCH   9   6
ATOM      3  C   UNL     1      -4.792   4.101  25.186  0.00  0.00    +0.025 A 
ATOM      4  C   UNL     1      -4.588   3.683  25.867  0.00  0.00    +0.006 A 
ATOM      5  C   UNL     1      -4.010   3.095  25.834  0.00  0.00    +0.001 A 
ATOM      6  C   UNL     1      -3.636   2.924  25.118  0.00  0.00    +0.001 A 
ATOM      7  C   UNL     1      -3.840   3.342  24.437  0.00  0.00    +0.001 A 
ATOM      8  C   UNL     1      -4.418   3.930  24.471  0.00  0.00    +0.006 A 
BRANCH   3   2
ATOM      1  C   UNL     1      -6.109   4.522  25.545  0.00  0.00    +0.074 C 
ATOM      2  S   UNL     1      -5.369   4.688  25.220  0.00  0.00    -0.113 S 
ENDBRANCH   3   2
ENDBRANCH   9   6
BRANCH  15  17
ATOM     17  S   UNL     1      -0.743   1.244  25.185  0.00  0.00    +0.063 S 
ATOM     18  O   UNL     1      -0.848   1.094  25.990  0.00  0.00    -0.153 OA
ATOM     19  O   UNL     1      -0.638   1.394  24.380  0.00  0.00    -0.153 OA
BRANCH  17  20
ATOM     20  C   UNL     1      -0.780   0.434  25.029  0.00  0.00    +0.122 A 
ATOM     21  C   UNL     1      -0.928  -0.097  25.642  0.00  0.00    +0.021 A 
ATOM     22  C   UNL     1      -0.964  -0.907  25.486  0.00  0.00    +0.018 A 
ATOM     23  C   UNL     1      -0.852  -1.184  24.718  0.00  0.00    +0.073 A 
ATOM     28  C   UNL     1      -0.704  -0.652  24.105  0.00  0.00    +0.018 A 
ATOM     29  C   UNL     1      -0.668   0.157  24.260  0.00  0.00    +0.021 A 
BRANCH  23  24
ATOM     24  N   UNL     1      -0.889  -1.994  24.562  0.00  0.00    -0.179 NA
ATOM     25  C   UNL     1      -1.616  -2.351  24.406  0.00  0.00    +0.246 C 
ATOM     26  C   UNL     1      -1.653  -3.160  24.251  0.00  0.00    +0.097 C 
ATOM     27  O   UNL     1      -2.307  -1.899  24.406  0.00  0.00    -0.273 OA
ENDBRANCH  23  24
ENDBRANCH  17  20
ENDBRANCH  15  17
TORSDOF 5
ENDMDL
