MODEL 1
REMARK VINA RESULT:     -12.4      0.000      0.000
REMARK  Name = 
REMARK  5 active torsions:
REMARK  status: ('A' for Active; 'I' for Inactive)
REMARK    1  A    between atoms: C_5  and  N_8
REMARK    2  A    between atoms: C_13  and  C_14
REMARK    3  A    between atoms: C_16  and  C_19
REMARK    4  A    between atoms: C_22  and  O_23
REMARK    5  A    between atoms: O_23  and  C_24
REMARK                            x       y       z     vdW  Elec       q    Type
REMARK                         _______ _______ _______ _____ _____    ______ ____
ROOT
ATOM     14  C   UNL     1      -4.221   2.021  24.719  0.00  0.00    +0.251 A 
ATOM     15  N   UNL     1      -4.224   1.286  25.094  0.00  0.00    -0.190 NA
ATOM     16  C   UNL     1      -3.929   0.728  24.563  0.00  0.00    +0.203 A 
ATOM     17  N   UNL     1      -3.743   1.118  23.861  0.00  0.00    -0.056 NA
ATOM     18  O   UNL     1      -3.923   1.916  23.957  0.00  0.00    -0.336 OA
ENDROOT
BRANCH  14  13
ATOM      8  N   UNL     1      -3.983   3.350  25.299  0.00  0.00    -0.265 NA
ATOM      9  C   UNL     1      -4.463   3.954  25.591  0.00  0.00    +0.106 C 
ATOM     10  C   UNL     1      -5.249   3.711  25.522  0.00  0.00    +0.170 C 
ATOM     11  O   UNL     1      -5.912   4.146  25.748  0.00  0.00    -0.222 OA
ATOM     12  C   UNL     1      -5.253   2.957  25.187  0.00  0.00    +0.060 C 
ATOM     13  C   UNL     1      -4.471   2.735  25.049  0.00  0.00    +0.140 C 
BRANCH   8   5
ATOM      1  C   UNL     1      -0.686   3.394  25.153  0.00  0.00    +0.090 C 
ATOM      2  N   UNL     1      -1.511   3.383  25.190  0.00  0.00    -0.271 NA
ATOM      3  C   UNL     1      -1.955   3.613  24.534  0.00  0.00    +0.074 C 
ATOM      4  C   UNL     1      -2.779   3.603  24.570  0.00  0.00    +0.033 C 
ATOM      5  C   UNL     1      -3.159   3.361  25.262  0.00  0.00    +0.061 C 
ATOM      6  C   UNL     1      -2.714   3.131  25.917  0.00  0.00    +0.033 C 
ATOM      7  C   UNL     1      -1.890   3.142  25.881  0.00  0.00    +0.074 C 
ENDBRANCH   8   5
ENDBRANCH  14  13
BRANCH  16  19
ATOM     19  C   UNL     1      -3.835  -0.079  24.710  0.00  0.00    +0.039 A 
ATOM     20  C   UNL     1      -4.192  -0.632  24.212  0.00  0.00    +0.006 A 
ATOM     21  C   UNL     1      -4.099  -1.439  24.358  0.00  0.00    +0.037 A 
ATOM     22  C   UNL     1      -3.649  -1.692  25.002  0.00  0.00    +0.147 A 
ATOM     28  C   UNL     1      -3.293  -1.139  25.500  0.00  0.00    +0.037 A 
ATOM     29  C   UNL     1      -3.386  -0.332  25.354  0.00  0.00    +0.006 A 
BRANCH  22  23
ATOM     23  O   UNL     1      -3.556  -2.499  25.149  0.00  0.00    -0.404 OA
BRANCH  23  24
ATOM     24  C   UNL     1      -3.195  -2.981  24.585  0.00  0.00    +0.575 C 
ATOM     25  F   UNL     1      -2.835  -3.463  24.021  0.00  0.00    -0.133 F 
ATOM     26  F   UNL     1      -3.937  -3.207  24.304  0.00  0.00    -0.133 F 
ATOM     27  F   UNL     1      -2.453  -2.755  24.866  0.00  0.00    -0.133 F 
ENDBRANCH  23  24
ENDBRANCH  22  23
ENDBRANCH  16  19
TORSDOF 5
ENDMDL
MODEL 2
REMARK VINA RESULT:     -12.1      1.202      2.367
REMARK  Name = 
REMARK  5 active torsions:
REMARK  status: ('A' for Active; 'I' for Inactive)
REMARK    1  A    between atoms: C_5  and  N_8
REMARK    2  A    between atoms: C_13  and  C_14
REMARK    3  A    between atoms: C_16  and  C_19
REMARK    4  A    between atoms: C_22  and  O_23
REMARK    5  A    between atoms: O_23  and  C_24
REMARK                            x       y       z     vdW  Elec       q    Type
REMARK                         _______ _______ _______ _____ _____    ______ ____
ROOT
ATOM     14  C   UNL     1      -2.365   2.221  24.295  0.00  0.00    +0.251 A 
ATOM     15  N   UNL     1      -2.511   1.533  24.726  0.00  0.00    -0.190 NA
ATOM     16  C   UNL     1      -2.861   0.984  24.219  0.00  0.00    +0.203 A 
ATOM     17  N   UNL     1      -2.931   1.333  23.475  0.00  0.00    -0.056 NA
ATOM     18  O   UNL     1      -2.624   2.096  23.522  0.00  0.00    -0.336 OA
ENDROOT
BRANCH  14  13
ATOM      8  N   UNL     1      -2.416   3.535  24.949  0.00  0.00    -0.265 NA
ATOM      9  C   UNL     1      -1.860   4.109  25.153  0.00  0.00    +0.106 C 
ATOM     10  C   UNL     1      -1.117   3.838  24.914  0.00  0.00    +0.170 C 
ATOM     11  O   UNL     1      -0.402   4.238  25.010  0.00  0.00    -0.222 OA
ATOM     12  C   UNL     1      -1.216   3.098  24.564  0.00  0.00    +0.060 C 
ATOM     13  C   UNL     1      -2.020   2.911  24.586  0.00  0.00    +0.140 C 
BRANCH   8   5
ATOM      1  C   UNL     1      -5.667   3.709  25.497  0.00  0.00    +0.090 C 
ATOM      2  N   UNL     1      -4.854   3.666  25.360  0.00  0.00    -0.271 NA
ATOM      3  C   UNL     1      -4.349   3.400  25.956  0.00  0.00    +0.074 C 
ATOM      4  C   UNL     1      -3.537   3.356  25.819  0.00  0.00    +0.033 C 
ATOM      5  C   UNL     1      -3.229   3.579  25.086  0.00  0.00    +0.061 C 
ATOM      6  C   UNL     1      -3.734   3.844  24.491  0.00  0.00    +0.033 C 
ATOM      7  C   UNL     1      -4.547   3.888  24.628  0.00  0.00    +0.074 C 
ENDBRANCH   8   5
ENDBRANCH  14  13
BRANCH  16  19
ATOM     19  C   UNL     1      -3.099   0.220  24.422  0.00  0.00    +0.039 A 
ATOM     20  C   UNL     1      -2.566  -0.296  24.782  0.00  0.00    +0.006 A 
ATOM     21  C   UNL     1      -2.805  -1.060  24.984  0.00  0.00    +0.037 A 
ATOM     22  C   UNL     1      -3.576  -1.307  24.826  0.00  0.00    +0.147 A 
ATOM     28  C   UNL     1      -4.109  -0.791  24.466  0.00  0.00    +0.037 A 
ATOM     29  C   UNL     1      -3.870  -0.027  24.263  0.00  0.00    +0.006 A 
BRANCH  22  23
ATOM     23  O   UNL     1      -3.814  -2.071  25.028  0.00  0.00    -0.404 OA
BRANCH  23  24
ATOM     24  C   UNL     1      -3.641  -2.702  24.527  0.00  0.00    +0.575 C 
ATOM     25  F   UNL     1      -3.469  -3.334  24.025  0.00  0.00    -0.133 F 
ATOM     26  F   UNL     1      -4.314  -2.532  24.081  0.00  0.00    -0.133 F 
ATOM     27  F   UNL     1      -2.969  -2.874  24.973  0.00  0.00    -0.133 F 
ENDBRANCH  23  24
ENDBRANCH  22  23
ENDBRANCH  16  19
TORSDOF 5
ENDMDL
MODEL 3
REMARK VINA RESULT:     -10.9      2.934      4.664
REMARK  Name = 
REMARK  5 active torsions:
REMARK  status: ('A' for Active; 'I' for Inactive)
REMARK    1  A    between atoms: C_5  and  N_8
REMARK    2  A    between atoms: C_13  and  C_14
REMARK    3  A    between atoms: C_16  and  C_19
REMARK    4  A    between atoms: C_22  and  O_23
REMARK    5  A    between atoms: O_23  and  C_24
REMARK                            x       y       z     vdW  Elec       q    Type
REMARK                         _______ _______ _______ _____ _____    ______ ____
ROOT
ATOM     14  C   UNL     1      -2.561  -0.282  24.320  0.00  0.00    +0.251 A 
ATOM     15  N   UNL     1      -3.064   0.173  24.790  0.00  0.00    -0.190 NA
ATOM     16  C   UNL     1      -3.523   0.642  24.291  0.00  0.00    +0.203 A 
ATOM     17  N   UNL     1      -3.304   0.478  23.513  0.00  0.00    -0.056 NA
ATOM     18  O   UNL     1      -2.710  -0.093  23.531  0.00  0.00    -0.336 OA
ENDROOT
BRANCH  14  13
ATOM      8  N   UNL     1      -1.220  -0.670  24.780  0.00  0.00    -0.265 NA
ATOM      9  C   UNL     1      -0.868  -1.374  25.027  0.00  0.00    +0.106 C 
ATOM     10  C   UNL     1      -1.439  -1.969  24.992  0.00  0.00    +0.170 C 
ATOM     11  O   UNL     1      -1.325  -2.761  25.191  0.00  0.00    -0.222 OA
ATOM     12  C   UNL     1      -2.142  -1.633  24.722  0.00  0.00    +0.060 C 
ATOM     13  C   UNL     1      -2.007  -0.829  24.591  0.00  0.00    +0.140 C 
BRANCH   8   5
ATOM      1  C   UNL     1       0.263   2.272  24.579  0.00  0.00    +0.090 C 
ATOM      2  N   UNL     1      -0.108   1.536  24.630  0.00  0.00    -0.271 NA
ATOM      3  C   UNL     1      -0.474   1.306  25.333  0.00  0.00    +0.074 C 
ATOM      4  C   UNL     1      -0.845   0.571  25.383  0.00  0.00    +0.033 C 
ATOM      5  C   UNL     1      -0.850   0.065  24.730  0.00  0.00    +0.061 C 
ATOM      6  C   UNL     1      -0.483   0.296  24.028  0.00  0.00    +0.033 C 
ATOM      7  C   UNL     1      -0.112   1.032  23.978  0.00  0.00    +0.074 C 
ENDBRANCH   8   5
ENDBRANCH  14  13
BRANCH  16  19
ATOM     19  C   UNL     1      -4.101   1.182  24.529  0.00  0.00    +0.039 A 
ATOM     20  C   UNL     1      -4.058   1.967  24.280  0.00  0.00    +0.006 A 
ATOM     21  C   UNL     1      -4.635   2.507  24.518  0.00  0.00    +0.037 A 
ATOM     22  C   UNL     1      -5.255   2.261  25.004  0.00  0.00    +0.147 A 
ATOM     28  C   UNL     1      -5.297   1.476  25.252  0.00  0.00    +0.037 A 
ATOM     29  C   UNL     1      -4.720   0.936  25.015  0.00  0.00    +0.006 A 
BRANCH  22  23
ATOM     23  O   UNL     1      -5.832   2.801  25.242  0.00  0.00    -0.404 OA
BRANCH  23  24
ATOM     24  C   UNL     1      -5.619   3.462  25.686  0.00  0.00    +0.575 C 
ATOM     25  F   UNL     1      -5.407   4.124  26.130  0.00  0.00    -0.133 F 
ATOM     26  F   UNL     1      -5.578   3.913  24.996  0.00  0.00    -0.133 F 
ATOM     27  F   UNL     1      -5.661   3.012  26.377  0.00  0.00    -0.133 F 
ENDBRANCH  23  24
ENDBRANCH  22  23
ENDBRANCH  16  19
TORSDOF 5
ENDMDL
MODEL 4
REMARK VINA RESULT:     -10.8      2.911      4.603
REMARK  Name = 
REMARK  5 active torsions:
REMARK  status: ('A' for Active; 'I' for Inactive)
REMARK    1  A    between atoms: C_5  and  N_8
REMARK    2  A    between atoms: C_13  and  C_14
REMARK    3  A    between atoms: C_16  and  C_19
REMARK    4  A    between atoms: C_22  and  O_23
REMARK    5  A    between atoms: O_23  and  C_24
REMARK                            x       y       z     vdW  Elec       q    Type
REMARK                         _______ _______ _______ _____ _____    ______ ____
ROOT
ATOM     14  C   UNL     1      -1.702   1.457  23.982  0.00  0.00    +0.251 A 
ATOM     15  N   UNL     1      -2.316   1.691  24.483  0.00  0.00    -0.190 NA
ATOM     16  C   UNL     1      -3.028   1.576  24.083  0.00  0.00    +0.203 A 
ATOM     17  N   UNL     1      -2.855   1.272  23.336  0.00  0.00    -0.056 NA
ATOM     18  O   UNL     1      -2.037   1.198  23.274  0.00  0.00    -0.336 OA
ENDROOT
BRANCH  14  13
ATOM      8  N   UNL     1      -0.449   0.852  24.453  0.00  0.00    -0.265 NA
ATOM      9  C   UNL     1       0.327   1.116  24.550  0.00  0.00    +0.106 C 
ATOM     10  C   UNL     1       0.357   1.907  24.317  0.00  0.00    +0.170 C 
ATOM     11  O   UNL     1       1.026   2.389  24.324  0.00  0.00    -0.222 OA
ATOM     12  C   UNL     1      -0.399   2.131  24.076  0.00  0.00    +0.060 C 
ATOM     13  C   UNL     1      -0.898   1.479  24.160  0.00  0.00    +0.140 C 
BRANCH   8   5
ATOM      1  C   UNL     1      -1.561  -2.183  25.120  0.00  0.00    +0.090 C 
ATOM      2  N   UNL     1      -1.282  -1.424  24.953  0.00  0.00    -0.271 NA
ATOM      3  C   UNL     1      -1.283  -0.846  25.542  0.00  0.00    +0.074 C 
ATOM      4  C   UNL     1      -1.005  -0.087  25.375  0.00  0.00    +0.033 C 
ATOM      5  C   UNL     1      -0.727   0.094  24.619  0.00  0.00    +0.061 C 
ATOM      6  C   UNL     1      -0.727  -0.485  24.031  0.00  0.00    +0.033 C 
ATOM      7  C   UNL     1      -1.004  -1.243  24.198  0.00  0.00    +0.074 C 
ENDBRANCH   8   5
ENDBRANCH  14  13
BRANCH  16  19
ATOM     19  C   UNL     1      -3.782   1.738  24.378  0.00  0.00    +0.039 A 
ATOM     20  C   UNL     1      -4.262   1.121  24.641  0.00  0.00    +0.006 A 
ATOM     21  C   UNL     1      -5.016   1.282  24.936  0.00  0.00    +0.037 A 
ATOM     22  C   UNL     1      -5.288   2.060  24.969  0.00  0.00    +0.147 A 
ATOM     28  C   UNL     1      -4.807   2.677  24.706  0.00  0.00    +0.037 A 
ATOM     29  C   UNL     1      -4.054   2.516  24.411  0.00  0.00    +0.006 A 
BRANCH  22  23
ATOM     23  O   UNL     1      -6.041   2.222  25.265  0.00  0.00    -0.404 OA
BRANCH  23  24
ATOM     24  C   UNL     1      -6.168   2.244  26.079  0.00  0.00    +0.575 C 
ATOM     25  F   UNL     1      -6.295   2.267  26.894  0.00  0.00    -0.133 F 
ATOM     26  F   UNL     1      -5.925   3.032  26.096  0.00  0.00    -0.133 F 
ATOM     27  F   UNL     1      -6.412   1.456  26.064  0.00  0.00    -0.133 F 
ENDBRANCH  23  24
ENDBRANCH  22  23
ENDBRANCH  16  19
TORSDOF 5
ENDMDL
