MODEL 1
REMARK VINA RESULT:     -12.9      0.000      0.000
REMARK  Name = 
REMARK  6 active torsions:
REMARK  status: ('A' for Active; 'I' for Inactive)
REMARK    1  A    between atoms: C_5  and  C_8
REMARK    2  A    between atoms: N_10  and  C_11
REMARK    3  A    between atoms: C_11  and  C_12
REMARK    4  A    between atoms: C_14  and  C_15
REMARK    5  A    between atoms: C_15  and  C_16
REMARK    6  A    between atoms: N_21  and  C_24
REMARK                            x       y       z     vdW  Elec       q    Type
REMARK                         _______ _______ _______ _____ _____    ______ ____
ROOT
ATOM     12  C   UNL     1      -1.590   3.279  25.256  0.00  0.00    +0.170 C 
ATOM     13  O   UNL     1      -1.474   2.463  25.237  0.00  0.00    -0.351 OA
ATOM     14  C   UNL     1      -0.682   2.313  25.414  0.00  0.00    +0.157 C 
ATOM     31  C   UNL     1      -0.308   3.037  25.543  0.00  0.00    +0.212 C 
ATOM     32  O   UNL     1       0.487   3.145  25.735  0.00  0.00    -0.218 OA
ATOM     33  C   UNL     1      -0.869   3.635  25.445  0.00  0.00    +0.213 C 
ATOM     34  O   UNL     1      -0.733   4.444  25.523  0.00  0.00    -0.218 OA
ENDROOT
BRANCH  12  11
ATOM     11  C   UNL     1      -2.301   3.672  25.112  0.00  0.00    +0.148 C 
BRANCH  11  10
ATOM      8  C   UNL     1      -3.697   3.544  24.841  0.00  0.00    +0.265 C 
ATOM      9  O   UNL     1      -3.660   4.194  24.335  0.00  0.00    -0.268 OA
ATOM     10  N   UNL     1      -3.019   3.283  25.229  0.00  0.00    -0.199 NA
BRANCH   8   5
ATOM      1  C   UNL     1      -6.568   1.985  25.310  0.00  0.00    +0.031 C 
ATOM      2  C   UNL     1      -5.851   2.375  25.193  0.00  0.00    -0.022 A 
ATOM      3  C   UNL     1      -5.676   3.055  25.624  0.00  0.00    -0.004 A 
ATOM      4  C   UNL     1      -4.958   3.445  25.508  0.00  0.00    +0.004 A 
ATOM      5  C   UNL     1      -4.416   3.154  24.958  0.00  0.00    +0.055 A 
ATOM      6  C   UNL     1      -4.591   2.473  24.526  0.00  0.00    +0.004 A 
ATOM      7  C   UNL     1      -5.309   2.084  24.643  0.00  0.00    -0.004 A 
ENDBRANCH   8   5
ENDBRANCH  11  10
ENDBRANCH  12  11
BRANCH  14  15
ATOM     15  C   UNL     1      -0.327   1.570  25.455  0.00  0.00    +0.117 C 
BRANCH  15  16
ATOM     16  C   UNL     1      -0.329   1.074  24.796  0.00  0.00    +0.228 C 
ATOM     17  O   UNL     1       0.157   1.244  24.151  0.00  0.00    -0.275 OA
ATOM     18  N   UNL     1      -0.816   0.408  24.780  0.00  0.00    -0.276 N 
ATOM     19  C   UNL     1      -0.817  -0.087  24.121  0.00  0.00    +0.115 C 
ATOM     20  C   UNL     1      -1.304  -0.752  24.106  0.00  0.00    +0.112 C 
ATOM     21  N   UNL     1      -1.790  -0.923  24.751  0.00  0.00    -0.304 N 
ATOM     22  C   UNL     1      -1.789  -0.427  25.411  0.00  0.00    +0.112 C 
ATOM     23  C   UNL     1      -1.302   0.239  25.426  0.00  0.00    +0.115 C 
BRANCH  21  24
ATOM     24  C   UNL     1      -2.277  -1.588  24.736  0.00  0.00    +0.048 A 
ATOM     25  C   UNL     1      -1.953  -2.334  24.604  0.00  0.00    +0.017 A 
ATOM     26  C   UNL     1      -2.440  -3.000  24.589  0.00  0.00    +0.031 A 
ATOM     27  C   UNL     1      -3.253  -2.918  24.706  0.00  0.00    +0.140 A 
ATOM     28  F   UNL     1      -3.741  -3.584  24.691  0.00  0.00    -0.204 F 
ATOM     29  C   UNL     1      -3.578  -2.172  24.838  0.00  0.00    +0.031 A 
ATOM     30  C   UNL     1      -3.090  -1.507  24.853  0.00  0.00    +0.017 A 
ENDBRANCH  21  24
ENDBRANCH  15  16
ENDBRANCH  14  15
TORSDOF 6
ENDMDL
MODEL 2
REMARK VINA RESULT:     -12.5      1.811      3.695
REMARK  Name = 
REMARK  6 active torsions:
REMARK  status: ('A' for Active; 'I' for Inactive)
REMARK    1  A    between atoms: C_5  and  C_8
REMARK    2  A    between atoms: N_10  and  C_11
REMARK    3  A    between atoms: C_11  and  C_12
REMARK    4  A    between atoms: C_14  and  C_15
REMARK    5  A    between atoms: C_15  and  C_16
REMARK    6  A    between atoms: N_21  and  C_24
REMARK                            x       y       z     vdW  Elec       q    Type
REMARK                         _______ _______ _______ _____ _____    ______ ____
ROOT
ATOM     12  C   UNL     1      -4.751   3.106  25.674  0.00  0.00    +0.170 C 
ATOM     13  O   UNL     1      -4.455   2.386  25.402  0.00  0.00    -0.351 OA
ATOM     14  C   UNL     1      -5.095   1.890  25.247  0.00  0.00    +0.157 C 
ATOM     31  C   UNL     1      -5.787   2.303  25.423  0.00  0.00    +0.212 C 
ATOM     32  O   UNL     1      -6.556   2.015  25.349  0.00  0.00    -0.218 OA
ATOM     33  C   UNL     1      -5.574   3.055  25.688  0.00  0.00    +0.213 C 
ATOM     34  O   UNL     1      -6.093   3.651  25.924  0.00  0.00    -0.218 OA
ENDROOT
BRANCH  12  11
ATOM     11  C   UNL     1      -4.302   3.763  25.895  0.00  0.00    +0.148 C 
BRANCH  11  10
ATOM      8  C   UNL     1      -2.970   4.274  25.967  0.00  0.00    +0.265 C 
ATOM      9  O   UNL     1      -3.103   4.512  26.746  0.00  0.00    -0.268 OA
ATOM     10  N   UNL     1      -3.569   3.900  25.542  0.00  0.00    -0.199 NA
BRANCH   8   5
ATOM      1  C   UNL     1      -0.038   4.820  24.554  0.00  0.00    +0.031 C 
ATOM      2  C   UNL     1      -0.771   4.683  24.907  0.00  0.00    -0.022 A 
ATOM      3  C   UNL     1      -1.327   5.290  24.950  0.00  0.00    -0.004 A 
ATOM      4  C   UNL     1      -2.061   5.154  25.303  0.00  0.00    +0.004 A 
ATOM      5  C   UNL     1      -2.237   4.410  25.614  0.00  0.00    +0.055 A 
ATOM      6  C   UNL     1      -1.679   3.803  25.571  0.00  0.00    +0.004 A 
ATOM      7  C   UNL     1      -0.947   3.940  25.218  0.00  0.00    -0.004 A 
ENDBRANCH   8   5
ENDBRANCH  11  10
ENDBRANCH  12  11
BRANCH  14  15
ATOM     15  C   UNL     1      -5.051   1.116  24.964  0.00  0.00    +0.117 C 
BRANCH  15  16
ATOM     16  C   UNL     1      -4.527   0.928  24.355  0.00  0.00    +0.228 C 
ATOM     17  O   UNL     1      -4.567   1.333  23.637  0.00  0.00    -0.275 OA
ATOM     18  N   UNL     1      -3.964   0.335  24.464  0.00  0.00    -0.276 N 
ATOM     19  C   UNL     1      -3.440   0.147  23.855  0.00  0.00    +0.115 C 
ATOM     20  C   UNL     1      -2.877  -0.445  23.964  0.00  0.00    +0.112 C 
ATOM     21  N   UNL     1      -2.836  -0.850  24.681  0.00  0.00    -0.304 N 
ATOM     22  C   UNL     1      -3.361  -0.662  25.290  0.00  0.00    +0.112 C 
ATOM     23  C   UNL     1      -3.924  -0.070  25.182  0.00  0.00    +0.115 C 
BRANCH  21  24
ATOM     24  C   UNL     1      -2.273  -1.443  24.790  0.00  0.00    +0.048 A 
ATOM     25  C   UNL     1      -2.445  -2.220  24.576  0.00  0.00    +0.017 A 
ATOM     26  C   UNL     1      -1.881  -2.813  24.685  0.00  0.00    +0.031 A 
ATOM     27  C   UNL     1      -1.145  -2.627  25.007  0.00  0.00    +0.140 A 
ATOM     28  F   UNL     1      -0.581  -3.219  25.116  0.00  0.00    -0.204 F 
ATOM     29  C   UNL     1      -0.972  -1.849  25.221  0.00  0.00    +0.031 A 
ATOM     30  C   UNL     1      -1.536  -1.257  25.112  0.00  0.00    +0.017 A 
ENDBRANCH  21  24
ENDBRANCH  15  16
ENDBRANCH  14  15
TORSDOF 6
ENDMDL
MODEL 3
REMARK VINA RESULT:     -12.2      2.095      4.023
REMARK  Name = 
REMARK  6 active torsions:
REMARK  status: ('A' for Active; 'I' for Inactive)
REMARK    1  A    between atoms: C_5  and  C_8
REMARK    2  A    between atoms: N_10  and  C_11
REMARK    3  A    between atoms: C_11  and  C_12
REMARK    4  A    between atoms: C_14  and  C_15
REMARK    5  A    between atoms: C_15  and  C_16
REMARK    6  A    between atoms: N_21  and  C_24
REMARK                            x       y       z     vdW  Elec       q    Type
REMARK                         _______ _______ _______ _____ _____    ______ ____
ROOT
ATOM     12  C   UNL     1      -3.769   2.418  24.978  0.00  0.00    +0.170 C 
ATOM     13  O   UNL     1      -2.949   2.369  24.904  0.00  0.00    -0.351 OA
ATOM     14  C   UNL     1      -2.651   3.137  24.857  0.00  0.00    +0.157 C 
ATOM     31  C   UNL     1      -3.286   3.660  24.901  0.00  0.00    +0.212 C 
ATOM     32  O   UNL     1      -3.240   4.483  24.875  0.00  0.00    -0.218 OA
ATOM     33  C   UNL     1      -3.978   3.216  24.976  0.00  0.00    +0.213 C 
ATOM     34  O   UNL     1      -4.743   3.517  25.038  0.00  0.00    -0.218 OA
ENDROOT
BRANCH  12  11
ATOM     11  C   UNL     1      -4.289   1.781  25.042  0.00  0.00    +0.148 C 
BRANCH  11  10
ATOM      8  C   UNL     1      -4.504   0.369  25.066  0.00  0.00    +0.265 C 
ATOM      9  O   UNL     1      -5.246   0.487  25.407  0.00  0.00    -0.268 OA
ATOM     10  N   UNL     1      -4.026   1.015  24.884  0.00  0.00    -0.199 NA
BRANCH   8   5
ATOM      1  C   UNL     1      -3.449  -2.694  24.435  0.00  0.00    +0.031 C 
ATOM      2  C   UNL     1      -3.713  -1.929  24.593  0.00  0.00    -0.022 A 
ATOM      3  C   UNL     1      -4.131  -1.510  24.019  0.00  0.00    -0.004 A 
ATOM      4  C   UNL     1      -4.395  -0.744  24.176  0.00  0.00    +0.004 A 
ATOM      5  C   UNL     1      -4.240  -0.398  24.908  0.00  0.00    +0.055 A 
ATOM      6  C   UNL     1      -3.821  -0.817  25.484  0.00  0.00    +0.004 A 
ATOM      7  C   UNL     1      -3.558  -1.582  25.325  0.00  0.00    -0.004 A 
ENDBRANCH   8   5
ENDBRANCH  11  10
ENDBRANCH  12  11
BRANCH  14  15
ATOM     15  C   UNL     1      -1.856   3.344  24.779  0.00  0.00    +0.117 C 
BRANCH  15  16
ATOM     16  C   UNL     1      -1.279   2.935  25.205  0.00  0.00    +0.228 C 
ATOM     17  O   UNL     1      -1.249   3.002  26.026  0.00  0.00    -0.275 OA
ATOM     18  N   UNL     1      -0.732   2.461  24.809  0.00  0.00    -0.276 N 
ATOM     19  C   UNL     1      -0.156   2.053  25.234  0.00  0.00    +0.115 C 
ATOM     20  C   UNL     1       0.391   1.579  24.839  0.00  0.00    +0.112 C 
ATOM     21  N   UNL     1       0.361   1.512  24.017  0.00  0.00    -0.304 N 
ATOM     22  C   UNL     1      -0.216   1.921  23.591  0.00  0.00    +0.112 C 
ATOM     23  C   UNL     1      -0.763   2.395  23.987  0.00  0.00    +0.115 C 
BRANCH  21  24
ATOM     24  C   UNL     1       0.907   1.038  23.621  0.00  0.00    +0.048 A 
ATOM     25  C   UNL     1       0.671   0.317  23.298  0.00  0.00    +0.017 A 
ATOM     26  C   UNL     1       1.218  -0.157  22.902  0.00  0.00    +0.031 A 
ATOM     27  C   UNL     1       2.002   0.090  22.830  0.00  0.00    +0.140 A 
ATOM     28  F   UNL     1       2.549  -0.385  22.435  0.00  0.00    -0.204 F 
ATOM     29  C   UNL     1       2.239   0.810  23.154  0.00  0.00    +0.031 A 
ATOM     30  C   UNL     1       1.692   1.285  23.550  0.00  0.00    +0.017 A 
ENDBRANCH  21  24
ENDBRANCH  15  16
ENDBRANCH  14  15
TORSDOF 6
ENDMDL
MODEL 4
REMARK VINA RESULT:     -12.0      1.826      4.870
REMARK  Name = 
REMARK  6 active torsions:
REMARK  status: ('A' for Active; 'I' for Inactive)
REMARK    1  A    between atoms: C_5  and  C_8
REMARK    2  A    between atoms: N_10  and  C_11
REMARK    3  A    between atoms: C_11  and  C_12
REMARK    4  A    between atoms: C_14  and  C_15
REMARK    5  A    between atoms: C_15  and  C_16
REMARK    6  A    between atoms: N_21  and  C_24
REMARK                            x       y       z     vdW  Elec       q    Type
REMARK                         _______ _______ _______ _____ _____    ______ ____
ROOT
ATOM     12  C   UNL     1      -0.082   0.116  24.292  0.00  0.00    +0.170 C 
ATOM     13  O   UNL     1      -0.534   0.772  24.507  0.00  0.00    -0.351 OA
ATOM     14  C   UNL     1      -0.156   1.448  24.222  0.00  0.00    +0.157 C 
ATOM     31  C   UNL     1       0.531   1.210  23.831  0.00  0.00    +0.212 C 
ATOM     32  O   UNL     1       1.076   1.707  23.463  0.00  0.00    -0.218 OA
ATOM     33  C   UNL     1       0.577   0.387  23.875  0.00  0.00    +0.213 C 
ATOM     34  O   UNL     1       1.175  -0.083  23.557  0.00  0.00    -0.218 OA
ENDROOT
BRANCH  12  11
ATOM     11  C   UNL     1      -0.257  -0.671  24.465  0.00  0.00    +0.148 C 
BRANCH  11  10
ATOM      8  C   UNL     1      -1.276  -1.629  24.753  0.00  0.00    +0.265 C 
ATOM      9  O   UNL     1      -0.771  -2.009  25.282  0.00  0.00    -0.268 OA
ATOM     10  N   UNL     1      -1.020  -0.961  24.345  0.00  0.00    -0.199 NA
BRANCH   8   5
ATOM      1  C   UNL     1      -4.329  -2.786  24.271  0.00  0.00    +0.031 C 
ATOM      2  C   UNL     1      -3.567  -2.497  24.391  0.00  0.00    -0.022 A 
ATOM      3  C   UNL     1      -3.455  -1.770  24.764  0.00  0.00    -0.004 A 
ATOM      4  C   UNL     1      -2.692  -1.480  24.885  0.00  0.00    +0.004 A 
ATOM      5  C   UNL     1      -2.040  -1.918  24.632  0.00  0.00    +0.055 A 
ATOM      6  C   UNL     1      -2.151  -2.646  24.259  0.00  0.00    +0.004 A 
ATOM      7  C   UNL     1      -2.915  -2.935  24.139  0.00  0.00    -0.004 A 
ENDBRANCH   8   5
ENDBRANCH  11  10
ENDBRANCH  12  11
BRANCH  14  15
ATOM     15  C   UNL     1      -0.418   2.224  24.312  0.00  0.00    +0.117 C 
BRANCH  15  16
ATOM     16  C   UNL     1      -0.706   2.481  25.042  0.00  0.00    +0.228 C 
ATOM     17  O   UNL     1      -0.202   2.513  25.695  0.00  0.00    -0.275 OA
ATOM     18  N   UNL     1      -1.495   2.706  25.119  0.00  0.00    -0.276 N 
ATOM     19  C   UNL     1      -1.782   2.963  25.848  0.00  0.00    +0.115 C 
ATOM     20  C   UNL     1      -2.572   3.188  25.924  0.00  0.00    +0.112 C 
ATOM     21  N   UNL     1      -3.076   3.156  25.271  0.00  0.00    -0.304 N 
ATOM     22  C   UNL     1      -2.788   2.899  24.541  0.00  0.00    +0.112 C 
ATOM     23  C   UNL     1      -1.998   2.674  24.465  0.00  0.00    +0.115 C 
BRANCH  21  24
ATOM     24  C   UNL     1      -3.865   3.381  25.348  0.00  0.00    +0.048 A 
ATOM     25  C   UNL     1      -4.066   4.181  25.378  0.00  0.00    +0.017 A 
ATOM     26  C   UNL     1      -4.856   4.405  25.455  0.00  0.00    +0.031 A 
ATOM     27  C   UNL     1      -5.445   3.830  25.501  0.00  0.00    +0.140 A 
ATOM     28  F   UNL     1      -6.236   4.055  25.578  0.00  0.00    -0.204 F 
ATOM     29  C   UNL     1      -5.246   3.030  25.471  0.00  0.00    +0.031 A 
ATOM     30  C   UNL     1      -4.455   2.806  25.394  0.00  0.00    +0.017 A 
ENDBRANCH  21  24
ENDBRANCH  15  16
ENDBRANCH  14  15
TORSDOF 6
ENDMDL
MODEL 5
REMARK VINA RESULT:     -11.9      2.422      4.505
REMARK  Name = 
REMARK  6 active torsions:
REMARK  status: ('A' for Active; 'I' for Inactive)
REMARK    1  A    between atoms: C_5  and  C_8
REMARK    2  A    between atoms: N_10  and  C_11
REMARK    3  A    between atoms: C_11  and  C_12
REMARK    4  A    between atoms: C_14  and  C_15
REMARK    5  A    between atoms: C_15  and  C_16
REMARK    6  A    between atoms: N_21  and  C_24
REMARK                            x       y       z     vdW  Elec       q    Type
REMARK                         _______ _______ _______ _____ _____    ______ ____
ROOT
ATOM     12  C   UNL     1      -2.442  -0.896  24.971  0.00  0.00    +0.170 C 
ATOM     13  O   UNL     1      -1.926  -0.253  24.961  0.00  0.00    -0.351 OA
ATOM     14  C   UNL     1      -1.155  -0.543  25.006  0.00  0.00    +0.157 C 
ATOM     31  C   UNL     1      -1.194  -1.366  25.045  0.00  0.00    +0.212 C 
ATOM     32  O   UNL     1      -0.551  -1.880  25.096  0.00  0.00    -0.218 OA
ATOM     33  C   UNL     1      -1.990  -1.585  25.023  0.00  0.00    +0.213 C 
ATOM     34  O   UNL     1      -2.281  -2.355  25.049  0.00  0.00    -0.218 OA
ENDROOT
BRANCH  12  11
ATOM     11  C   UNL     1      -3.265  -0.859  24.936  0.00  0.00    +0.148 C 
BRANCH  11  10
ATOM      8  C   UNL     1      -4.372   0.018  24.719  0.00  0.00    +0.265 C 
ATOM      9  O   UNL     1      -4.704  -0.529  24.198  0.00  0.00    -0.268 OA
ATOM     10  N   UNL     1      -3.653  -0.146  25.087  0.00  0.00    -0.199 NA
BRANCH   8   5
ATOM      1  C   UNL     1      -5.922   2.868  25.325  0.00  0.00    +0.031 C 
ATOM      2  C   UNL     1      -5.535   2.156  25.173  0.00  0.00    -0.022 A 
ATOM      3  C   UNL     1      -5.797   1.460  25.529  0.00  0.00    -0.004 A 
ATOM      4  C   UNL     1      -5.410   0.747  25.378  0.00  0.00    +0.004 A 
ATOM      5  C   UNL     1      -4.760   0.731  24.870  0.00  0.00    +0.055 A 
ATOM      6  C   UNL     1      -4.497   1.428  24.514  0.00  0.00    +0.004 A 
ATOM      7  C   UNL     1      -4.884   2.140  24.666  0.00  0.00    -0.004 A 
ENDBRANCH   8   5
ENDBRANCH  11  10
ENDBRANCH  12  11
BRANCH  14  15
ATOM     15  C   UNL     1      -0.466  -0.089  25.012  0.00  0.00    +0.117 C 
BRANCH  15  16
ATOM     16  C   UNL     1      -0.323   0.453  24.407  0.00  0.00    +0.228 C 
ATOM     17  O   UNL     1      -0.027   0.192  23.682  0.00  0.00    -0.275 OA
ATOM     18  N   UNL     1      -0.476   1.255  24.525  0.00  0.00    -0.276 N 
ATOM     19  C   UNL     1      -0.334   1.796  23.920  0.00  0.00    +0.115 C 
ATOM     20  C   UNL     1      -0.487   2.598  24.039  0.00  0.00    +0.112 C 
ATOM     21  N   UNL     1      -0.783   2.859  24.764  0.00  0.00    -0.304 N 
ATOM     22  C   UNL     1      -0.926   2.316  25.369  0.00  0.00    +0.112 C 
ATOM     23  C   UNL     1      -0.773   1.515  25.251  0.00  0.00    +0.115 C 
BRANCH  21  24
ATOM     24  C   UNL     1      -0.936   3.660  24.882  0.00  0.00    +0.048 A 
ATOM     25  C   UNL     1      -0.413   4.228  24.593  0.00  0.00    +0.017 A 
ATOM     26  C   UNL     1      -0.567   5.030  24.712  0.00  0.00    +0.031 A 
ATOM     27  C   UNL     1      -1.244   5.263  25.121  0.00  0.00    +0.140 A 
ATOM     28  F   UNL     1      -1.398   6.065  25.240  0.00  0.00    -0.204 F 
ATOM     29  C   UNL     1      -1.768   4.696  25.411  0.00  0.00    +0.031 A 
ATOM     30  C   UNL     1      -1.614   3.894  25.291  0.00  0.00    +0.017 A 
ENDBRANCH  21  24
ENDBRANCH  15  16
ENDBRANCH  14  15
TORSDOF 6
ENDMDL
MODEL 6
REMARK VINA RESULT:      -9.1     17.893     18.759
REMARK  Name = 
REMARK  6 active torsions:
REMARK  status: ('A' for Active; 'I' for Inactive)
REMARK    1  A    between atoms: C_5  and  C_8
REMARK    2  A    between atoms: N_10  and  C_11
REMARK    3  A    between atoms: C_11  and  C_12
REMARK    4  A    between atoms: C_14  and  C_15
REMARK    5  A    between atoms: C_15  and  C_16
REMARK    6  A    between atoms: N_21  and  C_24
REMARK                            x       y       z     vdW  Elec       q    Type
REMARK                         _______ _______ _______ _____ _____    ______ ____
ROOT
ATOM     12  C   UNL     1      -8.782  -8.800   9.698  0.00  0.00    +0.170 C 
ATOM     13  O   UNL     1      -7.963  -8.726   9.749  0.00  0.00    -0.351 OA
ATOM     14  C   UNL     1      -7.697  -9.232  10.345  0.00  0.00    +0.157 C 
ATOM     31  C   UNL     1      -8.353  -9.619  10.662  0.00  0.00    +0.212 C 
ATOM     32  O   UNL     1      -8.341 -10.174  11.271  0.00  0.00    -0.218 OA
ATOM     33  C   UNL     1      -9.024  -9.352  10.262  0.00  0.00    +0.213 C 
ATOM     34  O   UNL     1      -9.800  -9.594  10.401  0.00  0.00    -0.218 OA
ENDROOT
BRANCH  12  11
ATOM     11  C   UNL     1      -9.274  -8.395   9.174  0.00  0.00    +0.148 C 
BRANCH  11  10
ATOM      8  C   UNL     1      -9.842  -7.170   8.708  0.00  0.00    +0.265 C 
ATOM      9  O   UNL     1     -10.253  -7.582   8.124  0.00  0.00    -0.268 OA
ATOM     10  N   UNL     1      -9.353  -7.576   9.233  0.00  0.00    -0.199 NA
BRANCH   8   5
ATOM      1  C   UNL     1     -10.156  -3.893   8.942  0.00  0.00    +0.031 C 
ATOM      2  C   UNL     1     -10.078  -4.712   8.884  0.00  0.00    -0.022 A 
ATOM      3  C   UNL     1     -10.665  -5.205   9.187  0.00  0.00    -0.004 A 
ATOM      4  C   UNL     1     -10.587  -6.024   9.129  0.00  0.00    +0.004 A 
ATOM      5  C   UNL     1      -9.921  -6.350   8.767  0.00  0.00    +0.055 A 
ATOM      6  C   UNL     1      -9.333  -5.856   8.463  0.00  0.00    +0.004 A 
ATOM      7  C   UNL     1      -9.412  -5.037   8.522  0.00  0.00    -0.004 A 
ENDBRANCH   8   5
ENDBRANCH  11  10
ENDBRANCH  12  11
BRANCH  14  15
ATOM     15  C   UNL     1      -6.914  -9.333  10.582  0.00  0.00    +0.117 C 
BRANCH  15  16
ATOM     16  C   UNL     1      -6.342  -9.562  10.032  0.00  0.00    +0.228 C 
ATOM     17  O   UNL     1      -6.567  -9.762   9.264  0.00  0.00    -0.275 OA
ATOM     18  N   UNL     1      -5.548  -9.591  10.251  0.00  0.00    -0.276 N 
ATOM     19  C   UNL     1      -4.977  -9.821   9.702  0.00  0.00    +0.115 C 
ATOM     20  C   UNL     1      -4.182  -9.850   9.920  0.00  0.00    +0.112 C 
ATOM     21  N   UNL     1      -3.958  -9.650  10.688  0.00  0.00    -0.304 N 
ATOM     22  C   UNL     1      -4.529  -9.421  11.238  0.00  0.00    +0.112 C 
ATOM     23  C   UNL     1      -5.324  -9.391  11.020  0.00  0.00    +0.115 C 
BRANCH  21  24
ATOM     24  C   UNL     1      -3.163  -9.680  10.907  0.00  0.00    +0.048 A 
ATOM     25  C   UNL     1      -2.904 -10.246  11.447  0.00  0.00    +0.017 A 
ATOM     26  C   UNL     1      -2.109 -10.275  11.666  0.00  0.00    +0.031 A 
ATOM     27  C   UNL     1      -1.573  -9.737  11.343  0.00  0.00    +0.140 A 
ATOM     28  F   UNL     1      -0.778  -9.766  11.562  0.00  0.00    -0.204 F 
ATOM     29  C   UNL     1      -1.831  -9.170  10.803  0.00  0.00    +0.031 A 
ATOM     30  C   UNL     1      -2.627  -9.141  10.585  0.00  0.00    +0.017 A 
ENDBRANCH  21  24
ENDBRANCH  15  16
ENDBRANCH  14  15
TORSDOF 6
ENDMDL
