MODEL 1
REMARK VINA RESULT:      -9.4      0.000      0.000
REMARK  Name = 
REMARK  4 active torsions:
REMARK  status: ('A' for Active; 'I' for Inactive)
REMARK    1  A    between atoms: N_4  and  C_5
REMARK    2  A    between atoms: C_5  and  C_6
REMARK    3  A    between atoms: C_9  and  N_10
REMARK    4  A    between atoms: N_10  and  C_11
REMARK                            x       y       z     vdW  Elec       q    Type
REMARK                         _______ _______ _______ _____ _____    ______ ____
ROOT
ATOM      6  C   UNL     1      -2.947   2.553  24.848  0.00  0.00    +0.169 C 
ATOM      7  O   UNL     1      -2.471   2.011  24.448  0.00  0.00    -0.350 OA
ATOM      8  C   UNL     1      -2.911   1.323  24.330  0.00  0.00    +0.162 C 
ATOM      9  C   UNL     1      -3.659   1.440  24.658  0.00  0.00    +0.135 C 
ATOM     20  C   UNL     1      -3.681   2.200  24.978  0.00  0.00    +0.199 C 
ATOM     21  O   UNL     1      -4.324   2.547  25.360  0.00  0.00    -0.219 OA
ENDROOT
BRANCH   6   5
ATOM      5  C   UNL     1      -2.727   3.315  25.077  0.00  0.00    +0.147 C 
BRANCH   5   4
ATOM      1  C   UNL     1      -0.973   4.612  25.014  0.00  0.00    +0.096 C 
ATOM      2  C   UNL     1      -1.728   4.329  25.191  0.00  0.00    +0.242 C 
ATOM      3  O   UNL     1      -2.238   4.779  25.658  0.00  0.00    -0.273 OA
ATOM      4  N   UNL     1      -1.973   3.597  24.901  0.00  0.00    -0.203 NA
ENDBRANCH   5   4
ENDBRANCH   6   5
BRANCH   9  10
ATOM     10  N   UNL     1      -4.276   0.893  24.665  0.00  0.00    -0.216 NA
BRANCH  10  11
ATOM     11  C   UNL     1      -4.112   0.085  24.693  0.00  0.00    +0.076 C 
ATOM     12  C   UNL     1      -4.137  -0.365  24.002  0.00  0.00    +0.039 C 
ATOM     13  C   UNL     1      -3.972  -1.174  24.030  0.00  0.00    +0.095 C 
ATOM     14  N   UNL     1      -3.783  -1.531  24.749  0.00  0.00    -0.279 N 
ATOM     15  C   UNL     1      -3.758  -1.080  25.440  0.00  0.00    +0.095 C 
ATOM     16  C   UNL     1      -3.923  -0.273  25.412  0.00  0.00    +0.039 C 
ATOM     17  C   UNL     1      -3.618  -2.339  24.777  0.00  0.00    +0.226 C 
ATOM     18  C   UNL     1      -3.643  -2.789  24.086  0.00  0.00    +0.095 C 
ATOM     19  O   UNL     1      -3.429  -2.696  25.495  0.00  0.00    -0.275 OA
ENDBRANCH  10  11
ENDBRANCH   9  10
TORSDOF 4
ENDMDL
MODEL 2
REMARK VINA RESULT:      -8.3      1.696      5.321
REMARK  Name = 
REMARK  4 active torsions:
REMARK  status: ('A' for Active; 'I' for Inactive)
REMARK    1  A    between atoms: N_4  and  C_5
REMARK    2  A    between atoms: C_5  and  C_6
REMARK    3  A    between atoms: C_9  and  N_10
REMARK    4  A    between atoms: N_10  and  C_11
REMARK                            x       y       z     vdW  Elec       q    Type
REMARK                         _______ _______ _______ _____ _____    ______ ____
ROOT
ATOM      6  C   UNL     1      -2.121  -0.355  24.894  0.00  0.00    +0.169 C 
ATOM      7  O   UNL     1      -2.231   0.193  24.288  0.00  0.00    -0.350 OA
ATOM      8  C   UNL     1      -1.758   0.850  24.449  0.00  0.00    +0.162 C 
ATOM      9  C   UNL     1      -1.356   0.708  25.155  0.00  0.00    +0.135 C 
ATOM     20  C   UNL     1      -1.581  -0.037  25.431  0.00  0.00    +0.199 C 
ATOM     21  O   UNL     1      -1.312  -0.400  26.121  0.00  0.00    -0.219 OA
ENDROOT
BRANCH   6   5
ATOM      5  C   UNL     1      -2.488  -1.092  24.954  0.00  0.00    +0.147 C 
BRANCH   5   4
ATOM      1  C   UNL     1      -4.088  -2.222  23.993  0.00  0.00    +0.096 C 
ATOM      2  C   UNL     1      -3.478  -2.021  24.511  0.00  0.00    +0.242 C 
ATOM      3  O   UNL     1      -3.249  -2.549  25.102  0.00  0.00    -0.273 OA
ATOM      4  N   UNL     1      -3.097  -1.293  24.437  0.00  0.00    -0.203 NA
ENDBRANCH   5   4
ENDBRANCH   6   5
BRANCH   9  10
ATOM     10  N   UNL     1      -0.824   1.220  25.522  0.00  0.00    -0.216 NA
BRANCH  10  11
ATOM     11  C   UNL     1      -0.868   2.031  25.381  0.00  0.00    +0.076 C 
ATOM     12  C   UNL     1      -1.442   2.485  25.760  0.00  0.00    +0.039 C 
ATOM     13  C   UNL     1      -1.486   3.297  25.619  0.00  0.00    +0.095 C 
ATOM     14  N   UNL     1      -0.955   3.654  25.098  0.00  0.00    -0.279 N 
ATOM     15  C   UNL     1      -0.381   3.200  24.719  0.00  0.00    +0.095 C 
ATOM     16  C   UNL     1      -0.337   2.389  24.860  0.00  0.00    +0.039 C 
ATOM     17  C   UNL     1      -0.999   4.466  24.957  0.00  0.00    +0.226 C 
ATOM     18  C   UNL     1      -1.575   4.921  25.337  0.00  0.00    +0.095 C 
ATOM     19  O   UNL     1      -0.469   4.823  24.437  0.00  0.00    -0.275 OA
ENDBRANCH  10  11
ENDBRANCH   9  10
TORSDOF 4
ENDMDL
MODEL 3
REMARK VINA RESULT:      -8.3      1.942      2.295
REMARK  Name = 
REMARK  4 active torsions:
REMARK  status: ('A' for Active; 'I' for Inactive)
REMARK    1  A    between atoms: N_4  and  C_5
REMARK    2  A    between atoms: C_5  and  C_6
REMARK    3  A    between atoms: C_9  and  N_10
REMARK    4  A    between atoms: N_10  and  C_11
REMARK                            x       y       z     vdW  Elec       q    Type
REMARK                         _______ _______ _______ _____ _____    ______ ____
ROOT
ATOM      6  C   UNL     1      -1.071   2.482  25.149  0.00  0.00    +0.169 C 
ATOM      7  O   UNL     1      -1.692   2.142  24.726  0.00  0.00    -0.350 OA
ATOM      8  C   UNL     1      -1.699   1.333  24.890  0.00  0.00    +0.162 C 
ATOM      9  C   UNL     1      -1.083   1.173  25.415  0.00  0.00    +0.135 C 
ATOM     20  C   UNL     1      -0.694   1.883  25.575  0.00  0.00    +0.199 C 
ATOM     21  O   UNL     1      -0.044   1.978  26.073  0.00  0.00    -0.219 OA
ENDROOT
BRANCH   6   5
ATOM      5  C   UNL     1      -0.862   3.280  25.147  0.00  0.00    +0.147 C 
BRANCH   5   4
ATOM      1  C   UNL     1      -1.841   5.231  25.188  0.00  0.00    +0.096 C 
ATOM      2  C   UNL     1      -1.259   4.652  25.102  0.00  0.00    +0.242 C 
ATOM      3  O   UNL     1      -0.493   4.867  24.886  0.00  0.00    -0.273 OA
ATOM      4  N   UNL     1      -1.444   3.858  25.233  0.00  0.00    -0.203 NA
ENDBRANCH   5   4
ENDBRANCH   6   5
BRANCH   9  10
ATOM     10  N   UNL     1      -0.889   0.434  25.725  0.00  0.00    -0.216 NA
BRANCH  10  11
ATOM     11  C   UNL     1      -1.270  -0.243  25.447  0.00  0.00    +0.076 C 
ATOM     12  C   UNL     1      -2.021  -0.438  25.726  0.00  0.00    +0.039 C 
ATOM     13  C   UNL     1      -2.402  -1.115  25.448  0.00  0.00    +0.095 C 
ATOM     14  N   UNL     1      -2.031  -1.597  24.891  0.00  0.00    -0.279 N 
ATOM     15  C   UNL     1      -1.280  -1.402  24.611  0.00  0.00    +0.095 C 
ATOM     16  C   UNL     1      -0.900  -0.725  24.889  0.00  0.00    +0.039 C 
ATOM     17  C   UNL     1      -2.413  -2.274  24.613  0.00  0.00    +0.226 C 
ATOM     18  C   UNL     1      -3.164  -2.469  24.893  0.00  0.00    +0.095 C 
ATOM     19  O   UNL     1      -2.042  -2.756  24.056  0.00  0.00    -0.275 OA
ENDBRANCH  10  11
ENDBRANCH   9  10
TORSDOF 4
ENDMDL
MODEL 4
REMARK VINA RESULT:      -8.2      1.066      4.929
REMARK  Name = 
REMARK  4 active torsions:
REMARK  status: ('A' for Active; 'I' for Inactive)
REMARK    1  A    between atoms: N_4  and  C_5
REMARK    2  A    between atoms: C_5  and  C_6
REMARK    3  A    between atoms: C_9  and  N_10
REMARK    4  A    between atoms: N_10  and  C_11
REMARK                            x       y       z     vdW  Elec       q    Type
REMARK                         _______ _______ _______ _____ _____    ______ ____
ROOT
ATOM      6  C   UNL     1      -4.030  -0.266  24.517  0.00  0.00    +0.169 C 
ATOM      7  O   UNL     1      -4.270   0.062  25.234  0.00  0.00    -0.350 OA
ATOM      8  C   UNL     1      -4.293   0.883  25.144  0.00  0.00    +0.162 C 
ATOM      9  C   UNL     1      -4.067   1.061  24.371  0.00  0.00    +0.135 C 
ATOM     20  C   UNL     1      -3.904   0.350  23.983  0.00  0.00    +0.199 C 
ATOM     21  O   UNL     1      -3.659   0.271  23.200  0.00  0.00    -0.219 OA
ENDROOT
BRANCH   6   5
ATOM      5  C   UNL     1      -3.932  -1.070  24.361  0.00  0.00    +0.147 C 
BRANCH   5   4
ATOM      1  C   UNL     1      -3.231  -2.873  25.373  0.00  0.00    +0.096 C 
ATOM      2  C   UNL     1      -3.563  -2.378  24.801  0.00  0.00    +0.242 C 
ATOM      3  O   UNL     1      -3.854  -2.698  24.099  0.00  0.00    -0.273 OA
ATOM      4  N   UNL     1      -3.602  -1.564  24.932  0.00  0.00    -0.203 NA
ENDBRANCH   5   4
ENDBRANCH   6   5
BRANCH   9  10
ATOM     10  N   UNL     1      -4.013   1.815  24.043  0.00  0.00    -0.216 NA
BRANCH  10  11
ATOM     11  C   UNL     1      -3.605   2.411  24.442  0.00  0.00    +0.076 C 
ATOM     12  C   UNL     1      -2.806   2.538  24.287  0.00  0.00    +0.039 C 
ATOM     13  C   UNL     1      -2.397   3.134  24.686  0.00  0.00    +0.095 C 
ATOM     14  N   UNL     1      -2.790   3.602  25.241  0.00  0.00    -0.279 N 
ATOM     15  C   UNL     1      -3.590   3.474  25.396  0.00  0.00    +0.095 C 
ATOM     16  C   UNL     1      -3.998   2.879  24.997  0.00  0.00    +0.039 C 
ATOM     17  C   UNL     1      -2.382   4.198  25.641  0.00  0.00    +0.226 C 
ATOM     18  C   UNL     1      -1.581   4.326  25.485  0.00  0.00    +0.095 C 
ATOM     19  O   UNL     1      -2.774   4.665  26.195  0.00  0.00    -0.275 OA
ENDBRANCH  10  11
ENDBRANCH   9  10
TORSDOF 4
ENDMDL
MODEL 5
REMARK VINA RESULT:      -7.8      2.645      4.107
REMARK  Name = 
REMARK  4 active torsions:
REMARK  status: ('A' for Active; 'I' for Inactive)
REMARK    1  A    between atoms: N_4  and  C_5
REMARK    2  A    between atoms: C_5  and  C_6
REMARK    3  A    between atoms: C_9  and  N_10
REMARK    4  A    between atoms: N_10  and  C_11
REMARK                            x       y       z     vdW  Elec       q    Type
REMARK                         _______ _______ _______ _____ _____    ______ ____
ROOT
ATOM      6  C   UNL     1      -1.217   1.286  24.215  0.00  0.00    +0.169 C 
ATOM      7  O   UNL     1      -1.338   1.498  25.002  0.00  0.00    -0.350 OA
ATOM      8  C   UNL     1      -1.934   2.069  25.024  0.00  0.00    +0.162 C 
ATOM      9  C   UNL     1      -2.182   2.209  24.250  0.00  0.00    +0.135 C 
ATOM     20  C   UNL     1      -1.739   1.725  23.749  0.00  0.00    +0.199 C 
ATOM     21  O   UNL     1      -1.805   1.686  22.928  0.00  0.00    -0.219 OA
ENDROOT
BRANCH   6   5
ATOM      5  C   UNL     1      -0.671   0.732  23.940  0.00  0.00    +0.147 C 
BRANCH   5   4
ATOM      1  C   UNL     1      -0.004  -1.295  24.399  0.00  0.00    +0.096 C 
ATOM      2  C   UNL     1      -0.058  -0.555  24.039  0.00  0.00    +0.242 C 
ATOM      3  O   UNL     1       0.449  -0.362  23.417  0.00  0.00    -0.273 OA
ATOM      4  N   UNL     1      -0.618  -0.008  24.300  0.00  0.00    -0.203 NA
ENDBRANCH   5   4
ENDBRANCH   6   5
BRANCH   9  10
ATOM     10  N   UNL     1      -2.769   2.739  24.017  0.00  0.00    -0.216 NA
BRANCH  10  11
ATOM     11  C   UNL     1      -3.493   2.751  24.410  0.00  0.00    +0.076 C 
ATOM     12  C   UNL     1      -4.067   2.184  24.237  0.00  0.00    +0.039 C 
ATOM     13  C   UNL     1      -4.792   2.197  24.631  0.00  0.00    +0.095 C 
ATOM     14  N   UNL     1      -4.943   2.777  25.197  0.00  0.00    -0.279 N 
ATOM     15  C   UNL     1      -4.370   3.344  25.370  0.00  0.00    +0.095 C 
ATOM     16  C   UNL     1      -3.646   3.332  24.977  0.00  0.00    +0.039 C 
ATOM     17  C   UNL     1      -5.669   2.789  25.591  0.00  0.00    +0.226 C 
ATOM     18  C   UNL     1      -6.242   2.221  25.417  0.00  0.00    +0.095 C 
ATOM     19  O   UNL     1      -5.820   3.369  26.157  0.00  0.00    -0.275 OA
ENDBRANCH  10  11
ENDBRANCH   9  10
TORSDOF 4
ENDMDL
MODEL 6
REMARK VINA RESULT:      -7.6      1.671      2.032
REMARK  Name = 
REMARK  4 active torsions:
REMARK  status: ('A' for Active; 'I' for Inactive)
REMARK    1  A    between atoms: N_4  and  C_5
REMARK    2  A    between atoms: C_5  and  C_6
REMARK    3  A    between atoms: C_9  and  N_10
REMARK    4  A    between atoms: N_10  and  C_11
REMARK                            x       y       z     vdW  Elec       q    Type
REMARK                         _______ _______ _______ _____ _____    ______ ____
ROOT
ATOM      6  C   UNL     1      -4.563   1.734  24.778  0.00  0.00    +0.169 C 
ATOM      7  O   UNL     1      -4.006   1.558  24.196  0.00  0.00    -0.350 OA
ATOM      8  C   UNL     1      -3.896   0.740  24.187  0.00  0.00    +0.162 C 
ATOM      9  C   UNL     1      -4.385   0.411  24.764  0.00  0.00    +0.135 C 
ATOM     20  C   UNL     1      -4.797   1.026  25.130  0.00  0.00    +0.199 C 
ATOM     21  O   UNL     1      -5.346   0.946  25.740  0.00  0.00    -0.219 OA
ENDROOT
BRANCH   6   5
ATOM      5  C   UNL     1      -4.837   2.487  24.975  0.00  0.00    +0.147 C 
BRANCH   5   4
ATOM      1  C   UNL     1      -4.040   4.481  25.368  0.00  0.00    +0.096 C 
ATOM      2  C   UNL     1      -4.572   3.854  25.296  0.00  0.00    +0.242 C 
ATOM      3  O   UNL     1      -5.370   3.967  25.473  0.00  0.00    -0.273 OA
ATOM      4  N   UNL     1      -4.306   3.114  25.047  0.00  0.00    -0.203 NA
ENDBRANCH   5   4
ENDBRANCH   6   5
BRANCH   9  10
ATOM     10  N   UNL     1      -4.451  -0.391  24.945  0.00  0.00    -0.216 NA
BRANCH  10  11
ATOM     11  C   UNL     1      -3.800  -0.889  24.852  0.00  0.00    +0.076 C 
ATOM     12  C   UNL     1      -3.166  -0.843  25.377  0.00  0.00    +0.039 C 
ATOM     13  C   UNL     1      -2.515  -1.341  25.284  0.00  0.00    +0.095 C 
ATOM     14  N   UNL     1      -2.500  -1.887  24.666  0.00  0.00    -0.279 N 
ATOM     15  C   UNL     1      -3.134  -1.934  24.141  0.00  0.00    +0.095 C 
ATOM     16  C   UNL     1      -3.784  -1.436  24.234  0.00  0.00    +0.039 C 
ATOM     17  C   UNL     1      -1.849  -2.386  24.573  0.00  0.00    +0.226 C 
ATOM     18  C   UNL     1      -1.214  -2.339  25.099  0.00  0.00    +0.095 C 
ATOM     19  O   UNL     1      -1.833  -2.932  23.955  0.00  0.00    -0.275 OA
ENDBRANCH  10  11
ENDBRANCH   9  10
TORSDOF 4
ENDMDL
MODEL 7
REMARK VINA RESULT:      -7.4      2.470      3.186
REMARK  Name = 
REMARK  4 active torsions:
REMARK  status: ('A' for Active; 'I' for Inactive)
REMARK    1  A    between atoms: N_4  and  C_5
REMARK    2  A    between atoms: C_5  and  C_6
REMARK    3  A    between atoms: C_9  and  N_10
REMARK    4  A    between atoms: N_10  and  C_11
REMARK                            x       y       z     vdW  Elec       q    Type
REMARK                         _______ _______ _______ _____ _____    ______ ____
ROOT
ATOM      6  C   UNL     1      -3.419   2.915  24.786  0.00  0.00    +0.169 C 
ATOM      7  O   UNL     1      -3.404   2.451  24.104  0.00  0.00    -0.350 OA
ATOM      8  C   UNL     1      -2.639   2.155  24.014  0.00  0.00    +0.162 C 
ATOM      9  C   UNL     1      -2.181   2.436  24.640  0.00  0.00    +0.135 C 
ATOM     20  C   UNL     1      -2.663   2.906  25.118  0.00  0.00    +0.199 C 
ATOM     21  O   UNL     1      -2.431   3.298  25.805  0.00  0.00    -0.219 OA
ENDROOT
BRANCH   6   5
ATOM      5  C   UNL     1      -4.075   3.318  25.084  0.00  0.00    +0.147 C 
BRANCH   5   4
ATOM      1  C   UNL     1      -6.127   2.897  25.698  0.00  0.00    +0.096 C 
ATOM      2  C   UNL     1      -5.439   3.312  25.508  0.00  0.00    +0.242 C 
ATOM      3  O   UNL     1      -5.430   4.136  25.550  0.00  0.00    -0.273 OA
ATOM      4  N   UNL     1      -4.761   2.903  25.275  0.00  0.00    -0.203 NA
ENDBRANCH   5   4
ENDBRANCH   6   5
BRANCH   9  10
ATOM     10  N   UNL     1      -1.382   2.276  24.767  0.00  0.00    -0.216 NA
BRANCH  10  11
ATOM     11  C   UNL     1      -1.097   1.507  24.684  0.00  0.00    +0.076 C 
ATOM     12  C   UNL     1      -1.237   0.949  25.275  0.00  0.00    +0.039 C 
ATOM     13  C   UNL     1      -0.951   0.179  25.191  0.00  0.00    +0.095 C 
ATOM     14  N   UNL     1      -0.527  -0.032  24.516  0.00  0.00    -0.279 N 
ATOM     15  C   UNL     1      -0.388   0.526  23.925  0.00  0.00    +0.095 C 
ATOM     16  C   UNL     1      -0.672   1.295  24.008  0.00  0.00    +0.039 C 
ATOM     17  C   UNL     1      -0.241  -0.802  24.433  0.00  0.00    +0.226 C 
ATOM     18  C   UNL     1      -0.381  -1.361  25.025  0.00  0.00    +0.095 C 
ATOM     19  O   UNL     1       0.183  -1.014  23.758  0.00  0.00    -0.275 OA
ENDBRANCH  10  11
ENDBRANCH   9  10
TORSDOF 4
ENDMDL
MODEL 8
REMARK VINA RESULT:      -7.1     18.143     19.621
REMARK  Name = 
REMARK  4 active torsions:
REMARK  status: ('A' for Active; 'I' for Inactive)
REMARK    1  A    between atoms: N_4  and  C_5
REMARK    2  A    between atoms: C_5  and  C_6
REMARK    3  A    between atoms: C_9  and  N_10
REMARK    4  A    between atoms: N_10  and  C_11
REMARK                            x       y       z     vdW  Elec       q    Type
REMARK                         _______ _______ _______ _____ _____    ______ ____
ROOT
ATOM      6  C   UNL     1      12.471   7.920  18.216  0.00  0.00    +0.169 C 
ATOM      7  O   UNL     1      13.141   8.395  18.143  0.00  0.00    -0.350 OA
ATOM      8  C   UNL     1      13.679   8.170  18.728  0.00  0.00    +0.162 C 
ATOM      9  C   UNL     1      13.340   7.556  19.162  0.00  0.00    +0.135 C 
ATOM     20  C   UNL     1      12.593   7.401  18.846  0.00  0.00    +0.199 C 
ATOM     21  O   UNL     1      12.063   6.829  19.112  0.00  0.00    -0.219 OA
ENDROOT
BRANCH   6   5
ATOM      5  C   UNL     1      11.796   7.958  17.742  0.00  0.00    +0.147 C 
BRANCH   5   4
ATOM      1  C   UNL     1      11.050   9.070  16.019  0.00  0.00    +0.096 C 
ATOM      2  C   UNL     1      11.091   8.524  16.637  0.00  0.00    +0.242 C 
ATOM      3  O   UNL     1      10.468   7.998  16.764  0.00  0.00    -0.273 OA
ATOM      4  N   UNL     1      11.755   8.503  17.126  0.00  0.00    -0.203 NA
ENDBRANCH   5   4
ENDBRANCH   6   5
BRANCH   9  10
ATOM     10  N   UNL     1      13.686   7.164  19.800  0.00  0.00    -0.216 NA
BRANCH  10  11
ATOM     11  C   UNL     1      14.507   7.148  19.878  0.00  0.00    +0.076 C 
ATOM     12  C   UNL     1      14.941   6.534  19.541  0.00  0.00    +0.039 C 
ATOM     13  C   UNL     1      15.763   6.518  19.619  0.00  0.00    +0.095 C 
ATOM     14  N   UNL     1      16.149   7.116  20.035  0.00  0.00    -0.279 N 
ATOM     15  C   UNL     1      15.715   7.731  20.372  0.00  0.00    +0.095 C 
ATOM     16  C   UNL     1      14.894   7.747  20.294  0.00  0.00    +0.039 C 
ATOM     17  C   UNL     1      16.971   7.100  20.113  0.00  0.00    +0.226 C 
ATOM     18  C   UNL     1      17.405   6.485  19.775  0.00  0.00    +0.095 C 
ATOM     19  O   UNL     1      17.357   7.698  20.529  0.00  0.00    -0.275 OA
ENDBRANCH  10  11
ENDBRANCH   9  10
TORSDOF 4
ENDMDL
