MODEL 1
REMARK VINA RESULT:     -10.2      0.000      0.000
REMARK  Name = 
REMARK  7 active torsions:
REMARK  status: ('A' for Active; 'I' for Inactive)
REMARK    1  A    between atoms: O_2  and  C_3
REMARK    2  A    between atoms: C_6  and  C_7
REMARK    3  A    between atoms: C_7  and  N_8
REMARK    4  A    between atoms: N_8  and  C_9
REMARK    5  A    between atoms: C_9  and  C_10
REMARK    6  A    between atoms: C_17  and  C_18
REMARK    7  A    between atoms: C_20  and  C_24
REMARK                            x       y       z     vdW  Elec       q    Type
REMARK                         _______ _______ _______ _____ _____    ______ ____
ROOT
ATOM     10  C   UNL     1       0.090   0.310  23.535  0.00  0.00    +0.075 C 
ATOM     11  C   UNL     1      -0.266   0.298  24.227  0.00  0.00    +0.018 C 
ATOM     12  C   UNL     1      -0.900   0.755  24.439  0.00  0.00    +0.010 C 
ATOM     13  C   UNL     1      -1.162   0.591  25.281  0.00  0.00    +0.018 C 
ATOM     14  C   UNL     1      -0.792   0.517  24.747  0.00  0.00    +0.072 C 
ATOM     15  N   UNL     1      -0.557   0.772  23.758  0.00  0.00    -0.272 NA
ATOM     16  C   UNL     1      -1.040   1.404  23.311  0.00  0.00    +0.078 C 
ATOM     17  C   UNL     1      -1.360   1.362  24.003  0.00  0.00    +0.056 C 
ENDROOT
BRANCH  17  18
ATOM     18  C   UNL     1      -2.005   1.796  24.281  0.00  0.00    +0.058 A 
ATOM     19  C   UNL     1      -2.760   1.500  24.431  0.00  0.00    +0.031 A 
ATOM     20  C   UNL     1      -3.228   2.122  24.701  0.00  0.00    +0.079 A 
ATOM     21  N   UNL     1      -2.762   2.803  24.719  0.00  0.00    -0.174 NA
ATOM     22  N   UNL     1      -2.005   2.601  24.460  0.00  0.00    -0.253 N 
ATOM     23  C   UNL     1      -1.363   3.114  24.390  0.00  0.00    +0.153 C 
BRANCH  20  24
ATOM     24  C   UNL     1      -4.023   2.074  24.916  0.00  0.00    +0.042 C 
ATOM     25  C   UNL     1      -4.384   2.705  25.306  0.00  0.00    +0.006 C 
ATOM     26  C   UNL     1      -5.179   2.657  25.521  0.00  0.00    +0.000 C 
ATOM     27  C   UNL     1      -5.614   1.977  25.347  0.00  0.00    +0.000 C 
ATOM     28  C   UNL     1      -5.252   1.346  24.957  0.00  0.00    +0.000 C 
ATOM     29  C   UNL     1      -4.457   1.394  24.742  0.00  0.00    +0.006 C 
ENDBRANCH  20  24
ENDBRANCH  17  18
BRANCH  10   9
ATOM      9  C   UNL     1       0.663   0.059  22.998  0.00  0.00    +0.105 C 
BRANCH   9   8
ATOM      8  N   UNL     1       1.463   0.166  23.168  0.00  0.00    -0.212 NA
BRANCH   8   7
ATOM      7  C   UNL     1       2.031   0.014  22.589  0.00  0.00    +0.115 C 
BRANCH   7   6
ATOM      3  C   UNL     1       4.429   0.364  23.090  0.00  0.00    +0.139 A 
ATOM      4  C   UNL     1       3.978   0.983  22.784  0.00  0.00    +0.037 A 
ATOM      5  C   UNL     1       3.178   0.866  22.617  0.00  0.00    +0.000 A 
ATOM      6  C   UNL     1       2.831   0.131  22.756  0.00  0.00    -0.005 A 
ATOM     30  C   UNL     1       3.283  -0.488  23.062  0.00  0.00    +0.000 A 
ATOM     31  C   UNL     1       4.082  -0.371  23.229  0.00  0.00    +0.037 A 
BRANCH   3   2
ATOM      1  C   UNL     1       5.578   0.089  23.893  0.00  0.00    +0.252 C 
ATOM      2  O   UNL     1       5.229   0.481  23.257  0.00  0.00    -0.471 OA
ENDBRANCH   3   2
ENDBRANCH   7   6
ENDBRANCH   8   7
ENDBRANCH   9   8
ENDBRANCH  10   9
TORSDOF 7
ENDMDL
MODEL 2
REMARK VINA RESULT:      -9.3      4.091      5.483
REMARK  Name = 
REMARK  7 active torsions:
REMARK  status: ('A' for Active; 'I' for Inactive)
REMARK    1  A    between atoms: O_2  and  C_3
REMARK    2  A    between atoms: C_6  and  C_7
REMARK    3  A    between atoms: C_7  and  N_8
REMARK    4  A    between atoms: N_8  and  C_9
REMARK    5  A    between atoms: C_9  and  C_10
REMARK    6  A    between atoms: C_17  and  C_18
REMARK    7  A    between atoms: C_20  and  C_24
REMARK                            x       y       z     vdW  Elec       q    Type
REMARK                         _______ _______ _______ _____ _____    ______ ____
ROOT
ATOM     10  C   UNL     1      -4.696   1.179  24.603  0.00  0.00    +0.075 C 
ATOM     11  C   UNL     1      -4.600   1.839  24.201  0.00  0.00    +0.018 C 
ATOM     12  C   UNL     1      -4.157   2.474  24.438  0.00  0.00    +0.010 C 
ATOM     13  C   UNL     1      -4.174   3.136  23.833  0.00  0.00    +0.018 C 
ATOM     14  C   UNL     1      -4.323   2.549  24.076  0.00  0.00    +0.072 C 
ATOM     15  N   UNL     1      -4.246   1.831  24.837  0.00  0.00    -0.272 NA
ATOM     16  C   UNL     1      -3.748   1.992  25.584  0.00  0.00    +0.078 C 
ATOM     17  C   UNL     1      -3.679   2.623  25.159  0.00  0.00    +0.056 C 
ENDROOT
BRANCH  17  18
ATOM     18  C   UNL     1      -3.247   3.302  25.340  0.00  0.00    +0.058 A 
ATOM     19  C   UNL     1      -2.562   3.556  24.957  0.00  0.00    +0.031 A 
ATOM     20  C   UNL     1      -2.315   4.256  25.316  0.00  0.00    +0.079 A 
ATOM     21  N   UNL     1      -2.847   4.435  25.920  0.00  0.00    -0.174 NA
ATOM     22  N   UNL     1      -3.424   3.845  25.935  0.00  0.00    -0.253 N 
ATOM     23  C   UNL     1      -4.064   3.805  26.454  0.00  0.00    +0.153 C 
BRANCH  20  24
ATOM     24  C   UNL     1      -1.652   4.701  25.107  0.00  0.00    +0.042 C 
ATOM     25  C   UNL     1      -0.931   4.325  24.963  0.00  0.00    +0.006 C 
ATOM     26  C   UNL     1      -0.268   4.769  24.755  0.00  0.00    +0.000 C 
ATOM     27  C   UNL     1      -0.325   5.590  24.690  0.00  0.00    +0.000 C 
ATOM     28  C   UNL     1      -1.046   5.966  24.834  0.00  0.00    +0.000 C 
ATOM     29  C   UNL     1      -1.708   5.521  25.042  0.00  0.00    +0.006 C 
ENDBRANCH  20  24
ENDBRANCH  17  18
BRANCH  10   9
ATOM      9  C   UNL     1      -5.004   0.422  24.711  0.00  0.00    +0.105 C 
BRANCH   9   8
ATOM      8  N   UNL     1      -4.636  -0.228  24.361  0.00  0.00    -0.212 NA
BRANCH   8   7
ATOM      7  C   UNL     1      -4.673  -0.968  24.723  0.00  0.00    +0.115 C 
BRANCH   7   6
ATOM      3  C   UNL     1      -2.798  -2.563  24.475  0.00  0.00    +0.139 A 
ATOM      4  C   UNL     1      -3.398  -2.542  23.910  0.00  0.00    +0.037 A 
ATOM      5  C   UNL     1      -4.023  -2.010  23.992  0.00  0.00    +0.000 A 
ATOM      6  C   UNL     1      -4.048  -1.500  24.641  0.00  0.00    -0.005 A 
ATOM     30  C   UNL     1      -3.448  -1.522  25.206  0.00  0.00    +0.000 A 
ATOM     31  C   UNL     1      -2.823  -2.053  25.123  0.00  0.00    +0.037 A 
BRANCH   3   2
ATOM      1  C   UNL     1      -1.398  -2.816  24.346  0.00  0.00    +0.252 C 
ATOM      2  O   UNL     1      -2.173  -3.095  24.392  0.00  0.00    -0.471 OA
ENDBRANCH   3   2
ENDBRANCH   7   6
ENDBRANCH   8   7
ENDBRANCH   9   8
ENDBRANCH  10   9
TORSDOF 7
ENDMDL
MODEL 3
REMARK VINA RESULT:      -6.3     15.920     17.815
REMARK  Name = 
REMARK  7 active torsions:
REMARK  status: ('A' for Active; 'I' for Inactive)
REMARK    1  A    between atoms: O_2  and  C_3
REMARK    2  A    between atoms: C_6  and  C_7
REMARK    3  A    between atoms: C_7  and  N_8
REMARK    4  A    between atoms: N_8  and  C_9
REMARK    5  A    between atoms: C_9  and  C_10
REMARK    6  A    between atoms: C_17  and  C_18
REMARK    7  A    between atoms: C_20  and  C_24
REMARK                            x       y       z     vdW  Elec       q    Type
REMARK                         _______ _______ _______ _____ _____    ______ ____
ROOT
ATOM     10  C   UNL     1      -7.383  -9.706  12.683  0.00  0.00    +0.075 C 
ATOM     11  C   UNL     1      -6.940  -9.165  12.340  0.00  0.00    +0.018 C 
ATOM     12  C   UNL     1      -6.239  -9.302  11.960  0.00  0.00    +0.010 C 
ATOM     13  C   UNL     1      -5.884  -8.546  11.632  0.00  0.00    +0.018 C 
ATOM     14  C   UNL     1      -6.328  -8.908  11.946  0.00  0.00    +0.072 C 
ATOM     15  N   UNL     1      -6.667  -9.837  12.294  0.00  0.00    -0.272 NA
ATOM     16  C   UNL     1      -6.185 -10.597  12.142  0.00  0.00    +0.078 C 
ATOM     17  C   UNL     1      -5.780 -10.037  11.818  0.00  0.00    +0.056 C 
ENDROOT
BRANCH  17  18
ATOM     18  C   UNL     1      -5.062 -10.107  11.417  0.00  0.00    +0.058 A 
ATOM     19  C   UNL     1      -4.327  -9.850  11.691  0.00  0.00    +0.031 A 
ATOM     20  C   UNL     1      -3.764 -10.031  11.117  0.00  0.00    +0.079 A 
ATOM     21  N   UNL     1      -4.150 -10.400  10.488  0.00  0.00    -0.174 NA
ATOM     22  N   UNL     1      -4.953 -10.448  10.674  0.00  0.00    -0.253 N 
ATOM     23  C   UNL     1      -5.542 -10.777  10.200  0.00  0.00    +0.153 C 
BRANCH  20  24
ATOM     24  C   UNL     1      -2.956  -9.871  11.162  0.00  0.00    +0.042 C 
ATOM     25  C   UNL     1      -2.618  -9.308  10.662  0.00  0.00    +0.006 C 
ATOM     26  C   UNL     1      -1.810  -9.148  10.707  0.00  0.00    +0.000 C 
ATOM     27  C   UNL     1      -1.339  -9.550  11.252  0.00  0.00    +0.000 C 
ATOM     28  C   UNL     1      -1.677 -10.114  11.752  0.00  0.00    +0.000 C 
ATOM     29  C   UNL     1      -2.485 -10.273  11.707  0.00  0.00    +0.006 C 
ENDBRANCH  20  24
ENDBRANCH  17  18
BRANCH  10   9
ATOM      9  C   UNL     1      -8.047  -9.954  13.104  0.00  0.00    +0.105 C 
BRANCH   9   8
ATOM      8  N   UNL     1      -8.394  -9.453  13.660  0.00  0.00    -0.212 NA
BRANCH   8   7
ATOM      7  C   UNL     1      -8.943  -9.752  14.199  0.00  0.00    +0.115 C 
BRANCH   7   6
ATOM      3  C   UNL     1      -9.766  -8.326  16.046  0.00  0.00    +0.139 A 
ATOM      4  C   UNL     1      -9.151  -8.860  16.180  0.00  0.00    +0.037 A 
ATOM      5  C   UNL     1      -8.877  -9.336  15.564  0.00  0.00    +0.000 A 
ATOM      6  C   UNL     1      -9.217  -9.277  14.814  0.00  0.00    -0.005 A 
ATOM     30  C   UNL     1      -9.831  -8.743  14.681  0.00  0.00    +0.000 A 
ATOM     31  C   UNL     1     -10.105  -8.267  15.297  0.00  0.00    +0.037 A 
BRANCH   3   2
ATOM      1  C   UNL     1      -9.951  -8.100  17.444  0.00  0.00    +0.252 C 
ATOM      2  O   UNL     1     -10.039  -7.851  16.663  0.00  0.00    -0.471 OA
ENDBRANCH   3   2
ENDBRANCH   7   6
ENDBRANCH   8   7
ENDBRANCH   9   8
ENDBRANCH  10   9
TORSDOF 7
ENDMDL
MODEL 4
REMARK VINA RESULT:      -6.2     17.635     18.359
REMARK  Name = 
REMARK  7 active torsions:
REMARK  status: ('A' for Active; 'I' for Inactive)
REMARK    1  A    between atoms: O_2  and  C_3
REMARK    2  A    between atoms: C_6  and  C_7
REMARK    3  A    between atoms: C_7  and  N_8
REMARK    4  A    between atoms: N_8  and  C_9
REMARK    5  A    between atoms: C_9  and  C_10
REMARK    6  A    between atoms: C_17  and  C_18
REMARK    7  A    between atoms: C_20  and  C_24
REMARK                            x       y       z     vdW  Elec       q    Type
REMARK                         _______ _______ _______ _____ _____    ______ ____
ROOT
ATOM     10  C   UNL     1      -5.671  -9.391   9.945  0.00  0.00    +0.075 C 
ATOM     11  C   UNL     1      -5.796  -8.731   9.552  0.00  0.00    +0.018 C 
ATOM     12  C   UNL     1      -6.513  -8.475   9.277  0.00  0.00    +0.010 C 
ATOM     13  C   UNL     1      -6.445  -7.689   8.849  0.00  0.00    +0.018 C 
ATOM     14  C   UNL     1      -6.225  -8.208   9.180  0.00  0.00    +0.072 C 
ATOM     15  N   UNL     1      -6.398  -9.123   9.661  0.00  0.00    -0.272 NA
ATOM     16  C   UNL     1      -7.239  -9.476   9.705  0.00  0.00    +0.078 C 
ATOM     17  C   UNL     1      -7.319  -8.820   9.323  0.00  0.00    +0.056 C 
ENDROOT
BRANCH  17  18
ATOM     18  C   UNL     1      -8.016  -8.503   9.017  0.00  0.00    +0.058 A 
ATOM     19  C   UNL     1      -8.319  -7.753   9.179  0.00  0.00    +0.031 A 
ATOM     20  C   UNL     1      -9.023  -7.666   8.758  0.00  0.00    +0.079 A 
ATOM     21  N   UNL     1      -9.155  -8.362   8.336  0.00  0.00    -0.174 NA
ATOM     22  N   UNL     1      -8.533  -8.880   8.495  0.00  0.00    -0.253 N 
ATOM     23  C   UNL     1      -8.442  -9.640   8.188  0.00  0.00    +0.153 C 
BRANCH  20  24
ATOM     24  C   UNL     1      -9.510  -7.000   8.759  0.00  0.00    +0.042 C 
ATOM     25  C   UNL     1     -10.232  -7.018   9.158  0.00  0.00    +0.006 C 
ATOM     26  C   UNL     1     -10.719  -6.352   9.158  0.00  0.00    +0.000 C 
ATOM     27  C   UNL     1     -10.485  -5.668   8.761  0.00  0.00    +0.000 C 
ATOM     28  C   UNL     1      -9.762  -5.651   8.362  0.00  0.00    +0.000 C 
ATOM     29  C   UNL     1      -9.275  -6.316   8.361  0.00  0.00    +0.006 C 
ENDBRANCH  20  24
ENDBRANCH  17  18
BRANCH  10   9
ATOM      9  C   UNL     1      -5.190  -9.934  10.337  0.00  0.00    +0.105 C 
BRANCH   9   8
ATOM      8  N   UNL     1      -4.376  -9.809  10.378  0.00  0.00    -0.212 NA
BRANCH   8   7
ATOM      7  C   UNL     1      -3.901 -10.327  10.811  0.00  0.00    +0.115 C 
BRANCH   7   6
ATOM      3  C   UNL     1      -1.594  -9.671  11.420  0.00  0.00    +0.139 A 
ATOM      4  C   UNL     1      -2.014  -9.231  10.863  0.00  0.00    +0.037 A 
ATOM      5  C   UNL     1      -2.783  -9.450  10.659  0.00  0.00    +0.000 A 
ATOM      6  C   UNL     1      -3.132 -10.108  11.014  0.00  0.00    -0.005 A 
ATOM     30  C   UNL     1      -2.711 -10.548  11.571  0.00  0.00    +0.000 A 
ATOM     31  C   UNL     1      -1.942 -10.329  11.774  0.00  0.00    +0.037 A 
BRANCH   3   2
ATOM      1  C   UNL     1      -0.380  -8.987  11.106  0.00  0.00    +0.252 C 
ATOM      2  O   UNL     1      -0.825  -9.452  11.623  0.00  0.00    -0.471 OA
ENDBRANCH   3   2
ENDBRANCH   7   6
ENDBRANCH   8   7
ENDBRANCH   9   8
ENDBRANCH  10   9
TORSDOF 7
ENDMDL
