MODEL 1
REMARK VINA RESULT:      -9.8      0.000      0.000
REMARK  Name = 
REMARK  9 active torsions:
REMARK  status: ('A' for Active; 'I' for Inactive)
REMARK    1  A    between atoms: N_2  and  C_4
REMARK    2  A    between atoms: C_7  and  C_10
REMARK    3  A    between atoms: N_15  and  S_32
REMARK    4  A    between atoms: C_16  and  C_18
REMARK    5  A    between atoms: N_20  and  C_21
REMARK    6  A    between atoms: C_21  and  C_22
REMARK    7  A    between atoms: C_21  and  C_29
REMARK    8  A    between atoms: C_22  and  C_23
REMARK    9  A    between atoms: S_32  and  C_35
REMARK                            x       y       z     vdW  Elec       q    Type
REMARK                         _______ _______ _______ _____ _____    ______ ____
ROOT
ATOM     10  C   UNL     1      -3.943   1.485  25.038  0.00  0.00    +0.249 C 
ATOM     11  O   UNL     1      -4.344   0.776  25.169  0.00  0.00    -0.270 OA
ATOM     12  N   UNL     1      -3.145   1.476  24.830  0.00  0.00    -0.273 N 
ATOM     13  C   UNL     1      -2.745   2.185  24.699  0.00  0.00    +0.113 C 
ATOM     14  C   UNL     1      -1.947   2.177  24.490  0.00  0.00    +0.118 C 
ATOM     15  N   UNL     1      -1.549   1.458  24.413  0.00  0.00    -0.145 NA
ATOM     16  C   UNL     1      -1.949   0.748  24.544  0.00  0.00    +0.177 C 
ATOM     17  C   UNL     1      -2.747   0.758  24.752  0.00  0.00    +0.121 C 
ENDROOT
BRANCH  10   7
ATOM      4  C   UNL     1      -5.137   3.641  25.270  0.00  0.00    +0.048 A 
ATOM      5  C   UNL     1      -4.734   3.322  25.914  0.00  0.00    +0.015 A 
ATOM      6  C   UNL     1      -4.336   2.603  25.837  0.00  0.00    +0.006 A 
ATOM      7  C   UNL     1      -4.341   2.204  25.115  0.00  0.00    +0.054 A 
ATOM      8  C   UNL     1      -4.744   2.524  24.470  0.00  0.00    +0.006 A 
ATOM      9  C   UNL     1      -5.142   3.242  24.547  0.00  0.00    +0.015 A 
BRANCH   4   2
ATOM      1  C   UNL     1      -5.200   5.052  25.046  0.00  0.00    +0.112 C 
ATOM      2  N   UNL     1      -5.534   4.359  25.347  0.00  0.00    -0.304 N 
ATOM      3  C   UNL     1      -6.267   4.387  25.726  0.00  0.00    +0.112 C 
ENDBRANCH   4   2
ENDBRANCH  10   7
BRANCH  16  18
ATOM     18  C   UNL     1      -1.551   0.030  24.467  0.00  0.00    +0.260 C 
ATOM     19  O   UNL     1      -0.955  -0.053  23.903  0.00  0.00    -0.272 OA
ATOM     20  N   UNL     1      -1.750  -0.606  24.954  0.00  0.00    -0.197 NA
BRANCH  20  21
ATOM     21  C   UNL     1      -1.352  -1.325  24.876  0.00  0.00    +0.174 C 
BRANCH  21  29
ATOM     29  C   UNL     1      -0.685  -1.479  25.338  0.00  0.00    +0.281 C 
ATOM     30  N   UNL     1      -0.011  -1.806  24.992  0.00  0.00    -0.086 NA
ATOM     31  O   UNL     1      -0.693  -1.306  26.144  0.00  0.00    -0.270 OA
ENDBRANCH  21  29
BRANCH  21  22
ATOM     22  C   UNL     1      -1.621  -1.890  24.338  0.00  0.00    +0.031 C 
BRANCH  22  23
ATOM     23  C   UNL     1      -2.346  -2.264  24.459  0.00  0.00    +0.002 C 
ATOM     24  C   UNL     1      -2.885  -2.327  23.838  0.00  0.00    +0.000 C 
ATOM     25  C   UNL     1      -3.611  -2.701  23.959  0.00  0.00    +0.000 C 
ATOM     26  C   UNL     1      -3.797  -3.012  24.701  0.00  0.00    +0.000 C 
ATOM     27  C   UNL     1      -3.257  -2.947  25.322  0.00  0.00    +0.000 C 
ATOM     28  C   UNL     1      -2.531  -2.573  25.201  0.00  0.00    +0.000 C 
ENDBRANCH  22  23
ENDBRANCH  21  22
ENDBRANCH  20  21
ENDBRANCH  16  18
BRANCH  15  32
ATOM     32  S   UNL     1      -0.751   1.448  24.205  0.00  0.00    +0.064 S 
ATOM     33  O   UNL     1       0.048   1.440  23.997  0.00  0.00    -0.153 OA
ATOM     34  O   UNL     1      -0.911   0.897  23.613  0.00  0.00    -0.153 OA
BRANCH  32  35
ATOM     35  C   UNL     1      -0.590   2.001  24.797  0.00  0.00    +0.122 A 
ATOM     36  C   UNL     1      -0.642   2.807  24.633  0.00  0.00    +0.020 A 
ATOM     37  C   UNL     1      -0.481   3.360  25.226  0.00  0.00    +0.001 A 
ATOM     38  C   UNL     1      -0.268   3.104  25.981  0.00  0.00    +0.000 A 
ATOM     39  C   UNL     1      -0.216   2.297  26.144  0.00  0.00    +0.001 A 
ATOM     40  C   UNL     1      -0.377   1.745  25.552  0.00  0.00    +0.020 A 
ENDBRANCH  32  35
ENDBRANCH  15  32
TORSDOF 9
ENDMDL
MODEL 2
REMARK VINA RESULT:      -9.7      1.777      5.279
REMARK  Name = 
REMARK  9 active torsions:
REMARK  status: ('A' for Active; 'I' for Inactive)
REMARK    1  A    between atoms: N_2  and  C_4
REMARK    2  A    between atoms: C_7  and  C_10
REMARK    3  A    between atoms: N_15  and  S_32
REMARK    4  A    between atoms: C_16  and  C_18
REMARK    5  A    between atoms: N_20  and  C_21
REMARK    6  A    between atoms: C_21  and  C_22
REMARK    7  A    between atoms: C_21  and  C_29
REMARK    8  A    between atoms: C_22  and  C_23
REMARK    9  A    between atoms: S_32  and  C_35
REMARK                            x       y       z     vdW  Elec       q    Type
REMARK                         _______ _______ _______ _____ _____    ______ ____
ROOT
ATOM     10  C   UNL     1      -2.731   0.101  24.860  0.00  0.00    +0.249 C 
ATOM     11  O   UNL     1      -1.946   0.201  25.095  0.00  0.00    -0.270 OA
ATOM     12  N   UNL     1      -3.214   0.758  24.744  0.00  0.00    -0.273 N 
ATOM     13  C   UNL     1      -3.998   0.658  24.509  0.00  0.00    +0.113 C 
ATOM     14  C   UNL     1      -4.482   1.316  24.393  0.00  0.00    +0.118 C 
ATOM     15  N   UNL     1      -4.182   2.074  24.513  0.00  0.00    -0.145 NA
ATOM     16  C   UNL     1      -3.397   2.176  24.749  0.00  0.00    +0.177 C 
ATOM     17  C   UNL     1      -2.914   1.517  24.864  0.00  0.00    +0.121 C 
ENDROOT
BRANCH  10   7
ATOM      4  C   UNL     1      -3.632  -2.176  24.500  0.00  0.00    +0.048 A 
ATOM      5  C   UNL     1      -3.360  -1.735  23.859  0.00  0.00    +0.015 A 
ATOM      6  C   UNL     1      -3.060  -0.976  23.979  0.00  0.00    +0.006 A 
ATOM      7  C   UNL     1      -3.031  -0.658  24.740  0.00  0.00    +0.054 A 
ATOM      8  C   UNL     1      -3.304  -1.101  25.381  0.00  0.00    +0.006 A 
ATOM      9  C   UNL     1      -3.604  -1.860  25.261  0.00  0.00    +0.015 A 
BRANCH   4   2
ATOM      1  C   UNL     1      -3.623  -3.573  24.803  0.00  0.00    +0.112 C 
ATOM      2  N   UNL     1      -3.932  -2.935  24.379  0.00  0.00    -0.304 N 
ATOM      3  C   UNL     1      -4.541  -3.057  23.837  0.00  0.00    +0.112 C 
ENDBRANCH   4   2
ENDBRANCH  10   7
BRANCH  16  18
ATOM     18  C   UNL     1      -3.097   2.934  24.869  0.00  0.00    +0.260 C 
ATOM     19  O   UNL     1      -3.377   3.565  24.417  0.00  0.00    -0.272 OA
ATOM     20  N   UNL     1      -2.516   3.062  25.441  0.00  0.00    -0.197 NA
BRANCH  20  21
ATOM     21  C   UNL     1      -2.216   3.821  25.561  0.00  0.00    +0.174 C 
BRANCH  21  29
ATOM     29  C   UNL     1      -2.587   4.332  26.093  0.00  0.00    +0.281 C 
ATOM     30  N   UNL     1      -2.706   5.123  25.890  0.00  0.00    -0.086 NA
ATOM     31  O   UNL     1      -2.836   4.052  26.828  0.00  0.00    -0.270 OA
ENDBRANCH  21  29
BRANCH  21  22
ATOM     22  C   UNL     1      -1.546   4.070  25.150  0.00  0.00    +0.031 C 
BRANCH  22  23
ATOM     23  C   UNL     1      -0.847   3.634  25.197  0.00  0.00    +0.002 C 
ATOM     24  C   UNL     1      -0.430   3.448  24.510  0.00  0.00    +0.000 C 
ATOM     25  C   UNL     1       0.269   3.012  24.557  0.00  0.00    +0.000 C 
ATOM     26  C   UNL     1       0.551   2.762  25.292  0.00  0.00    +0.000 C 
ATOM     27  C   UNL     1       0.133   2.948  25.978  0.00  0.00    +0.000 C 
ATOM     28  C   UNL     1      -0.566   3.384  25.931  0.00  0.00    +0.000 C 
ENDBRANCH  22  23
ENDBRANCH  21  22
ENDBRANCH  20  21
ENDBRANCH  16  18
BRANCH  15  32
ATOM     32  S   UNL     1      -4.665   2.733  24.398  0.00  0.00    +0.064 S 
ATOM     33  O   UNL     1      -5.150   3.391  24.283  0.00  0.00    -0.153 OA
ATOM     34  O   UNL     1      -4.104   3.057  23.889  0.00  0.00    -0.153 OA
BRANCH  32  35
ATOM     35  C   UNL     1      -5.228   2.409  24.907  0.00  0.00    +0.122 A 
ATOM     36  C   UNL     1      -5.780   1.867  24.620  0.00  0.00    +0.020 A 
ATOM     37  C   UNL     1      -6.343   1.543  25.130  0.00  0.00    +0.001 A 
ATOM     38  C   UNL     1      -6.353   1.760  25.926  0.00  0.00    +0.000 A 
ATOM     39  C   UNL     1      -5.800   2.302  26.212  0.00  0.00    +0.001 A 
ATOM     40  C   UNL     1      -5.238   2.626  25.703  0.00  0.00    +0.020 A 
ENDBRANCH  32  35
ENDBRANCH  15  32
TORSDOF 9
ENDMDL
MODEL 3
REMARK VINA RESULT:      -9.5      2.179      4.528
REMARK  Name = 
REMARK  9 active torsions:
REMARK  status: ('A' for Active; 'I' for Inactive)
REMARK    1  A    between atoms: N_2  and  C_4
REMARK    2  A    between atoms: C_7  and  C_10
REMARK    3  A    between atoms: N_15  and  S_32
REMARK    4  A    between atoms: C_16  and  C_18
REMARK    5  A    between atoms: N_20  and  C_21
REMARK    6  A    between atoms: C_21  and  C_22
REMARK    7  A    between atoms: C_21  and  C_29
REMARK    8  A    between atoms: C_22  and  C_23
REMARK    9  A    between atoms: S_32  and  C_35
REMARK                            x       y       z     vdW  Elec       q    Type
REMARK                         _______ _______ _______ _____ _____    ______ ____
ROOT
ATOM     10  C   UNL     1       0.020  -0.129  23.473  0.00  0.00    +0.249 C 
ATOM     11  O   UNL     1      -0.207  -0.915  23.581  0.00  0.00    -0.270 OA
ATOM     12  N   UNL     1      -0.535   0.475  23.551  0.00  0.00    -0.273 N 
ATOM     13  C   UNL     1      -0.308   1.260  23.443  0.00  0.00    +0.113 C 
ATOM     14  C   UNL     1      -0.864   1.865  23.521  0.00  0.00    +0.118 C 
ATOM     15  N   UNL     1      -1.647   1.684  23.707  0.00  0.00    -0.145 NA
ATOM     16  C   UNL     1      -1.875   0.898  23.815  0.00  0.00    +0.177 C 
ATOM     17  C   UNL     1      -1.318   0.294  23.737  0.00  0.00    +0.121 C 
ENDROOT
BRANCH  10   7
ATOM      4  C   UNL     1       2.370   0.414  22.916  0.00  0.00    +0.048 A 
ATOM      5  C   UNL     1       1.897   0.018  22.368  0.00  0.00    +0.015 A 
ATOM      6  C   UNL     1       1.114  -0.163  22.554  0.00  0.00    +0.006 A 
ATOM      7  C   UNL     1       0.803   0.052  23.287  0.00  0.00    +0.054 A 
ATOM      8  C   UNL     1       1.277   0.448  23.836  0.00  0.00    +0.006 A 
ATOM      9  C   UNL     1       2.060   0.629  23.650  0.00  0.00    +0.015 A 
BRANCH   4   2
ATOM      1  C   UNL     1       3.691  -0.012  22.573  0.00  0.00    +0.112 C 
ATOM      2  N   UNL     1       3.153   0.595  22.730  0.00  0.00    -0.304 N 
ATOM      3  C   UNL     1       3.399   1.381  22.701  0.00  0.00    +0.112 C 
ENDBRANCH   4   2
ENDBRANCH  10   7
BRANCH  16  18
ATOM     18  C   UNL     1      -2.658   0.717  24.001  0.00  0.00    +0.260 C 
ATOM     19  O   UNL     1      -3.272   1.147  23.658  0.00  0.00    -0.272 OA
ATOM     20  N   UNL     1      -2.825   0.106  24.530  0.00  0.00    -0.197 NA
BRANCH  20  21
ATOM     21  C   UNL     1      -3.608  -0.075  24.715  0.00  0.00    +0.174 C 
BRANCH  21  29
ATOM     29  C   UNL     1      -3.956   0.243  25.394  0.00  0.00    +0.281 C 
ATOM     30  N   UNL     1      -4.694   0.608  25.347  0.00  0.00    -0.086 NA
ATOM     31  O   UNL     1      -3.564   0.194  26.118  0.00  0.00    -0.270 OA
ENDBRANCH  21  29
BRANCH  21  22
ATOM     22  C   UNL     1      -4.045  -0.573  24.224  0.00  0.00    +0.031 C 
BRANCH  22  23
ATOM     23  C   UNL     1      -3.950  -1.391  24.276  0.00  0.00    +0.002 C 
ATOM     24  C   UNL     1      -4.260  -1.880  23.688  0.00  0.00    +0.000 C 
ATOM     25  C   UNL     1      -4.165  -2.698  23.739  0.00  0.00    +0.000 C 
ATOM     26  C   UNL     1      -3.759  -3.027  24.379  0.00  0.00    +0.000 C 
ATOM     27  C   UNL     1      -3.450  -2.537  24.966  0.00  0.00    +0.000 C 
ATOM     28  C   UNL     1      -3.545  -1.719  24.914  0.00  0.00    +0.000 C 
ENDBRANCH  22  23
ENDBRANCH  21  22
ENDBRANCH  20  21
ENDBRANCH  16  18
BRANCH  15  32
ATOM     32  S   UNL     1      -2.203   2.289  23.785  0.00  0.00    +0.064 S 
ATOM     33  O   UNL     1      -2.759   2.894  23.864  0.00  0.00    -0.153 OA
ATOM     34  O   UNL     1      -2.699   1.902  23.251  0.00  0.00    -0.153 OA
BRANCH  32  35
ATOM     35  C   UNL     1      -1.707   2.676  24.320  0.00  0.00    +0.122 A 
ATOM     36  C   UNL     1      -1.141   3.209  24.044  0.00  0.00    +0.020 A 
ATOM     37  C   UNL     1      -0.645   3.596  24.579  0.00  0.00    +0.001 A 
ATOM     38  C   UNL     1      -0.715   3.449  25.388  0.00  0.00    +0.000 A 
ATOM     39  C   UNL     1      -1.282   2.915  25.662  0.00  0.00    +0.001 A 
ATOM     40  C   UNL     1      -1.777   2.529  25.128  0.00  0.00    +0.020 A 
ENDBRANCH  32  35
ENDBRANCH  15  32
TORSDOF 9
ENDMDL
MODEL 4
REMARK VINA RESULT:      -8.6      1.601      4.785
REMARK  Name = 
REMARK  9 active torsions:
REMARK  status: ('A' for Active; 'I' for Inactive)
REMARK    1  A    between atoms: N_2  and  C_4
REMARK    2  A    between atoms: C_7  and  C_10
REMARK    3  A    between atoms: N_15  and  S_32
REMARK    4  A    between atoms: C_16  and  C_18
REMARK    5  A    between atoms: N_20  and  C_21
REMARK    6  A    between atoms: C_21  and  C_22
REMARK    7  A    between atoms: C_21  and  C_29
REMARK    8  A    between atoms: C_22  and  C_23
REMARK    9  A    between atoms: S_32  and  C_35
REMARK                            x       y       z     vdW  Elec       q    Type
REMARK                         _______ _______ _______ _____ _____    ______ ____
ROOT
ATOM     10  C   UNL     1      -3.443   0.121  24.874  0.00  0.00    +0.249 C 
ATOM     11  O   UNL     1      -4.098   0.620  24.933  0.00  0.00    -0.270 OA
ATOM     12  N   UNL     1      -2.683   0.424  24.972  0.00  0.00    -0.273 N 
ATOM     13  C   UNL     1      -2.029  -0.075  24.913  0.00  0.00    +0.113 C 
ATOM     14  C   UNL     1      -1.268   0.228  25.011  0.00  0.00    +0.118 C 
ATOM     15  N   UNL     1      -1.161   1.031  25.168  0.00  0.00    -0.145 NA
ATOM     16  C   UNL     1      -1.816   1.531  25.227  0.00  0.00    +0.177 C 
ATOM     17  C   UNL     1      -2.576   1.227  25.129  0.00  0.00    +0.121 C 
ENDROOT
BRANCH  10   7
ATOM      4  C   UNL     1      -3.764  -2.287  24.403  0.00  0.00    +0.048 A 
ATOM      5  C   UNL     1      -3.559  -2.040  25.162  0.00  0.00    +0.015 A 
ATOM      6  C   UNL     1      -3.452  -1.237  25.319  0.00  0.00    +0.006 A 
ATOM      7  C   UNL     1      -3.550  -0.682  24.717  0.00  0.00    +0.054 A 
ATOM      8  C   UNL     1      -3.756  -0.930  23.957  0.00  0.00    +0.006 A 
ATOM      9  C   UNL     1      -3.863  -1.733  23.800  0.00  0.00    +0.015 A 
BRANCH   4   2
ATOM      1  C   UNL     1      -3.470  -3.656  24.696  0.00  0.00    +0.112 C 
ATOM      2  N   UNL     1      -3.871  -3.090  24.247  0.00  0.00    -0.304 N 
ATOM      3  C   UNL     1      -4.378  -3.329  23.641  0.00  0.00    +0.112 C 
ENDBRANCH   4   2
ENDBRANCH  10   7
BRANCH  16  18
ATOM     18  C   UNL     1      -1.709   2.334  25.384  0.00  0.00    +0.260 C 
ATOM     19  O   UNL     1      -1.159   2.574  25.950  0.00  0.00    -0.272 OA
ATOM     20  N   UNL     1      -2.152   2.896  24.974  0.00  0.00    -0.197 NA
BRANCH  20  21
ATOM     21  C   UNL     1      -2.045   3.699  25.130  0.00  0.00    +0.174 C 
BRANCH  21  29
ATOM     29  C   UNL     1      -1.475   4.129  24.716  0.00  0.00    +0.281 C 
ATOM     30  N   UNL     1      -0.972   4.643  25.119  0.00  0.00    -0.086 NA
ATOM     31  O   UNL     1      -1.409   4.043  23.898  0.00  0.00    -0.270 OA
ENDBRANCH  21  29
BRANCH  21  22
ATOM     22  C   UNL     1      -2.508   4.074  25.702  0.00  0.00    +0.031 C 
BRANCH  22  23
ATOM     23  C   UNL     1      -3.329   4.087  25.624  0.00  0.00    +0.002 C 
ATOM     24  C   UNL     1      -3.807   3.897  26.270  0.00  0.00    +0.000 C 
ATOM     25  C   UNL     1      -4.628   3.911  26.193  0.00  0.00    +0.000 C 
ATOM     26  C   UNL     1      -4.971   4.114  25.470  0.00  0.00    +0.000 C 
ATOM     27  C   UNL     1      -4.493   4.303  24.826  0.00  0.00    +0.000 C 
ATOM     28  C   UNL     1      -3.672   4.290  24.903  0.00  0.00    +0.000 C 
ENDBRANCH  22  23
ENDBRANCH  21  22
ENDBRANCH  20  21
ENDBRANCH  16  18
BRANCH  15  32
ATOM     32  S   UNL     1      -0.401   1.335  25.266  0.00  0.00    +0.064 S 
ATOM     33  O   UNL     1       0.361   1.639  25.363  0.00  0.00    -0.153 OA
ATOM     34  O   UNL     1      -0.643   1.722  25.952  0.00  0.00    -0.153 OA
BRANCH  32  35
ATOM     35  C   UNL     1      -0.158   0.948  24.578  0.00  0.00    +0.122 A 
ATOM     36  C   UNL     1       0.050   0.150  24.606  0.00  0.00    +0.020 A 
ATOM     37  C   UNL     1       0.293  -0.237  23.918  0.00  0.00    +0.001 A 
ATOM     38  C   UNL     1       0.327   0.174  23.204  0.00  0.00    +0.000 A 
ATOM     39  C   UNL     1       0.119   0.972  23.177  0.00  0.00    +0.001 A 
ATOM     40  C   UNL     1      -0.124   1.359  23.863  0.00  0.00    +0.020 A 
ENDBRANCH  32  35
ENDBRANCH  15  32
TORSDOF 9
ENDMDL
MODEL 5
REMARK VINA RESULT:      -8.5      1.604      3.386
REMARK  Name = 
REMARK  9 active torsions:
REMARK  status: ('A' for Active; 'I' for Inactive)
REMARK    1  A    between atoms: N_2  and  C_4
REMARK    2  A    between atoms: C_7  and  C_10
REMARK    3  A    between atoms: N_15  and  S_32
REMARK    4  A    between atoms: C_16  and  C_18
REMARK    5  A    between atoms: N_20  and  C_21
REMARK    6  A    between atoms: C_21  and  C_22
REMARK    7  A    between atoms: C_21  and  C_29
REMARK    8  A    between atoms: C_22  and  C_23
REMARK    9  A    between atoms: S_32  and  C_35
REMARK                            x       y       z     vdW  Elec       q    Type
REMARK                         _______ _______ _______ _____ _____    ______ ____
ROOT
ATOM     10  C   UNL     1      -1.596   2.227  25.081  0.00  0.00    +0.249 C 
ATOM     11  O   UNL     1      -0.954   1.757  25.302  0.00  0.00    -0.270 OA
ATOM     12  N   UNL     1      -2.311   1.876  24.868  0.00  0.00    -0.273 N 
ATOM     13  C   UNL     1      -2.951   2.346  24.647  0.00  0.00    +0.113 C 
ATOM     14  C   UNL     1      -3.667   1.996  24.434  0.00  0.00    +0.118 C 
ATOM     15  N   UNL     1      -3.742   1.174  24.441  0.00  0.00    -0.145 NA
ATOM     16  C   UNL     1      -3.101   0.703  24.662  0.00  0.00    +0.177 C 
ATOM     17  C   UNL     1      -2.386   1.055  24.875  0.00  0.00    +0.121 C 
ENDROOT
BRANCH  10   7
ATOM      4  C   UNL     1      -1.371   4.691  25.059  0.00  0.00    +0.048 A 
ATOM      5  C   UNL     1      -1.748   4.318  25.690  0.00  0.00    +0.015 A 
ATOM      6  C   UNL     1      -1.823   3.496  25.697  0.00  0.00    +0.006 A 
ATOM      7  C   UNL     1      -1.521   3.048  25.073  0.00  0.00    +0.054 A 
ATOM      8  C   UNL     1      -1.144   3.423  24.441  0.00  0.00    +0.006 A 
ATOM      9  C   UNL     1      -1.069   4.245  24.434  0.00  0.00    +0.015 A 
BRANCH   4   2
ATOM      1  C   UNL     1      -0.574   5.860  24.855  0.00  0.00    +0.112 C 
ATOM      2  N   UNL     1      -1.297   5.513  25.051  0.00  0.00    -0.304 N 
ATOM      3  C   UNL     1      -1.944   5.988  25.239  0.00  0.00    +0.112 C 
ENDBRANCH   4   2
ENDBRANCH  10   7
BRANCH  16  18
ATOM     18  C   UNL     1      -3.175  -0.119  24.669  0.00  0.00    +0.260 C 
ATOM     19  O   UNL     1      -3.714  -0.488  24.166  0.00  0.00    -0.272 OA
ATOM     20  N   UNL     1      -2.711  -0.570  25.181  0.00  0.00    -0.197 NA
BRANCH  20  21
ATOM     21  C   UNL     1      -2.786  -1.391  25.188  0.00  0.00    +0.174 C 
BRANCH  21  29
ATOM     29  C   UNL     1      -3.316  -1.753  25.708  0.00  0.00    +0.281 C 
ATOM     30  N   UNL     1      -3.768  -2.395  25.455  0.00  0.00    -0.086 NA
ATOM     31  O   UNL     1      -3.393  -1.472  26.479  0.00  0.00    -0.270 OA
ENDBRANCH  21  29
BRANCH  21  22
ATOM     22  C   UNL     1      -2.331  -1.852  24.677  0.00  0.00    +0.031 C 
BRANCH  22  23
ATOM     23  C   UNL     1      -1.509  -1.862  24.750  0.00  0.00    +0.002 C 
ATOM     24  C   UNL     1      -1.037  -1.620  24.118  0.00  0.00    +0.000 C 
ATOM     25  C   UNL     1      -0.215  -1.630  24.190  0.00  0.00    +0.000 C 
ATOM     26  C   UNL     1       0.134  -1.880  24.895  0.00  0.00    +0.000 C 
ATOM     27  C   UNL     1      -0.339  -2.121  25.527  0.00  0.00    +0.000 C 
ATOM     28  C   UNL     1      -1.161  -2.112  25.454  0.00  0.00    +0.000 C 
ENDBRANCH  22  23
ENDBRANCH  21  22
ENDBRANCH  20  21
ENDBRANCH  16  18
BRANCH  15  32
ATOM     32  S   UNL     1      -4.457   0.823  24.228  0.00  0.00    +0.064 S 
ATOM     33  O   UNL     1      -5.173   0.472  24.016  0.00  0.00    -0.153 OA
ATOM     34  O   UNL     1      -4.055   0.311  23.722  0.00  0.00    -0.153 OA
BRANCH  32  35
ATOM     35  C   UNL     1      -4.859   1.335  24.735  0.00  0.00    +0.122 A 
ATOM     36  C   UNL     1      -5.052   1.092  25.499  0.00  0.00    +0.020 A 
ATOM     37  C   UNL     1      -5.455   1.604  26.006  0.00  0.00    +0.001 A 
ATOM     38  C   UNL     1      -5.664   2.359  25.748  0.00  0.00    +0.000 A 
ATOM     39  C   UNL     1      -5.470   2.602  24.983  0.00  0.00    +0.001 A 
ATOM     40  C   UNL     1      -5.069   2.090  24.477  0.00  0.00    +0.020 A 
ENDBRANCH  32  35
ENDBRANCH  15  32
TORSDOF 9
ENDMDL
MODEL 6
REMARK VINA RESULT:      -8.4      1.759      5.622
REMARK  Name = 
REMARK  9 active torsions:
REMARK  status: ('A' for Active; 'I' for Inactive)
REMARK    1  A    between atoms: N_2  and  C_4
REMARK    2  A    between atoms: C_7  and  C_10
REMARK    3  A    between atoms: N_15  and  S_32
REMARK    4  A    between atoms: C_16  and  C_18
REMARK    5  A    between atoms: N_20  and  C_21
REMARK    6  A    between atoms: C_21  and  C_22
REMARK    7  A    between atoms: C_21  and  C_29
REMARK    8  A    between atoms: C_22  and  C_23
REMARK    9  A    between atoms: S_32  and  C_35
REMARK                            x       y       z     vdW  Elec       q    Type
REMARK                         _______ _______ _______ _____ _____    ______ ____
ROOT
ATOM     10  C   UNL     1      -1.252   1.126  23.791  0.00  0.00    +0.249 C 
ATOM     11  O   UNL     1      -1.416   1.908  23.587  0.00  0.00    -0.270 OA
ATOM     12  N   UNL     1      -1.796   0.690  24.231  0.00  0.00    -0.273 N 
ATOM     13  C   UNL     1      -1.632  -0.091  24.434  0.00  0.00    +0.113 C 
ATOM     14  C   UNL     1      -2.177  -0.527  24.874  0.00  0.00    +0.118 C 
ATOM     15  N   UNL     1      -2.887  -0.181  25.111  0.00  0.00    -0.145 NA
ATOM     16  C   UNL     1      -3.052   0.602  24.907  0.00  0.00    +0.177 C 
ATOM     17  C   UNL     1      -2.507   1.037  24.467  0.00  0.00    +0.121 C 
ENDROOT
BRANCH  10   7
ATOM      4  C   UNL     1       0.879   0.086  23.083  0.00  0.00    +0.048 A 
ATOM      5  C   UNL     1       0.180  -0.096  22.685  0.00  0.00    +0.015 A 
ATOM      6  C   UNL     1      -0.530   0.251  22.922  0.00  0.00    +0.006 A 
ATOM      7  C   UNL     1      -0.541   0.779  23.555  0.00  0.00    +0.054 A 
ATOM      8  C   UNL     1       0.159   0.961  23.953  0.00  0.00    +0.006 A 
ATOM      9  C   UNL     1       0.870   0.614  23.716  0.00  0.00    +0.015 A 
BRANCH   4   2
ATOM      1  C   UNL     1       2.074  -0.631  23.403  0.00  0.00    +0.112 C 
ATOM      2  N   UNL     1       1.590  -0.261  22.846  0.00  0.00    -0.304 N 
ATOM      3  C   UNL     1       1.817  -0.238  22.054  0.00  0.00    +0.112 C 
ENDBRANCH   4   2
ENDBRANCH  10   7
BRANCH  16  18
ATOM     18  C   UNL     1      -3.763   0.949  25.143  0.00  0.00    +0.260 C 
ATOM     19  O   UNL     1      -4.269   0.545  25.653  0.00  0.00    -0.272 OA
ATOM     20  N   UNL     1      -3.966   1.700  24.869  0.00  0.00    -0.197 NA
BRANCH  20  21
ATOM     21  C   UNL     1      -4.676   2.047  25.105  0.00  0.00    +0.174 C 
BRANCH  21  29
ATOM     29  C   UNL     1      -5.379   1.856  24.715  0.00  0.00    +0.281 C 
ATOM     30  N   UNL     1      -6.061   1.694  25.150  0.00  0.00    -0.086 NA
ATOM     31  O   UNL     1      -5.398   1.827  23.891  0.00  0.00    -0.270 OA
ENDBRANCH  21  29
BRANCH  21  22
ATOM     22  C   UNL     1      -4.686   2.584  25.730  0.00  0.00    +0.031 C 
BRANCH  22  23
ATOM     23  C   UNL     1      -4.263   3.291  25.674  0.00  0.00    +0.002 C 
ATOM     24  C   UNL     1      -3.710   3.487  26.254  0.00  0.00    +0.000 C 
ATOM     25  C   UNL     1      -3.287   4.193  26.198  0.00  0.00    +0.000 C 
ATOM     26  C   UNL     1      -3.417   4.703  25.562  0.00  0.00    +0.000 C 
ATOM     27  C   UNL     1      -3.970   4.506  24.983  0.00  0.00    +0.000 C 
ATOM     28  C   UNL     1      -4.393   3.799  25.039  0.00  0.00    +0.000 C 
ENDBRANCH  22  23
ENDBRANCH  21  22
ENDBRANCH  20  21
ENDBRANCH  16  18
BRANCH  15  32
ATOM     32  S   UNL     1      -3.433  -0.616  25.550  0.00  0.00    +0.064 S 
ATOM     33  O   UNL     1      -3.979  -1.052  25.990  0.00  0.00    -0.153 OA
ATOM     34  O   UNL     1      -3.433  -0.030  26.131  0.00  0.00    -0.153 OA
BRANCH  32  35
ATOM     35  C   UNL     1      -3.433  -1.203  24.970  0.00  0.00    +0.122 A 
ATOM     36  C   UNL     1      -2.886  -1.819  25.008  0.00  0.00    +0.020 A 
ATOM     37  C   UNL     1      -2.886  -2.406  24.427  0.00  0.00    +0.001 A 
ATOM     38  C   UNL     1      -3.432  -2.375  23.809  0.00  0.00    +0.000 A 
ATOM     39  C   UNL     1      -3.978  -1.758  23.772  0.00  0.00    +0.001 A 
ATOM     40  C   UNL     1      -3.978  -1.172  24.352  0.00  0.00    +0.020 A 
ENDBRANCH  32  35
ENDBRANCH  15  32
TORSDOF 9
ENDMDL
MODEL 7
REMARK VINA RESULT:      -7.5      1.391      4.826
REMARK  Name = 
REMARK  9 active torsions:
REMARK  status: ('A' for Active; 'I' for Inactive)
REMARK    1  A    between atoms: N_2  and  C_4
REMARK    2  A    between atoms: C_7  and  C_10
REMARK    3  A    between atoms: N_15  and  S_32
REMARK    4  A    between atoms: C_16  and  C_18
REMARK    5  A    between atoms: N_20  and  C_21
REMARK    6  A    between atoms: C_21  and  C_22
REMARK    7  A    between atoms: C_21  and  C_29
REMARK    8  A    between atoms: C_22  and  C_23
REMARK    9  A    between atoms: S_32  and  C_35
REMARK                            x       y       z     vdW  Elec       q    Type
REMARK                         _______ _______ _______ _____ _____    ______ ____
ROOT
ATOM     10  C   UNL     1      -2.571  -0.182  25.125  0.00  0.00    +0.249 C 
ATOM     11  O   UNL     1      -3.354  -0.297  25.357  0.00  0.00    -0.270 OA
ATOM     12  N   UNL     1      -2.313   0.567  24.899  0.00  0.00    -0.273 N 
ATOM     13  C   UNL     1      -1.530   0.682  24.667  0.00  0.00    +0.113 C 
ATOM     14  C   UNL     1      -1.271   1.432  24.441  0.00  0.00    +0.118 C 
ATOM     15  N   UNL     1      -1.797   2.068  24.446  0.00  0.00    -0.145 NA
ATOM     16  C   UNL     1      -2.581   1.954  24.677  0.00  0.00    +0.177 C 
ATOM     17  C   UNL     1      -2.838   1.203  24.904  0.00  0.00    +0.121 C 
ENDROOT
BRANCH  10   7
ATOM      4  C   UNL     1      -0.994  -2.090  25.110  0.00  0.00    +0.048 A 
ATOM      5  C   UNL     1      -1.530  -1.993  24.491  0.00  0.00    +0.015 A 
ATOM      6  C   UNL     1      -2.056  -1.357  24.496  0.00  0.00    +0.006 A 
ATOM      7  C   UNL     1      -2.045  -0.818  25.120  0.00  0.00    +0.054 A 
ATOM      8  C   UNL     1      -1.508  -0.915  25.740  0.00  0.00    +0.006 A 
ATOM      9  C   UNL     1      -0.983  -1.551  25.735  0.00  0.00    +0.015 A 
BRANCH   4   2
ATOM      1  C   UNL     1       0.300  -2.629  25.390  0.00  0.00    +0.112 C 
ATOM      2  N   UNL     1      -0.469  -2.726  25.105  0.00  0.00    -0.304 N 
ATOM      3  C   UNL     1      -0.711  -3.459  24.815  0.00  0.00    +0.112 C 
ENDBRANCH   4   2
ENDBRANCH  10   7
BRANCH  16  18
ATOM     18  C   UNL     1      -3.106   2.590  24.683  0.00  0.00    +0.260 C 
ATOM     19  O   UNL     1      -3.101   3.134  24.063  0.00  0.00    -0.272 OA
ATOM     20  N   UNL     1      -3.637   2.680  25.308  0.00  0.00    -0.197 NA
BRANCH  20  21
ATOM     21  C   UNL     1      -4.163   3.316  25.313  0.00  0.00    +0.174 C 
BRANCH  21  29
ATOM     29  C   UNL     1      -3.962   4.015  25.705  0.00  0.00    +0.281 C 
ATOM     30  N   UNL     1      -4.070   4.743  25.332  0.00  0.00    -0.086 NA
ATOM     31  O   UNL     1      -3.655   3.984  26.469  0.00  0.00    -0.270 OA
ENDBRANCH  21  29
BRANCH  21  22
ATOM     22  C   UNL     1      -4.889   3.255  24.926  0.00  0.00    +0.031 C 
BRANCH  22  23
ATOM     23  C   UNL     1      -5.466   2.738  25.210  0.00  0.00    +0.002 C 
ATOM     24  C   UNL     1      -5.820   2.195  24.700  0.00  0.00    +0.000 C 
ATOM     25  C   UNL     1      -6.397   1.678  24.984  0.00  0.00    +0.000 C 
ATOM     26  C   UNL     1      -6.620   1.705  25.779  0.00  0.00    +0.000 C 
ATOM     27  C   UNL     1      -6.265   2.249  26.288  0.00  0.00    +0.000 C 
ATOM     28  C   UNL     1      -5.688   2.765  26.004  0.00  0.00    +0.000 C 
ENDBRANCH  22  23
ENDBRANCH  21  22
ENDBRANCH  20  21
ENDBRANCH  16  18
BRANCH  15  32
ATOM     32  S   UNL     1      -1.539   2.818  24.219  0.00  0.00    +0.064 S 
ATOM     33  O   UNL     1      -1.281   3.569  23.994  0.00  0.00    -0.153 OA
ATOM     34  O   UNL     1      -2.171   2.877  23.693  0.00  0.00    -0.153 OA
BRANCH  32  35
ATOM     35  C   UNL     1      -0.906   2.759  24.746  0.00  0.00    +0.122 A 
ATOM     36  C   UNL     1      -0.982   3.048  25.515  0.00  0.00    +0.020 A 
ATOM     37  C   UNL     1      -0.349   2.989  26.042  0.00  0.00    +0.001 A 
ATOM     38  C   UNL     1       0.359   2.642  25.799  0.00  0.00    +0.000 A 
ATOM     39  C   UNL     1       0.434   2.354  25.030  0.00  0.00    +0.001 A 
ATOM     40  C   UNL     1      -0.198   2.412  24.504  0.00  0.00    +0.020 A 
ENDBRANCH  32  35
ENDBRANCH  15  32
TORSDOF 9
ENDMDL
