MODEL 1
REMARK VINA RESULT:     -11.4      0.000      0.000
REMARK  Name = 
REMARK  9 active torsions:
REMARK  status: ('A' for Active; 'I' for Inactive)
REMARK    1  A    between atoms: C_5  and  S_7
REMARK    2  A    between atoms: S_7  and  N_10
REMARK    3  A    between atoms: N_10  and  C_11
REMARK    4  A    between atoms: C_15  and  C_17
REMARK    5  A    between atoms: N_19  and  C_20
REMARK    6  A    between atoms: C_20  and  C_21
REMARK    7  A    between atoms: C_20  and  C_28
REMARK    8  A    between atoms: C_21  and  C_22
REMARK    9  A    between atoms: C_31  and  C_33
REMARK                            x       y       z     vdW  Elec       q    Type
REMARK                         _______ _______ _______ _____ _____    ______ ____
ROOT
ATOM     11  C   UNL     1      -3.580   0.907  24.144  0.00  0.00    +0.102 C 
ATOM     12  C   UNL     1      -3.605   0.083  24.107  0.00  0.00    +0.041 C 
ATOM     13  C   UNL     1      -2.962  -0.362  24.369  0.00  0.00    +0.096 C 
ATOM     14  N   UNL     1      -2.293   0.017  24.669  0.00  0.00    -0.267 N 
ATOM     15  C   UNL     1      -2.268   0.841  24.707  0.00  0.00    +0.155 C 
ATOM     16  C   UNL     1      -2.911   1.286  24.444  0.00  0.00    +0.049 C 
ATOM     31  C   UNL     1      -1.649  -0.427  24.932  0.00  0.00    +0.284 C 
ATOM     32  O   UNL     1      -0.981  -0.048  25.231  0.00  0.00    -0.267 OA
ENDROOT
BRANCH  31  33
ATOM     33  C   UNL     1      -1.675  -1.251  24.894  0.00  0.00    +0.199 A 
ATOM     34  C   UNL     1      -1.279  -1.724  24.346  0.00  0.00    +0.045 A 
ATOM     35  C   UNL     1      -1.460  -2.511  24.511  0.00  0.00    +0.044 A 
ATOM     36  C   UNL     1      -1.968  -2.525  25.162  0.00  0.00    +0.180 A 
ATOM     37  O   UNL     1      -2.100  -1.746  25.398  0.00  0.00    -0.446 OA
ENDBRANCH  31  33
BRANCH  15  17
ATOM     17  C   UNL     1      -1.599   1.221  25.007  0.00  0.00    +0.260 C 
ATOM     18  O   UNL     1      -1.201   0.903  25.655  0.00  0.00    -0.272 OA
ATOM     19  N   UNL     1      -1.330   1.918  24.657  0.00  0.00    -0.196 NA
BRANCH  19  20
ATOM     20  C   UNL     1      -0.662   2.298  24.957  0.00  0.00    +0.179 C 
BRANCH  20  28
ATOM     28  C   UNL     1       0.081   2.147  24.629  0.00  0.00    +0.281 C 
ATOM     29  N   UNL     1       0.731   2.019  25.121  0.00  0.00    -0.086 NA
ATOM     30  O   UNL     1       0.172   2.125  23.810  0.00  0.00    -0.270 OA
ENDBRANCH  20  28
BRANCH  20  21
ATOM     21  C   UNL     1      -0.736   2.828  25.585  0.00  0.00    +0.057 C 
BRANCH  21  22
ATOM     22  C   UNL     1      -1.013   3.593  25.448  0.00  0.00    -0.020 A 
ATOM     23  C   UNL     1      -1.710   3.849  25.806  0.00  0.00    -0.004 A 
ATOM     24  C   UNL     1      -1.988   4.615  25.669  0.00  0.00    -0.000 A 
ATOM     25  C   UNL     1      -1.567   5.123  25.175  0.00  0.00    -0.000 A 
ATOM     26  C   UNL     1      -0.870   4.867  24.816  0.00  0.00    -0.000 A 
ATOM     27  C   UNL     1      -0.592   4.102  24.953  0.00  0.00    -0.004 A 
ENDBRANCH  21  22
ENDBRANCH  20  21
ENDBRANCH  19  20
ENDBRANCH  15  17
BRANCH  11  10
ATOM     10  N   UNL     1      -4.223   1.352  23.882  0.00  0.00    -0.078 NA
BRANCH  10   7
ATOM      7  S   UNL     1      -4.651   1.812  24.416  0.00  0.00    +0.095 S 
ATOM      8  O   UNL     1      -4.327   2.496  24.084  0.00  0.00    -0.150 OA
ATOM      9  O   UNL     1      -4.974   1.130  24.747  0.00  0.00    -0.150 OA
BRANCH   7   5
ATOM      1  C   UNL     1      -5.805   4.099  25.783  0.00  0.00    +0.132 C 
ATOM      2  N   UNL     1      -5.609   3.325  25.578  0.00  0.00    -0.305 N 
ATOM      3  C   UNL     1      -5.863   2.642  25.966  0.00  0.00    +0.180 A 
ATOM      4  N   UNL     1      -5.534   1.992  25.577  0.00  0.00    -0.204 NA
ATOM      5  C   UNL     1      -5.078   2.274  24.950  0.00  0.00    +0.223 A 
ATOM      6  C   UNL     1      -5.124   3.098  24.951  0.00  0.00    +0.117 A 
ENDBRANCH   7   5
ENDBRANCH  10   7
ENDBRANCH  11  10
TORSDOF 9
ENDMDL
MODEL 2
REMARK VINA RESULT:     -10.8      2.019      4.218
REMARK  Name = 
REMARK  9 active torsions:
REMARK  status: ('A' for Active; 'I' for Inactive)
REMARK    1  A    between atoms: C_5  and  S_7
REMARK    2  A    between atoms: S_7  and  N_10
REMARK    3  A    between atoms: N_10  and  C_11
REMARK    4  A    between atoms: C_15  and  C_17
REMARK    5  A    between atoms: N_19  and  C_20
REMARK    6  A    between atoms: C_20  and  C_21
REMARK    7  A    between atoms: C_20  and  C_28
REMARK    8  A    between atoms: C_21  and  C_22
REMARK    9  A    between atoms: C_31  and  C_33
REMARK                            x       y       z     vdW  Elec       q    Type
REMARK                         _______ _______ _______ _____ _____    ______ ____
ROOT
ATOM     11  C   UNL     1      -0.863  -0.105  24.642  0.00  0.00    +0.102 C 
ATOM     12  C   UNL     1      -1.186  -0.856  24.537  0.00  0.00    +0.041 C 
ATOM     13  C   UNL     1      -2.004  -0.953  24.503  0.00  0.00    +0.096 C 
ATOM     14  N   UNL     1      -2.500  -0.296  24.574  0.00  0.00    -0.267 N 
ATOM     15  C   UNL     1      -2.176   0.456  24.680  0.00  0.00    +0.155 C 
ATOM     16  C   UNL     1      -1.357   0.551  24.713  0.00  0.00    +0.049 C 
ATOM     31  C   UNL     1      -3.319  -0.392  24.541  0.00  0.00    +0.284 C 
ATOM     32  O   UNL     1      -3.813   0.264  24.612  0.00  0.00    -0.267 OA
ENDROOT
BRANCH  31  33
ATOM     33  C   UNL     1      -3.642  -1.144  24.435  0.00  0.00    +0.199 A 
ATOM     34  C   UNL     1      -4.021  -1.418  23.756  0.00  0.00    +0.045 A 
ATOM     35  C   UNL     1      -4.256  -2.196  23.892  0.00  0.00    +0.044 A 
ATOM     36  C   UNL     1      -4.022  -2.404  24.656  0.00  0.00    +0.180 A 
ATOM     37  O   UNL     1      -3.642  -1.753  24.991  0.00  0.00    -0.446 OA
ENDBRANCH  31  33
BRANCH  15  17
ATOM     17  C   UNL     1      -2.671   1.112  24.751  0.00  0.00    +0.260 C 
ATOM     18  O   UNL     1      -3.369   1.056  25.187  0.00  0.00    -0.272 OA
ATOM     19  N   UNL     1      -2.467   1.823  24.386  0.00  0.00    -0.196 NA
BRANCH  19  20
ATOM     20  C   UNL     1      -2.962   2.479  24.458  0.00  0.00    +0.179 C 
BRANCH  20  28
ATOM     28  C   UNL     1      -3.486   2.670  23.849  0.00  0.00    +0.281 C 
ATOM     29  N   UNL     1      -4.270   2.858  24.022  0.00  0.00    -0.086 NA
ATOM     30  O   UNL     1      -3.224   2.674  23.067  0.00  0.00    -0.270 OA
ENDBRANCH  20  28
BRANCH  20  21
ATOM     21  C   UNL     1      -2.934   2.945  25.139  0.00  0.00    +0.057 C 
BRANCH  21  22
ATOM     22  C   UNL     1      -2.429   3.597  25.171  0.00  0.00    -0.020 A 
ATOM     23  C   UNL     1      -1.618   3.496  25.065  0.00  0.00    -0.004 A 
ATOM     24  C   UNL     1      -1.112   4.148  25.097  0.00  0.00    -0.000 A 
ATOM     25  C   UNL     1      -1.420   4.901  25.236  0.00  0.00    -0.000 A 
ATOM     26  C   UNL     1      -2.231   5.002  25.343  0.00  0.00    -0.000 A 
ATOM     27  C   UNL     1      -2.737   4.350  25.311  0.00  0.00    -0.004 A 
ENDBRANCH  21  22
ENDBRANCH  20  21
ENDBRANCH  19  20
ENDBRANCH  15  17
BRANCH  11  10
ATOM     10  N   UNL     1      -0.043  -0.009  24.676  0.00  0.00    -0.078 NA
BRANCH  10   7
ATOM      7  S   UNL     1       0.404  -0.043  23.984  0.00  0.00    +0.095 S 
ATOM      8  O   UNL     1       0.392  -0.867  24.017  0.00  0.00    -0.150 OA
ATOM      9  O   UNL     1       0.417   0.781  23.951  0.00  0.00    -0.150 OA
BRANCH   7   5
ATOM      1  C   UNL     1       2.632   0.092  22.126  0.00  0.00    +0.132 C 
ATOM      2  N   UNL     1       1.876  -0.015  22.438  0.00  0.00    -0.305 N 
ATOM      3  C   UNL     1       1.206  -0.244  22.015  0.00  0.00    +0.180 A 
ATOM      4  N   UNL     1       0.572  -0.282  22.543  0.00  0.00    -0.204 NA
ATOM      5  C   UNL     1       0.852  -0.077  23.291  0.00  0.00    +0.223 A 
ATOM      6  C   UNL     1       1.658   0.089  23.226  0.00  0.00    +0.117 A 
ENDBRANCH   7   5
ENDBRANCH  10   7
ENDBRANCH  11  10
TORSDOF 9
ENDMDL
MODEL 3
REMARK VINA RESULT:     -10.7      1.756      3.864
REMARK  Name = 
REMARK  9 active torsions:
REMARK  status: ('A' for Active; 'I' for Inactive)
REMARK    1  A    between atoms: C_5  and  S_7
REMARK    2  A    between atoms: S_7  and  N_10
REMARK    3  A    between atoms: N_10  and  C_11
REMARK    4  A    between atoms: C_15  and  C_17
REMARK    5  A    between atoms: N_19  and  C_20
REMARK    6  A    between atoms: C_20  and  C_21
REMARK    7  A    between atoms: C_20  and  C_28
REMARK    8  A    between atoms: C_21  and  C_22
REMARK    9  A    between atoms: C_31  and  C_33
REMARK                            x       y       z     vdW  Elec       q    Type
REMARK                         _______ _______ _______ _____ _____    ______ ____
ROOT
ATOM     11  C   UNL     1      -1.891  -0.197  25.366  0.00  0.00    +0.102 C 
ATOM     12  C   UNL     1      -1.134  -0.397  25.108  0.00  0.00    +0.041 C 
ATOM     13  C   UNL     1      -0.683   0.150  24.687  0.00  0.00    +0.096 C 
ATOM     14  N   UNL     1      -0.990   0.899  24.524  0.00  0.00    -0.267 N 
ATOM     15  C   UNL     1      -1.748   1.099  24.783  0.00  0.00    +0.155 C 
ATOM     16  C   UNL     1      -2.198   0.551  25.204  0.00  0.00    +0.049 C 
ATOM     31  C   UNL     1      -0.540   1.447  24.103  0.00  0.00    +0.284 C 
ATOM     32  O   UNL     1      -0.848   2.195  23.940  0.00  0.00    -0.267 OA
ENDROOT
BRANCH  31  33
ATOM     33  C   UNL     1       0.217   1.247  23.844  0.00  0.00    +0.199 A 
ATOM     34  C   UNL     1       0.923   1.588  24.099  0.00  0.00    +0.045 A 
ATOM     35  C   UNL     1       1.543   1.222  23.698  0.00  0.00    +0.044 A 
ATOM     36  C   UNL     1       1.221   0.654  23.194  0.00  0.00    +0.180 A 
ATOM     37  O   UNL     1       0.401   0.670  23.284  0.00  0.00    -0.446 OA
ENDBRANCH  31  33
BRANCH  15  17
ATOM     17  C   UNL     1      -2.055   1.847  24.620  0.00  0.00    +0.260 C 
ATOM     18  O   UNL     1      -1.861   2.229  23.916  0.00  0.00    -0.272 OA
ATOM     19  N   UNL     1      -2.558   2.213  25.163  0.00  0.00    -0.196 NA
BRANCH  19  20
ATOM     20  C   UNL     1      -2.865   2.961  25.001  0.00  0.00    +0.179 C 
BRANCH  20  28
ATOM     28  C   UNL     1      -2.516   3.632  25.332  0.00  0.00    +0.281 C 
ATOM     29  N   UNL     1      -2.383   4.300  24.867  0.00  0.00    -0.086 NA
ATOM     30  O   UNL     1      -2.301   3.634  26.128  0.00  0.00    -0.270 OA
ENDBRANCH  20  28
BRANCH  20  21
ATOM     21  C   UNL     1      -3.522   3.038  24.507  0.00  0.00    +0.057 C 
BRANCH  21  22
ATOM     22  C   UNL     1      -4.278   2.888  24.801  0.00  0.00    -0.020 A 
ATOM     23  C   UNL     1      -4.711   2.246  24.516  0.00  0.00    -0.004 A 
ATOM     24  C   UNL     1      -5.468   2.095  24.810  0.00  0.00    -0.000 A 
ATOM     25  C   UNL     1      -5.790   2.586  25.388  0.00  0.00    -0.000 A 
ATOM     26  C   UNL     1      -5.358   3.228  25.673  0.00  0.00    -0.000 A 
ATOM     27  C   UNL     1      -4.602   3.379  25.380  0.00  0.00    -0.004 A 
ENDBRANCH  21  22
ENDBRANCH  20  21
ENDBRANCH  19  20
ENDBRANCH  15  17
BRANCH  11  10
ATOM     10  N   UNL     1      -2.341  -0.745  25.788  0.00  0.00    -0.078 NA
BRANCH  10   7
ATOM      7  S   UNL     1      -2.787  -1.310  25.384  0.00  0.00    +0.095 S 
ATOM      8  O   UNL     1      -3.478  -0.900  25.576  0.00  0.00    -0.150 OA
ATOM      9  O   UNL     1      -2.098  -1.718  25.192  0.00  0.00    -0.150 OA
BRANCH   7   5
ATOM      1  C   UNL     1      -4.637  -2.551  23.521  0.00  0.00    +0.132 C 
ATOM      2  N   UNL     1      -4.084  -2.444  24.124  0.00  0.00    -0.305 N 
ATOM      3  C   UNL     1      -3.758  -3.039  24.594  0.00  0.00    +0.180 A 
ATOM      4  N   UNL     1      -3.232  -2.686  25.123  0.00  0.00    -0.204 NA
ATOM      5  C   UNL     1      -3.234  -1.874  24.980  0.00  0.00    +0.223 A 
ATOM      6  C   UNL     1      -3.761  -1.725  24.362  0.00  0.00    +0.117 A 
ENDBRANCH   7   5
ENDBRANCH  10   7
ENDBRANCH  11  10
TORSDOF 9
ENDMDL
MODEL 4
REMARK VINA RESULT:     -10.7      1.248      3.967
REMARK  Name = 
REMARK  9 active torsions:
REMARK  status: ('A' for Active; 'I' for Inactive)
REMARK    1  A    between atoms: C_5  and  S_7
REMARK    2  A    between atoms: S_7  and  N_10
REMARK    3  A    between atoms: N_10  and  C_11
REMARK    4  A    between atoms: C_15  and  C_17
REMARK    5  A    between atoms: N_19  and  C_20
REMARK    6  A    between atoms: C_20  and  C_21
REMARK    7  A    between atoms: C_20  and  C_28
REMARK    8  A    between atoms: C_21  and  C_22
REMARK    9  A    between atoms: C_31  and  C_33
REMARK                            x       y       z     vdW  Elec       q    Type
REMARK                         _______ _______ _______ _____ _____    ______ ____
ROOT
ATOM     11  C   UNL     1      -2.884   2.135  24.510  0.00  0.00    +0.102 C 
ATOM     12  C   UNL     1      -2.317   2.692  24.729  0.00  0.00    +0.041 C 
ATOM     13  C   UNL     1      -1.622   2.450  25.101  0.00  0.00    +0.096 C 
ATOM     14  N   UNL     1      -1.494   1.648  25.252  0.00  0.00    -0.267 N 
ATOM     15  C   UNL     1      -2.061   1.090  25.032  0.00  0.00    +0.155 C 
ATOM     16  C   UNL     1      -2.756   1.335  24.661  0.00  0.00    +0.049 C 
ATOM     31  C   UNL     1      -0.798   1.404  25.624  0.00  0.00    +0.284 C 
ATOM     32  O   UNL     1      -0.671   0.604  25.775  0.00  0.00    -0.267 OA
ENDROOT
BRANCH  31  33
ATOM     33  C   UNL     1      -0.231   1.962  25.844  0.00  0.00    +0.199 A 
ATOM     34  C   UNL     1      -0.163   2.319  26.584  0.00  0.00    +0.045 A 
ATOM     35  C   UNL     1       0.477   2.837  26.560  0.00  0.00    +0.044 A 
ATOM     36  C   UNL     1       0.805   2.802  25.803  0.00  0.00    +0.180 A 
ATOM     37  O   UNL     1       0.367   2.260  25.361  0.00  0.00    -0.446 OA
ENDBRANCH  31  33
BRANCH  15  17
ATOM     17  C   UNL     1      -1.933   0.290  25.184  0.00  0.00    +0.260 C 
ATOM     18  O   UNL     1      -1.669   0.047  25.926  0.00  0.00    -0.272 OA
ATOM     19  N   UNL     1      -2.069  -0.268  24.591  0.00  0.00    -0.196 NA
BRANCH  19  20
ATOM     20  C   UNL     1      -1.942  -1.069  24.742  0.00  0.00    +0.179 C 
BRANCH  20  28
ATOM     28  C   UNL     1      -1.242  -1.430  24.494  0.00  0.00    +0.281 C 
ATOM     29  N   UNL     1      -0.810  -1.898  25.017  0.00  0.00    -0.086 NA
ATOM     30  O   UNL     1      -0.976  -1.322  23.720  0.00  0.00    -0.270 OA
ENDBRANCH  20  28
BRANCH  20  21
ATOM     21  C   UNL     1      -2.514  -1.509  25.143  0.00  0.00    +0.057 C 
BRANCH  21  22
ATOM     22  C   UNL     1      -3.107  -1.896  24.720  0.00  0.00    -0.020 A 
ATOM     23  C   UNL     1      -3.126  -2.721  24.696  0.00  0.00    -0.004 A 
ATOM     24  C   UNL     1      -3.719  -3.108  24.273  0.00  0.00    -0.000 A 
ATOM     25  C   UNL     1      -4.293  -2.670  23.874  0.00  0.00    -0.000 A 
ATOM     26  C   UNL     1      -4.274  -1.846  23.897  0.00  0.00    -0.000 A 
ATOM     27  C   UNL     1      -3.681  -1.459  24.320  0.00  0.00    -0.004 A 
ENDBRANCH  21  22
ENDBRANCH  20  21
ENDBRANCH  19  20
ENDBRANCH  15  17
BRANCH  11  10
ATOM     10  N   UNL     1      -3.580   2.378  24.138  0.00  0.00    -0.078 NA
BRANCH  10   7
ATOM      7  S   UNL     1      -4.262   2.505  24.584  0.00  0.00    +0.095 S 
ATOM      8  O   UNL     1      -4.577   1.796  24.300  0.00  0.00    -0.150 OA
ATOM      9  O   UNL     1      -3.947   3.212  24.867  0.00  0.00    -0.150 OA
BRANCH   7   5
ATOM      1  C   UNL     1      -6.624   2.042  26.208  0.00  0.00    +0.132 C 
ATOM      2  N   UNL     1      -6.031   2.418  25.776  0.00  0.00    -0.305 N 
ATOM      3  C   UNL     1      -5.961   3.231  25.654  0.00  0.00    +0.180 A 
ATOM      4  N   UNL     1      -5.290   3.362  25.192  0.00  0.00    -0.204 NA
ATOM      5  C   UNL     1      -4.945   2.631  25.029  0.00  0.00    +0.223 A 
ATOM      6  C   UNL     1      -5.404   2.047  25.391  0.00  0.00    +0.117 A 
ENDBRANCH   7   5
ENDBRANCH  10   7
ENDBRANCH  11  10
TORSDOF 9
ENDMDL
MODEL 5
REMARK VINA RESULT:     -10.6      1.941      5.667
REMARK  Name = 
REMARK  9 active torsions:
REMARK  status: ('A' for Active; 'I' for Inactive)
REMARK    1  A    between atoms: C_5  and  S_7
REMARK    2  A    between atoms: S_7  and  N_10
REMARK    3  A    between atoms: N_10  and  C_11
REMARK    4  A    between atoms: C_15  and  C_17
REMARK    5  A    between atoms: N_19  and  C_20
REMARK    6  A    between atoms: C_20  and  C_21
REMARK    7  A    between atoms: C_20  and  C_28
REMARK    8  A    between atoms: C_21  and  C_22
REMARK    9  A    between atoms: C_31  and  C_33
REMARK                            x       y       z     vdW  Elec       q    Type
REMARK                         _______ _______ _______ _____ _____    ______ ____
ROOT
ATOM     11  C   UNL     1      -0.724   1.083  24.946  0.00  0.00    +0.102 C 
ATOM     12  C   UNL     1      -0.600   1.875  25.138  0.00  0.00    +0.041 C 
ATOM     13  C   UNL     1      -1.231   2.406  25.128  0.00  0.00    +0.096 C 
ATOM     14  N   UNL     1      -1.987   2.143  24.926  0.00  0.00    -0.267 N 
ATOM     15  C   UNL     1      -2.112   1.350  24.734  0.00  0.00    +0.155 C 
ATOM     16  C   UNL     1      -1.479   0.820  24.744  0.00  0.00    +0.049 C 
ATOM     31  C   UNL     1      -2.620   2.673  24.916  0.00  0.00    +0.284 C 
ATOM     32  O   UNL     1      -3.375   2.411  24.715  0.00  0.00    -0.267 OA
ENDROOT
BRANCH  31  33
ATOM     33  C   UNL     1      -2.495   3.466  25.109  0.00  0.00    +0.199 A 
ATOM     34  C   UNL     1      -2.692   3.829  25.823  0.00  0.00    +0.045 A 
ATOM     35  C   UNL     1      -2.471   4.622  25.776  0.00  0.00    +0.044 A 
ATOM     36  C   UNL     1      -2.138   4.750  25.031  0.00  0.00    +0.180 A 
ATOM     37  O   UNL     1      -2.153   4.035  24.620  0.00  0.00    -0.446 OA
ENDBRANCH  31  33
BRANCH  15  17
ATOM     17  C   UNL     1      -2.867   1.088  24.532  0.00  0.00    +0.260 C 
ATOM     18  O   UNL     1      -3.291   1.470  23.938  0.00  0.00    -0.272 OA
ATOM     19  N   UNL     1      -3.198   0.442  24.926  0.00  0.00    -0.196 NA
BRANCH  19  20
ATOM     20  C   UNL     1      -3.953   0.179  24.724  0.00  0.00    +0.179 C 
BRANCH  20  28
ATOM     28  C   UNL     1      -4.607   0.426  25.163  0.00  0.00    +0.281 C 
ATOM     29  N   UNL     1      -5.252   0.773  24.783  0.00  0.00    -0.086 NA
ATOM     30  O   UNL     1      -4.616   0.325  25.982  0.00  0.00    -0.270 OA
ENDBRANCH  20  28
BRANCH  20  21
ATOM     21  C   UNL     1      -4.054  -0.331  24.083  0.00  0.00    +0.057 C 
BRANCH  21  22
ATOM     22  C   UNL     1      -3.976  -1.145  24.188  0.00  0.00    -0.020 A 
ATOM     23  C   UNL     1      -3.533  -1.439  24.819  0.00  0.00    -0.004 A 
ATOM     24  C   UNL     1      -3.454  -2.254  24.924  0.00  0.00    -0.000 A 
ATOM     25  C   UNL     1      -3.819  -2.774  24.399  0.00  0.00    -0.000 A 
ATOM     26  C   UNL     1      -4.263  -2.481  23.768  0.00  0.00    -0.000 A 
ATOM     27  C   UNL     1      -4.341  -1.666  23.663  0.00  0.00    -0.004 A 
ENDBRANCH  21  22
ENDBRANCH  20  21
ENDBRANCH  19  20
ENDBRANCH  15  17
BRANCH  11  10
ATOM     10  N   UNL     1      -0.092   0.552  24.956  0.00  0.00    -0.078 NA
BRANCH  10   7
ATOM      7  S   UNL     1       0.307   0.373  24.256  0.00  0.00    +0.095 S 
ATOM      8  O   UNL     1      -0.038  -0.377  24.252  0.00  0.00    -0.150 OA
ATOM      9  O   UNL     1       0.651   1.122  24.260  0.00  0.00    -0.150 OA
BRANCH   7   5
ATOM      1  C   UNL     1       2.394   0.124  22.253  0.00  0.00    +0.132 C 
ATOM      2  N   UNL     1       1.665   0.079  22.636  0.00  0.00    -0.305 N 
ATOM      3  C   UNL     1       0.973  -0.242  22.323  0.00  0.00    +0.180 A 
ATOM      4  N   UNL     1       0.380  -0.171  22.893  0.00  0.00    -0.204 NA
ATOM      5  C   UNL     1       0.706   0.194  23.556  0.00  0.00    +0.223 A 
ATOM      6  C   UNL     1       1.501   0.349  23.397  0.00  0.00    +0.117 A 
ENDBRANCH   7   5
ENDBRANCH  10   7
ENDBRANCH  11  10
TORSDOF 9
ENDMDL
MODEL 6
REMARK VINA RESULT:     -10.4      1.510      3.893
REMARK  Name = 
REMARK  9 active torsions:
REMARK  status: ('A' for Active; 'I' for Inactive)
REMARK    1  A    between atoms: C_5  and  S_7
REMARK    2  A    between atoms: S_7  and  N_10
REMARK    3  A    between atoms: N_10  and  C_11
REMARK    4  A    between atoms: C_15  and  C_17
REMARK    5  A    between atoms: N_19  and  C_20
REMARK    6  A    between atoms: C_20  and  C_21
REMARK    7  A    between atoms: C_20  and  C_28
REMARK    8  A    between atoms: C_21  and  C_22
REMARK    9  A    between atoms: C_31  and  C_33
REMARK                            x       y       z     vdW  Elec       q    Type
REMARK                         _______ _______ _______ _____ _____    ______ ____
ROOT
ATOM     11  C   UNL     1      -1.882   0.103  25.502  0.00  0.00    +0.102 C 
ATOM     12  C   UNL     1      -1.863  -0.716  25.411  0.00  0.00    +0.041 C 
ATOM     13  C   UNL     1      -2.515  -1.111  25.095  0.00  0.00    +0.096 C 
ATOM     14  N   UNL     1      -3.186  -0.686  24.870  0.00  0.00    -0.267 N 
ATOM     15  C   UNL     1      -3.205   0.134  24.962  0.00  0.00    +0.155 C 
ATOM     16  C   UNL     1      -2.552   0.528  25.278  0.00  0.00    +0.049 C 
ATOM     31  C   UNL     1      -3.838  -1.080  24.554  0.00  0.00    +0.284 C 
ATOM     32  O   UNL     1      -4.508  -0.655  24.330  0.00  0.00    -0.267 OA
ENDROOT
BRANCH  31  33
ATOM     33  C   UNL     1      -3.819  -1.900  24.463  0.00  0.00    +0.199 A 
ATOM     34  C   UNL     1      -3.919  -2.311  23.754  0.00  0.00    +0.045 A 
ATOM     35  C   UNL     1      -3.859  -3.117  23.917  0.00  0.00    +0.044 A 
ATOM     36  C   UNL     1      -3.722  -3.204  24.727  0.00  0.00    +0.180 A 
ATOM     37  O   UNL     1      -3.698  -2.452  25.063  0.00  0.00    -0.446 OA
ENDBRANCH  31  33
BRANCH  15  17
ATOM     17  C   UNL     1      -3.875   0.560  24.738  0.00  0.00    +0.260 C 
ATOM     18  O   UNL     1      -4.299   0.337  24.067  0.00  0.00    -0.272 OA
ATOM     19  N   UNL     1      -4.120   1.208  25.186  0.00  0.00    -0.196 NA
BRANCH  19  20
ATOM     20  C   UNL     1      -4.790   1.633  24.962  0.00  0.00    +0.179 C 
BRANCH  20  28
ATOM     28  C   UNL     1      -5.511   1.500  25.342  0.00  0.00    +0.281 C 
ATOM     29  N   UNL     1      -6.211   1.488  24.906  0.00  0.00    -0.086 NA
ATOM     30  O   UNL     1      -5.530   1.377  26.157  0.00  0.00    -0.270 OA
ENDBRANCH  20  28
BRANCH  20  21
ATOM     21  C   UNL     1      -4.740   2.193  24.357  0.00  0.00    +0.057 C 
BRANCH  21  22
ATOM     22  C   UNL     1      -4.380   2.921  24.499  0.00  0.00    -0.020 A 
ATOM     23  C   UNL     1      -3.927   3.279  23.909  0.00  0.00    -0.004 A 
ATOM     24  C   UNL     1      -3.566   4.008  24.051  0.00  0.00    -0.000 A 
ATOM     25  C   UNL     1      -3.658   4.378  24.782  0.00  0.00    -0.000 A 
ATOM     26  C   UNL     1      -4.111   4.021  25.371  0.00  0.00    -0.000 A 
ATOM     27  C   UNL     1      -4.472   3.293  25.230  0.00  0.00    -0.004 A 
ENDBRANCH  21  22
ENDBRANCH  20  21
ENDBRANCH  19  20
ENDBRANCH  15  17
BRANCH  11  10
ATOM     10  N   UNL     1      -1.230   0.498  25.818  0.00  0.00    -0.078 NA
BRANCH  10   7
ATOM      7  S   UNL     1      -0.813   1.040  25.357  0.00  0.00    +0.095 S 
ATOM      8  O   UNL     1      -1.155   1.662  25.780  0.00  0.00    -0.150 OA
ATOM      9  O   UNL     1      -0.472   0.420  24.935  0.00  0.00    -0.150 OA
BRANCH   7   5
ATOM      1  C   UNL     1       0.089   3.525  24.155  0.00  0.00    +0.132 C 
ATOM      2  N   UNL     1       0.018   2.725  24.343  0.00  0.00    -0.305 N 
ATOM      3  C   UNL     1       0.470   2.112  24.029  0.00  0.00    +0.180 A 
ATOM      4  N   UNL     1       0.214   1.405  24.370  0.00  0.00    -0.204 NA
ATOM      5  C   UNL     1      -0.397   1.584  24.896  0.00  0.00    +0.223 A 
ATOM      6  C   UNL     1      -0.518   2.400  24.879  0.00  0.00    +0.117 A 
ENDBRANCH   7   5
ENDBRANCH  10   7
ENDBRANCH  11  10
TORSDOF 9
ENDMDL
