MODEL 1
REMARK VINA RESULT:     -11.4      0.000      0.000
REMARK  Name = 
REMARK  7 active torsions:
REMARK  status: ('A' for Active; 'I' for Inactive)
REMARK    1  A    between atoms: C_2  and  C_3
REMARK    2  A    between atoms: C_5  and  C_6
REMARK    3  A    between atoms: C_6  and  N_7
REMARK    4  A    between atoms: N_7  and  C_8
REMARK    5  A    between atoms: C_8  and  C_9
REMARK    6  A    between atoms: C_16  and  N_19
REMARK    7  A    between atoms: N_22  and  C_25
REMARK                            x       y       z     vdW  Elec       q    Type
REMARK                         _______ _______ _______ _____ _____    ______ ____
ROOT
ATOM      3  C   UNL     1      -5.821   1.975  25.201  0.00  0.00    +0.180 C 
ATOM      4  O   UNL     1      -5.370   1.307  25.026  0.00  0.00    -0.350 OA
ATOM      5  C   UNL     1      -4.584   1.544  24.946  0.00  0.00    +0.150 C 
ATOM     16  C   UNL     1      -4.548   2.358  25.072  0.00  0.00    +0.120 C 
ATOM     17  C   UNL     1      -5.313   2.625  25.230  0.00  0.00    +0.198 C 
ATOM     18  O   UNL     1      -5.531   3.405  25.389  0.00  0.00    -0.219 OA
ENDROOT
BRANCH  16  19
ATOM     19  N   UNL     1      -3.868   2.824  25.046  0.00  0.00    -0.267 NA
ATOM     20  C   UNL     1      -3.451   2.984  25.740  0.00  0.00    +0.094 C 
ATOM     21  C   UNL     1      -2.770   3.450  25.714  0.00  0.00    +0.108 C 
ATOM     22  N   UNL     1      -2.507   3.755  24.993  0.00  0.00    -0.305 N 
ATOM     23  C   UNL     1      -2.924   3.595  24.300  0.00  0.00    +0.108 C 
ATOM     24  C   UNL     1      -3.604   3.129  24.326  0.00  0.00    +0.094 C 
BRANCH  22  25
ATOM     25  C   UNL     1      -1.826   4.221  24.967  0.00  0.00    +0.048 A 
ATOM     26  C   UNL     1      -1.088   3.868  24.862  0.00  0.00    +0.015 A 
ATOM     27  C   UNL     1      -0.407   4.334  24.836  0.00  0.00    +0.001 A 
ATOM     28  C   UNL     1      -0.465   5.153  24.915  0.00  0.00    +0.000 A 
ATOM     29  C   UNL     1      -1.204   5.506  25.019  0.00  0.00    +0.001 A 
ATOM     30  C   UNL     1      -1.883   5.040  25.045  0.00  0.00    +0.015 A 
ENDBRANCH  22  25
ENDBRANCH  16  19
BRANCH   3   2
ATOM      1  O   UNL     1      -7.142   1.617  24.793  0.00  0.00    -0.218 OA
ATOM      2  C   UNL     1      -6.635   1.992  25.326  0.00  0.00    +0.214 C 
ENDBRANCH   3   2
BRANCH   5   6
ATOM      6  C   UNL     1      -3.945   1.052  24.770  0.00  0.00    +0.120 C 
BRANCH   6   7
ATOM      7  N   UNL     1      -4.042   0.233  24.773  0.00  0.00    -0.211 NA
BRANCH   7   8
ATOM      8  C   UNL     1      -3.417  -0.258  24.551  0.00  0.00    +0.115 C 
BRANCH   8   9
ATOM      9  C   UNL     1      -3.495  -1.078  24.612  0.00  0.00    -0.004 A 
ATOM     10  C   UNL     1      -3.156  -1.478  25.247  0.00  0.00    -0.003 A 
ATOM     11  C   UNL     1      -3.234  -2.298  25.308  0.00  0.00    +0.001 A 
ATOM     12  C   UNL     1      -3.651  -2.716  24.731  0.00  0.00    +0.011 A 
ATOM     13  C   UNL     1      -3.990  -2.314  24.094  0.00  0.00    +0.057 A 
ATOM     14 CL   UNL     1      -4.406  -2.732  23.518  0.00  0.00    -0.082 Cl
ATOM     15  C   UNL     1      -3.911  -1.496  24.035  0.00  0.00    +0.009 A 
ENDBRANCH   8   9
ENDBRANCH   7   8
ENDBRANCH   6   7
ENDBRANCH   5   6
TORSDOF 7
ENDMDL
MODEL 2
REMARK VINA RESULT:     -11.2      1.838      5.173
REMARK  Name = 
REMARK  7 active torsions:
REMARK  status: ('A' for Active; 'I' for Inactive)
REMARK    1  A    between atoms: C_2  and  C_3
REMARK    2  A    between atoms: C_5  and  C_6
REMARK    3  A    between atoms: C_6  and  N_7
REMARK    4  A    between atoms: N_7  and  C_8
REMARK    5  A    between atoms: C_8  and  C_9
REMARK    6  A    between atoms: C_16  and  N_19
REMARK    7  A    between atoms: N_22  and  C_25
REMARK                            x       y       z     vdW  Elec       q    Type
REMARK                         _______ _______ _______ _____ _____    ______ ____
ROOT
ATOM      3  C   UNL     1      -5.343   2.905  25.313  0.00  0.00    +0.180 C 
ATOM      4  O   UNL     1      -4.545   3.106  25.362  0.00  0.00    -0.350 OA
ATOM      5  C   UNL     1      -4.101   2.423  25.230  0.00  0.00    +0.150 C 
ATOM     16  C   UNL     1      -4.625   1.799  25.100  0.00  0.00    +0.120 C 
ATOM     17  C   UNL     1      -5.393   2.097  25.152  0.00  0.00    +0.198 C 
ATOM     18  O   UNL     1      -6.089   1.662  25.058  0.00  0.00    -0.219 OA
ENDROOT
BRANCH  16  19
ATOM     19  N   UNL     1      -4.418   1.016  24.946  0.00  0.00    -0.267 NA
ATOM     20  C   UNL     1      -4.429   0.459  25.555  0.00  0.00    +0.094 C 
ATOM     21  C   UNL     1      -4.221  -0.325  25.401  0.00  0.00    +0.108 C 
ATOM     22  N   UNL     1      -4.003  -0.551  24.637  0.00  0.00    -0.305 N 
ATOM     23  C   UNL     1      -3.992   0.005  24.029  0.00  0.00    +0.108 C 
ATOM     24  C   UNL     1      -4.200   0.790  24.183  0.00  0.00    +0.094 C 
BRANCH  22  25
ATOM     25  C   UNL     1      -3.796  -1.335  24.483  0.00  0.00    +0.048 A 
ATOM     26  C   UNL     1      -4.257  -1.791  23.974  0.00  0.00    +0.015 A 
ATOM     27  C   UNL     1      -4.050  -2.575  23.820  0.00  0.00    +0.001 A 
ATOM     28  C   UNL     1      -3.381  -2.902  24.176  0.00  0.00    +0.000 A 
ATOM     29  C   UNL     1      -2.920  -2.445  24.685  0.00  0.00    +0.001 A 
ATOM     30  C   UNL     1      -3.128  -1.662  24.839  0.00  0.00    +0.015 A 
ENDBRANCH  22  25
ENDBRANCH  16  19
BRANCH   3   2
ATOM      1  O   UNL     1      -5.861   4.165  25.743  0.00  0.00    -0.218 OA
ATOM      2  C   UNL     1      -5.980   3.419  25.410  0.00  0.00    +0.214 C 
ENDBRANCH   3   2
BRANCH   5   6
ATOM      6  C   UNL     1      -3.278   2.374  25.228  0.00  0.00    +0.120 C 
BRANCH   6   7
ATOM      7  N   UNL     1      -2.823   3.061  25.209  0.00  0.00    -0.211 NA
BRANCH   7   8
ATOM      8  C   UNL     1      -2.028   3.037  25.432  0.00  0.00    +0.115 C 
BRANCH   8   9
ATOM      9  C   UNL     1      -1.511   3.629  25.181  0.00  0.00    -0.004 A 
ATOM     10  C   UNL     1      -0.789   3.429  24.839  0.00  0.00    -0.003 A 
ATOM     11  C   UNL     1      -0.272   4.021  24.588  0.00  0.00    +0.001 A 
ATOM     12  C   UNL     1      -0.479   4.815  24.679  0.00  0.00    +0.011 A 
ATOM     13  C   UNL     1      -1.203   5.016  25.022  0.00  0.00    +0.057 A 
ATOM     14 CL   UNL     1      -1.410   5.809  25.113  0.00  0.00    -0.082 Cl
ATOM     15  C   UNL     1      -1.719   4.423  25.272  0.00  0.00    +0.009 A 
ENDBRANCH   8   9
ENDBRANCH   7   8
ENDBRANCH   6   7
ENDBRANCH   5   6
TORSDOF 7
ENDMDL
MODEL 3
REMARK VINA RESULT:     -10.7      2.882      3.896
REMARK  Name = 
REMARK  7 active torsions:
REMARK  status: ('A' for Active; 'I' for Inactive)
REMARK    1  A    between atoms: C_2  and  C_3
REMARK    2  A    between atoms: C_5  and  C_6
REMARK    3  A    between atoms: C_6  and  N_7
REMARK    4  A    between atoms: N_7  and  C_8
REMARK    5  A    between atoms: C_8  and  C_9
REMARK    6  A    between atoms: C_16  and  N_19
REMARK    7  A    between atoms: N_22  and  C_25
REMARK                            x       y       z     vdW  Elec       q    Type
REMARK                         _______ _______ _______ _____ _____    ______ ____
ROOT
ATOM      3  C   UNL     1       0.657   0.046  23.511  0.00  0.00    +0.180 C 
ATOM      4  O   UNL     1       0.053  -0.395  23.859  0.00  0.00    -0.350 OA
ATOM      5  C   UNL     1      -0.467   0.131  24.226  0.00  0.00    +0.150 C 
ATOM     16  C   UNL     1      -0.184   0.896  24.104  0.00  0.00    +0.120 C 
ATOM     17  C   UNL     1       0.511   0.844  23.662  0.00  0.00    +0.198 C 
ATOM     18  O   UNL     1       0.977   1.478  23.414  0.00  0.00    -0.219 OA
ENDROOT
BRANCH  16  19
ATOM     19  N   UNL     1      -0.534   1.592  24.376  0.00  0.00    -0.267 NA
ATOM     20  C   UNL     1      -1.089   1.985  23.908  0.00  0.00    +0.094 C 
ATOM     21  C   UNL     1      -1.439   2.681  24.179  0.00  0.00    +0.108 C 
ATOM     22  N   UNL     1      -1.234   2.984  24.920  0.00  0.00    -0.305 N 
ATOM     23  C   UNL     1      -0.680   2.591  25.387  0.00  0.00    +0.108 C 
ATOM     24  C   UNL     1      -0.330   1.895  25.115  0.00  0.00    +0.094 C 
BRANCH  22  25
ATOM     25  C   UNL     1      -1.585   3.680  25.191  0.00  0.00    +0.048 A 
ATOM     26  C   UNL     1      -1.247   4.409  25.010  0.00  0.00    +0.015 A 
ATOM     27  C   UNL     1      -1.597   5.106  25.281  0.00  0.00    +0.001 A 
ATOM     28  C   UNL     1      -2.286   5.071  25.735  0.00  0.00    +0.000 A 
ATOM     29  C   UNL     1      -2.624   4.341  25.916  0.00  0.00    +0.001 A 
ATOM     30  C   UNL     1      -2.273   3.645  25.644  0.00  0.00    +0.015 A 
ENDBRANCH  22  25
ENDBRANCH  16  19
BRANCH   3   2
ATOM      1  O   UNL     1       1.174  -0.591  22.340  0.00  0.00    -0.218 OA
ATOM      2  C   UNL     1       1.295  -0.258  23.086  0.00  0.00    +0.214 C 
ENDBRANCH   3   2
BRANCH   5   6
ATOM      6  C   UNL     1      -1.149  -0.073  24.642  0.00  0.00    +0.120 C 
BRANCH   6   7
ATOM      7  N   UNL     1      -1.501  -0.809  24.521  0.00  0.00    -0.211 NA
BRANCH   7   8
ATOM      8  C   UNL     1      -2.079  -1.081  25.044  0.00  0.00    +0.115 C 
BRANCH   8   9
ATOM      9  C   UNL     1      -2.666  -1.597  24.778  0.00  0.00    -0.004 A 
ATOM     10  C   UNL     1      -2.554  -2.411  24.828  0.00  0.00    -0.003 A 
ATOM     11  C   UNL     1      -3.141  -2.927  24.562  0.00  0.00    +0.001 A 
ATOM     12  C   UNL     1      -3.841  -2.625  24.245  0.00  0.00    +0.011 A 
ATOM     13  C   UNL     1      -3.953  -1.809  24.194  0.00  0.00    +0.057 A 
ATOM     14 CL   UNL     1      -4.653  -1.508  23.877  0.00  0.00    -0.082 Cl
ATOM     15  C   UNL     1      -3.366  -1.295  24.461  0.00  0.00    +0.009 A 
ENDBRANCH   8   9
ENDBRANCH   7   8
ENDBRANCH   6   7
ENDBRANCH   5   6
TORSDOF 7
ENDMDL
MODEL 4
REMARK VINA RESULT:     -10.3      2.332      5.409
REMARK  Name = 
REMARK  7 active torsions:
REMARK  status: ('A' for Active; 'I' for Inactive)
REMARK    1  A    between atoms: C_2  and  C_3
REMARK    2  A    between atoms: C_5  and  C_6
REMARK    3  A    between atoms: C_6  and  N_7
REMARK    4  A    between atoms: N_7  and  C_8
REMARK    5  A    between atoms: C_8  and  C_9
REMARK    6  A    between atoms: C_16  and  N_19
REMARK    7  A    between atoms: N_22  and  C_25
REMARK                            x       y       z     vdW  Elec       q    Type
REMARK                         _______ _______ _______ _____ _____    ______ ____
ROOT
ATOM      3  C   UNL     1      -0.618   2.033  25.476  0.00  0.00    +0.180 C 
ATOM      4  O   UNL     1      -1.234   2.470  25.147  0.00  0.00    -0.350 OA
ATOM      5  C   UNL     1      -1.817   1.942  24.897  0.00  0.00    +0.150 C 
ATOM     16  C   UNL     1      -1.561   1.178  25.072  0.00  0.00    +0.120 C 
ATOM     17  C   UNL     1      -0.819   1.234  25.430  0.00  0.00    +0.198 C 
ATOM     18  O   UNL     1      -0.360   0.601  25.696  0.00  0.00    -0.219 OA
ENDROOT
BRANCH  16  19
ATOM     19  N   UNL     1      -1.973   0.481  24.917  0.00  0.00    -0.267 NA
ATOM     20  C   UNL     1      -2.412   0.120  25.515  0.00  0.00    +0.094 C 
ATOM     21  C   UNL     1      -2.825  -0.578  25.360  0.00  0.00    +0.108 C 
ATOM     22  N   UNL     1      -2.798  -0.915  24.607  0.00  0.00    -0.305 N 
ATOM     23  C   UNL     1      -2.359  -0.554  24.010  0.00  0.00    +0.108 C 
ATOM     24  C   UNL     1      -1.946   0.144  24.165  0.00  0.00    +0.094 C 
BRANCH  22  25
ATOM     25  C   UNL     1      -3.210  -1.613  24.452  0.00  0.00    +0.048 A 
ATOM     26  C   UNL     1      -3.908  -1.590  24.014  0.00  0.00    +0.015 A 
ATOM     27  C   UNL     1      -4.321  -2.288  23.859  0.00  0.00    +0.001 A 
ATOM     28  C   UNL     1      -4.035  -3.008  24.143  0.00  0.00    +0.000 A 
ATOM     29  C   UNL     1      -3.336  -3.030  24.581  0.00  0.00    +0.001 A 
ATOM     30  C   UNL     1      -2.924  -2.332  24.735  0.00  0.00    +0.015 A 
ENDBRANCH  22  25
ENDBRANCH  16  19
BRANCH   3   2
ATOM      1  O   UNL     1       0.072   3.077  26.166  0.00  0.00    -0.218 OA
ATOM      2  C   UNL     1       0.077   2.339  25.795  0.00  0.00    +0.214 C 
ENDBRANCH   3   2
BRANCH   5   6
ATOM      6  C   UNL     1      -2.531   2.144  24.535  0.00  0.00    +0.120 C 
BRANCH   6   7
ATOM      7  N   UNL     1      -2.988   2.759  24.839  0.00  0.00    -0.211 NA
BRANCH   7   8
ATOM      8  C   UNL     1      -3.663   3.010  24.435  0.00  0.00    +0.115 C 
BRANCH   8   9
ATOM      9  C   UNL     1      -4.384   3.064  24.832  0.00  0.00    -0.004 A 
ATOM     10  C   UNL     1      -4.545   3.718  25.307  0.00  0.00    -0.003 A 
ATOM     11  C   UNL     1      -5.267   3.772  25.705  0.00  0.00    +0.001 A 
ATOM     12  C   UNL     1      -5.827   3.171  25.626  0.00  0.00    +0.011 A 
ATOM     13  C   UNL     1      -5.665   2.516  25.150  0.00  0.00    +0.057 A 
ATOM     14 CL   UNL     1      -6.224   1.915  25.072  0.00  0.00    -0.082 Cl
ATOM     15  C   UNL     1      -4.944   2.463  24.754  0.00  0.00    +0.009 A 
ENDBRANCH   8   9
ENDBRANCH   7   8
ENDBRANCH   6   7
ENDBRANCH   5   6
TORSDOF 7
ENDMDL
MODEL 5
REMARK VINA RESULT:     -10.0      3.383      6.384
REMARK  Name = 
REMARK  7 active torsions:
REMARK  status: ('A' for Active; 'I' for Inactive)
REMARK    1  A    between atoms: C_2  and  C_3
REMARK    2  A    between atoms: C_5  and  C_6
REMARK    3  A    between atoms: C_6  and  N_7
REMARK    4  A    between atoms: N_7  and  C_8
REMARK    5  A    between atoms: C_8  and  C_9
REMARK    6  A    between atoms: C_16  and  N_19
REMARK    7  A    between atoms: N_22  and  C_25
REMARK                            x       y       z     vdW  Elec       q    Type
REMARK                         _______ _______ _______ _____ _____    ______ ____
ROOT
ATOM      3  C   UNL     1       1.224   0.935  23.479  0.00  0.00    +0.180 C 
ATOM      4  O   UNL     1       0.943   1.519  23.988  0.00  0.00    -0.350 OA
ATOM      5  C   UNL     1       0.249   1.242  24.337  0.00  0.00    +0.150 C 
ATOM     16  C   UNL     1       0.100   0.485  24.043  0.00  0.00    +0.120 C 
ATOM     17  C   UNL     1       0.703   0.295  23.512  0.00  0.00    +0.198 C 
ATOM     18  O   UNL     1       0.773  -0.410  23.089  0.00  0.00    -0.219 OA
ENDROOT
BRANCH  16  19
ATOM     19  N   UNL     1      -0.538   0.003  24.243  0.00  0.00    -0.267 NA
ATOM     20  C   UNL     1      -0.445  -0.590  24.810  0.00  0.00    +0.094 C 
ATOM     21  C   UNL     1      -1.083  -1.073  25.011  0.00  0.00    +0.108 C 
ATOM     22  N   UNL     1      -1.815  -0.961  24.645  0.00  0.00    -0.305 N 
ATOM     23  C   UNL     1      -1.908  -0.368  24.080  0.00  0.00    +0.108 C 
ATOM     24  C   UNL     1      -1.269   0.114  23.879  0.00  0.00    +0.094 C 
BRANCH  22  25
ATOM     25  C   UNL     1      -2.454  -1.444  24.847  0.00  0.00    +0.048 A 
ATOM     26  C   UNL     1      -2.991  -1.198  25.422  0.00  0.00    +0.015 A 
ATOM     27  C   UNL     1      -3.630  -1.680  25.623  0.00  0.00    +0.001 A 
ATOM     28  C   UNL     1      -3.731  -2.409  25.249  0.00  0.00    +0.000 A 
ATOM     29  C   UNL     1      -3.193  -2.654  24.673  0.00  0.00    +0.001 A 
ATOM     30  C   UNL     1      -2.555  -2.171  24.473  0.00  0.00    +0.015 A 
ENDBRANCH  22  25
ENDBRANCH  16  19
BRANCH   3   2
ATOM      1  O   UNL     1       2.590   1.326  23.324  0.00  0.00    -0.218 OA
ATOM      2  C   UNL     1       1.905   0.981  23.017  0.00  0.00    +0.214 C 
ENDBRANCH   3   2
BRANCH   5   6
ATOM      6  C   UNL     1      -0.216   1.649  24.883  0.00  0.00    +0.120 C 
BRANCH   6   7
ATOM      7  N   UNL     1      -0.228   2.474  24.881  0.00  0.00    -0.211 NA
BRANCH   7   8
ATOM      8  C   UNL     1      -0.485   2.884  25.549  0.00  0.00    +0.115 C 
BRANCH   8   9
ATOM      9  C   UNL     1      -0.957   3.556  25.464  0.00  0.00    -0.004 A 
ATOM     10  C   UNL     1      -0.658   4.226  25.088  0.00  0.00    -0.003 A 
ATOM     11  C   UNL     1      -1.130   4.898  25.002  0.00  0.00    +0.001 A 
ATOM     12  C   UNL     1      -1.902   4.898  25.293  0.00  0.00    +0.011 A 
ATOM     13  C   UNL     1      -2.202   4.227  25.670  0.00  0.00    +0.057 A 
ATOM     14 CL   UNL     1      -2.974   4.228  25.960  0.00  0.00    -0.082 Cl
ATOM     15  C   UNL     1      -1.730   3.557  25.755  0.00  0.00    +0.009 A 
ENDBRANCH   8   9
ENDBRANCH   7   8
ENDBRANCH   6   7
ENDBRANCH   5   6
TORSDOF 7
ENDMDL
