REMARK  Name = 
REMARK  4 active torsions:
REMARK  status: ('A' for Active; 'I' for Inactive)
REMARK    1  A    between atoms: C_2  and  O_3
REMARK    2  A    between atoms: O_3  and  C_4
REMARK    3  A    between atoms: C_4  and  C_6
REMARK    4  A    between atoms: C_9  and  N_12
REMARK                            x       y       z     vdW  Elec       q    Type
REMARK                         _______ _______ _______ _____ _____    ______ ____
ROOT
ATOM     12  N   UNL     1       0.654  -0.698   0.000  0.00  0.00    -0.191 N 
ATOM     13  C   UNL     1       1.139  -0.030   0.000  0.00  0.00    +0.255 C 
ATOM     14  O   UNL     1       0.884   0.754   0.000  0.00  0.00    -0.272 OA
ATOM     15  C   UNL     1       1.923  -0.285   0.000  0.00  0.00    +0.160 C 
ATOM     16  C   UNL     1       2.638   0.127   0.000  0.00  0.00    +0.076 C 
ATOM     17  C   UNL     1       3.352  -0.285   0.000  0.00  0.00    +0.078 A 
ATOM     18  C   UNL     1       3.352  -1.110   0.000  0.00  0.00    +0.094 A 
ATOM     19  C   UNL     1       2.638  -1.523   0.000  0.00  0.00    +0.142 C 
ATOM     20  N   UNL     1       1.923  -1.110   0.000  0.00  0.00    -0.251 N 
ATOM     21  C   UNL     1       1.139  -1.365   0.000  0.00  0.00    +0.317 C 
ATOM     22  O   UNL     1       0.884  -2.150   0.000  0.00  0.00    -0.252 OA
ATOM     23  N   UNL     1       4.137  -1.365   0.000  0.00  0.00    -0.225 NA
ATOM     24  C   UNL     1       4.622  -0.698   0.000  0.00  0.00    +0.198 A 
ATOM     25  N   UNL     1       4.137  -0.030   0.000  0.00  0.00    -0.227 NA
ENDROOT
BRANCH  12   9
ATOM      6  C   UNL     1      -1.821  -0.698   0.000  0.00  0.00    +0.076 A 
ATOM      7  C   UNL     1      -1.409   0.017   0.000  0.00  0.00    +0.008 A 
ATOM      8  C   UNL     1      -0.584   0.017   0.000  0.00  0.00    +0.016 A 
ATOM      9  C   UNL     1      -0.171  -0.698   0.000  0.00  0.00    +0.062 A 
ATOM     10  C   UNL     1      -0.584  -1.412   0.000  0.00  0.00    +0.016 A 
ATOM     11  C   UNL     1      -1.409  -1.412   0.000  0.00  0.00    +0.008 A 
BRANCH   6   4
ATOM      4  C   UNL     1      -2.646  -0.698   0.000  0.00  0.00    +0.341 C 
ATOM      5  O   UNL     1      -3.059   0.017   0.000  0.00  0.00    -0.245 OA
BRANCH   4   3
ATOM      3  O   UNL     1      -3.059  -1.412   0.000  0.00  0.00    -0.445 OA
BRANCH   3   2
ATOM      1  C   UNL     1      -4.296  -2.127   0.000  0.00  0.00    +0.051 C 
ATOM      2  C   UNL     1      -3.884  -1.412   0.000  0.00  0.00    +0.209 C 
ENDBRANCH   3   2
ENDBRANCH   4   3
ENDBRANCH   6   4
ENDBRANCH  12   9
TORSDOF 4
