MODEL 1
REMARK VINA RESULT:     -10.8      0.000      0.000
REMARK  Name = 
REMARK  9 active torsions:
REMARK  status: ('A' for Active; 'I' for Inactive)
REMARK    1  A    between atoms: O_2  and  C_3
REMARK    2  A    between atoms: C_3  and  C_4
REMARK    3  A    between atoms: C_4  and  O_5
REMARK    4  A    between atoms: O_5  and  C_6
REMARK    5  A    between atoms: C_13  and  C_18
REMARK    6  A    between atoms: C_18  and  C_20
REMARK    7  A    between atoms: N_22  and  C_23
REMARK    8  A    between atoms: C_23  and  C_24
REMARK    9  A    between atoms: C_27  and  O_28
REMARK                            x       y       z     vdW  Elec       q    Type
REMARK                         _______ _______ _______ _____ _____    ______ ____
ROOT
ATOM      6  C   UNL     1      -0.893  -0.767  24.749  0.00  0.00    +0.134 A 
ATOM      7  C   UNL     1      -0.411  -0.768  24.080  0.00  0.00    +0.032 A 
ATOM      8  C   UNL     1      -0.009  -0.081  23.860  0.00  0.00    -0.023 A 
ATOM      9  C   UNL     1       0.473  -0.081  23.191  0.00  0.00    +0.031 C 
ATOM     10  C   UNL     1      -0.090   0.606  24.310  0.00  0.00    -0.030 A 
ATOM     11  C   UNL     1       0.312   1.293  24.091  0.00  0.00    +0.026 C 
ATOM     12  C   UNL     1       0.231   1.979  24.540  0.00  0.00    +0.005 C 
ATOM     13  C   UNL     1      -0.251   1.980  25.210  0.00  0.00    +0.013 C 
ATOM     14  C   UNL     1      -0.652   1.294  25.430  0.00  0.00    +0.026 C 
ATOM     15  C   UNL     1      -0.572   0.606  24.979  0.00  0.00    -0.027 A 
ATOM     16  C   UNL     1      -0.973  -0.080  25.199  0.00  0.00    +0.008 A 
ATOM     17  C   UNL     1      -1.455  -0.079  25.868  0.00  0.00    +0.034 C 
ENDROOT
BRANCH  13  18
ATOM     18  C   UNL     1      -0.332   2.666  25.660  0.00  0.00    +0.079 C 
ATOM     19  C   UNL     1       0.076   2.743  26.372  0.00  0.00    +0.010 C 
BRANCH  18  20
ATOM     20  C   UNL     1      -0.821   3.277  25.396  0.00  0.00    +0.241 C 
ATOM     21  O   UNL     1      -0.504   3.899  24.958  0.00  0.00    -0.273 OA
ATOM     22  N   UNL     1      -1.628   3.263  25.571  0.00  0.00    -0.201 NA
BRANCH  22  23
ATOM     23  C   UNL     1      -2.116   3.873  25.307  0.00  0.00    +0.141 C 
BRANCH  23  24
ATOM     24  C   UNL     1      -2.936   3.783  25.329  0.00  0.00    -0.000 A 
ATOM     25  C   UNL     1      -3.344   3.895  26.038  0.00  0.00    +0.001 A 
ATOM     26  C   UNL     1      -4.164   3.805  26.060  0.00  0.00    +0.037 A 
ATOM     27  C   UNL     1      -4.575   3.602  25.375  0.00  0.00    +0.139 A 
ATOM     30  C   UNL     1      -4.167   3.489  24.667  0.00  0.00    +0.037 A 
ATOM     31  C   UNL     1      -3.347   3.580  24.645  0.00  0.00    +0.001 A 
BRANCH  27  28
ATOM     28  O   UNL     1      -5.395   3.511  25.398  0.00  0.00    -0.471 OA
ATOM     29  C   UNL     1      -5.723   2.775  25.574  0.00  0.00    +0.252 C 
ENDBRANCH  27  28
ENDBRANCH  23  24
ENDBRANCH  22  23
ENDBRANCH  18  20
ENDBRANCH  13  18
BRANCH   6   5
ATOM      5  O   UNL     1      -1.295  -1.453  24.969  0.00  0.00    -0.473 OA
BRANCH   5   4
ATOM      4  C   UNL     1      -1.761  -1.853  24.417  0.00  0.00    +0.237 C 
BRANCH   4   3
ATOM      3  C   UNL     1      -2.239  -2.480  24.659  0.00  0.00    +0.189 C 
BRANCH   3   2
ATOM      1  C   UNL     1      -3.592  -2.888  24.447  0.00  0.00    +0.174 C 
ATOM      2  O   UNL     1      -2.829  -2.766  24.157  0.00  0.00    -0.347 OA
ENDBRANCH   3   2
ENDBRANCH   4   3
ENDBRANCH   5   4
ENDBRANCH   6   5
TORSDOF 9
ENDMDL
MODEL 2
REMARK VINA RESULT:     -10.0      1.660      4.877
REMARK  Name = 
REMARK  9 active torsions:
REMARK  status: ('A' for Active; 'I' for Inactive)
REMARK    1  A    between atoms: O_2  and  C_3
REMARK    2  A    between atoms: C_3  and  C_4
REMARK    3  A    between atoms: C_4  and  O_5
REMARK    4  A    between atoms: O_5  and  C_6
REMARK    5  A    between atoms: C_13  and  C_18
REMARK    6  A    between atoms: C_18  and  C_20
REMARK    7  A    between atoms: N_22  and  C_23
REMARK    8  A    between atoms: C_23  and  C_24
REMARK    9  A    between atoms: C_27  and  O_28
REMARK                            x       y       z     vdW  Elec       q    Type
REMARK                         _______ _______ _______ _____ _____    ______ ____
ROOT
ATOM      6  C   UNL     1      -1.227   2.990  24.331  0.00  0.00    +0.134 A 
ATOM      7  C   UNL     1      -1.207   3.601  24.885  0.00  0.00    +0.032 A 
ATOM      8  C   UNL     1      -1.893   3.812  25.291  0.00  0.00    -0.023 A 
ATOM      9  C   UNL     1      -1.873   4.423  25.845  0.00  0.00    +0.031 C 
ATOM     10  C   UNL     1      -2.599   3.413  25.144  0.00  0.00    -0.030 A 
ATOM     11  C   UNL     1      -3.286   3.624  25.551  0.00  0.00    +0.026 C 
ATOM     12  C   UNL     1      -3.992   3.225  25.404  0.00  0.00    +0.005 C 
ATOM     13  C   UNL     1      -4.012   2.614  24.850  0.00  0.00    +0.013 C 
ATOM     14  C   UNL     1      -3.327   2.402  24.443  0.00  0.00    +0.026 C 
ATOM     15  C   UNL     1      -2.620   2.802  24.590  0.00  0.00    -0.027 A 
ATOM     16  C   UNL     1      -1.934   2.590  24.183  0.00  0.00    +0.008 A 
ATOM     17  C   UNL     1      -1.955   1.980  23.630  0.00  0.00    +0.034 C 
ENDROOT
BRANCH  13  18
ATOM     18  C   UNL     1      -4.719   2.214  24.702  0.00  0.00    +0.079 C 
ATOM     19  C   UNL     1      -5.265   2.524  24.169  0.00  0.00    +0.010 C 
BRANCH  18  20
ATOM     20  C   UNL     1      -4.878   1.502  25.089  0.00  0.00    +0.241 C 
ATOM     21  O   UNL     1      -5.347   1.497  25.768  0.00  0.00    -0.273 OA
ATOM     22  N   UNL     1      -4.567   0.795  24.796  0.00  0.00    -0.201 NA
BRANCH  22  23
ATOM     23  C   UNL     1      -4.726   0.084  25.183  0.00  0.00    +0.141 C 
BRANCH  23  24
ATOM     24  C   UNL     1      -4.287  -0.590  25.002  0.00  0.00    -0.000 A 
ATOM     25  C   UNL     1      -4.386  -0.963  24.272  0.00  0.00    +0.001 A 
ATOM     26  C   UNL     1      -3.947  -1.637  24.091  0.00  0.00    +0.037 A 
ATOM     27  C   UNL     1      -3.410  -1.939  24.638  0.00  0.00    +0.139 A 
ATOM     30  C   UNL     1      -3.310  -1.567  25.367  0.00  0.00    +0.037 A 
ATOM     31  C   UNL     1      -3.749  -0.892  25.549  0.00  0.00    +0.001 A 
BRANCH  27  28
ATOM     28  O   UNL     1      -2.970  -2.614  24.456  0.00  0.00    -0.471 OA
ATOM     29  C   UNL     1      -2.149  -2.566  24.396  0.00  0.00    +0.252 C 
ENDBRANCH  27  28
ENDBRANCH  23  24
ENDBRANCH  22  23
ENDBRANCH  18  20
ENDBRANCH  13  18
BRANCH   6   5
ATOM      5  O   UNL     1      -0.542   2.778  23.924  0.00  0.00    -0.473 OA
BRANCH   5   4
ATOM      4  C   UNL     1       0.084   2.423  24.328  0.00  0.00    +0.237 C 
BRANCH   4   3
ATOM      3  C   UNL     1       0.773   2.220  23.923  0.00  0.00    +0.189 C 
BRANCH   3   2
ATOM      1  C   UNL     1       1.624   1.113  23.617  0.00  0.00    +0.174 C 
ATOM      2  O   UNL     1       1.221   1.572  24.171  0.00  0.00    -0.347 OA
ENDBRANCH   3   2
ENDBRANCH   4   3
ENDBRANCH   5   4
ENDBRANCH   6   5
TORSDOF 9
ENDMDL
MODEL 3
REMARK VINA RESULT:     -10.0      1.587      3.587
REMARK  Name = 
REMARK  9 active torsions:
REMARK  status: ('A' for Active; 'I' for Inactive)
REMARK    1  A    between atoms: O_2  and  C_3
REMARK    2  A    between atoms: C_3  and  C_4
REMARK    3  A    between atoms: C_4  and  O_5
REMARK    4  A    between atoms: O_5  and  C_6
REMARK    5  A    between atoms: C_13  and  C_18
REMARK    6  A    between atoms: C_18  and  C_20
REMARK    7  A    between atoms: N_22  and  C_23
REMARK    8  A    between atoms: C_23  and  C_24
REMARK    9  A    between atoms: C_27  and  O_28
REMARK                            x       y       z     vdW  Elec       q    Type
REMARK                         _______ _______ _______ _____ _____    ______ ____
ROOT
ATOM      6  C   UNL     1      -2.411  -0.932  24.823  0.00  0.00    +0.134 A 
ATOM      7  C   UNL     1      -2.839  -1.491  24.391  0.00  0.00    +0.032 A 
ATOM      8  C   UNL     1      -3.638  -1.363  24.231  0.00  0.00    -0.023 A 
ATOM      9  C   UNL     1      -4.066  -1.921  23.800  0.00  0.00    +0.031 C 
ATOM     10  C   UNL     1      -4.010  -0.679  24.502  0.00  0.00    -0.030 A 
ATOM     11  C   UNL     1      -4.809  -0.551  24.341  0.00  0.00    +0.026 C 
ATOM     12  C   UNL     1      -5.180   0.133  24.612  0.00  0.00    +0.005 C 
ATOM     13  C   UNL     1      -4.753   0.692  25.043  0.00  0.00    +0.013 C 
ATOM     14  C   UNL     1      -3.954   0.565  25.204  0.00  0.00    +0.026 C 
ATOM     15  C   UNL     1      -3.582  -0.120  24.933  0.00  0.00    -0.027 A 
ATOM     16  C   UNL     1      -2.783  -0.247  25.094  0.00  0.00    +0.008 A 
ATOM     17  C   UNL     1      -2.356   0.311  25.525  0.00  0.00    +0.034 C 
ENDROOT
BRANCH  13  18
ATOM     18  C   UNL     1      -5.124   1.377  25.314  0.00  0.00    +0.079 C 
ATOM     19  C   UNL     1      -5.647   1.339  25.949  0.00  0.00    +0.010 C 
BRANCH  18  20
ATOM     20  C   UNL     1      -4.970   2.101  24.949  0.00  0.00    +0.241 C 
ATOM     21  O   UNL     1      -5.348   2.295  24.242  0.00  0.00    -0.273 OA
ATOM     22  N   UNL     1      -4.436   2.630  25.291  0.00  0.00    -0.201 NA
BRANCH  22  23
ATOM     23  C   UNL     1      -4.283   3.354  24.925  0.00  0.00    +0.141 C 
BRANCH  23  24
ATOM     24  C   UNL     1      -3.571   3.745  25.070  0.00  0.00    -0.000 A 
ATOM     25  C   UNL     1      -3.395   4.011  25.832  0.00  0.00    +0.001 A 
ATOM     26  C   UNL     1      -2.683   4.402  25.976  0.00  0.00    +0.037 A 
ATOM     27  C   UNL     1      -2.148   4.527  25.362  0.00  0.00    +0.139 A 
ATOM     30  C   UNL     1      -2.324   4.261  24.601  0.00  0.00    +0.037 A 
ATOM     31  C   UNL     1      -3.037   3.870  24.456  0.00  0.00    +0.001 A 
BRANCH  27  28
ATOM     28  O   UNL     1      -1.436   4.919  25.507  0.00  0.00    -0.471 OA
ATOM     29  C   UNL     1      -0.841   4.917  24.935  0.00  0.00    +0.252 C 
ENDBRANCH  27  28
ENDBRANCH  23  24
ENDBRANCH  22  23
ENDBRANCH  18  20
ENDBRANCH  13  18
BRANCH   6   5
ATOM      5  O   UNL     1      -1.612  -1.059  24.984  0.00  0.00    -0.473 OA
BRANCH   5   4
ATOM      4  C   UNL     1      -1.085  -1.204  24.365  0.00  0.00    +0.237 C 
BRANCH   4   3
ATOM      3  C   UNL     1      -0.295  -0.978  24.436  0.00  0.00    +0.189 C 
BRANCH   3   2
ATOM      1  C   UNL     1       0.654  -0.367  23.559  0.00  0.00    +0.174 C 
ATOM      2  O   UNL     1       0.207  -1.023  23.781  0.00  0.00    -0.347 OA
ENDBRANCH   3   2
ENDBRANCH   4   3
ENDBRANCH   5   4
ENDBRANCH   6   5
TORSDOF 9
ENDMDL
MODEL 4
REMARK VINA RESULT:     -10.0      1.571      4.178
REMARK  Name = 
REMARK  9 active torsions:
REMARK  status: ('A' for Active; 'I' for Inactive)
REMARK    1  A    between atoms: O_2  and  C_3
REMARK    2  A    between atoms: C_3  and  C_4
REMARK    3  A    between atoms: C_4  and  O_5
REMARK    4  A    between atoms: O_5  and  C_6
REMARK    5  A    between atoms: C_13  and  C_18
REMARK    6  A    between atoms: C_18  and  C_20
REMARK    7  A    between atoms: N_22  and  C_23
REMARK    8  A    between atoms: C_23  and  C_24
REMARK    9  A    between atoms: C_27  and  O_28
REMARK                            x       y       z     vdW  Elec       q    Type
REMARK                         _______ _______ _______ _____ _____    ______ ____
ROOT
ATOM      6  C   UNL     1      -4.611   0.569  24.519  0.00  0.00    +0.134 A 
ATOM      7  C   UNL     1      -5.284   0.593  24.996  0.00  0.00    +0.032 A 
ATOM      8  C   UNL     1      -5.496   1.294  25.375  0.00  0.00    -0.023 A 
ATOM      9  C   UNL     1      -6.170   1.318  25.851  0.00  0.00    +0.031 C 
ATOM     10  C   UNL     1      -5.036   1.971  25.278  0.00  0.00    -0.030 A 
ATOM     11  C   UNL     1      -5.248   2.673  25.657  0.00  0.00    +0.026 C 
ATOM     12  C   UNL     1      -4.788   3.350  25.560  0.00  0.00    +0.005 C 
ATOM     13  C   UNL     1      -4.115   3.326  25.084  0.00  0.00    +0.013 C 
ATOM     14  C   UNL     1      -3.902   2.626  24.705  0.00  0.00    +0.026 C 
ATOM     15  C   UNL     1      -4.363   1.948  24.802  0.00  0.00    -0.027 A 
ATOM     16  C   UNL     1      -4.150   1.247  24.422  0.00  0.00    +0.008 A 
ATOM     17  C   UNL     1      -3.477   1.223  23.947  0.00  0.00    +0.034 C 
ENDROOT
BRANCH  13  18
ATOM     18  C   UNL     1      -3.654   4.003  24.987  0.00  0.00    +0.079 C 
ATOM     19  C   UNL     1      -3.911   4.610  24.492  0.00  0.00    +0.010 C 
BRANCH  18  20
ATOM     20  C   UNL     1      -2.934   4.073  25.386  0.00  0.00    +0.241 C 
ATOM     21  O   UNL     1      -2.916   4.365  26.157  0.00  0.00    -0.273 OA
ATOM     22  N   UNL     1      -2.232   3.850  25.012  0.00  0.00    -0.201 NA
BRANCH  22  23
ATOM     23  C   UNL     1      -1.513   3.919  25.411  0.00  0.00    +0.141 C 
BRANCH  23  24
ATOM     24  C   UNL     1      -0.891   3.409  25.230  0.00  0.00    -0.000 A 
ATOM     25  C   UNL     1      -0.622   2.870  25.795  0.00  0.00    +0.001 A 
ATOM     26  C   UNL     1      -0.000   2.360  25.613  0.00  0.00    +0.037 A 
ATOM     27  C   UNL     1       0.353   2.388  24.869  0.00  0.00    +0.139 A 
ATOM     30  C   UNL     1       0.084   2.926  24.305  0.00  0.00    +0.037 A 
ATOM     31  C   UNL     1      -0.538   3.437  24.486  0.00  0.00    +0.001 A 
BRANCH  27  28
ATOM     28  O   UNL     1       0.976   1.877  24.688  0.00  0.00    -0.471 OA
ATOM     29  C   UNL     1       0.893   1.327  24.078  0.00  0.00    +0.252 C 
ENDBRANCH  27  28
ENDBRANCH  23  24
ENDBRANCH  22  23
ENDBRANCH  18  20
ENDBRANCH  13  18
BRANCH   6   5
ATOM      5  O   UNL     1      -4.398  -0.132  24.140  0.00  0.00    -0.473 OA
BRANCH   5   4
ATOM      4  C   UNL     1      -4.338  -0.833  24.572  0.00  0.00    +0.237 C 
BRANCH   4   3
ATOM      3  C   UNL     1      -4.142  -1.537  24.189  0.00  0.00    +0.189 C 
BRANCH   3   2
ATOM      1  C   UNL     1      -3.590  -2.854  24.238  0.00  0.00    +0.174 C 
ATOM      2  O   UNL     1      -3.865  -2.180  24.627  0.00  0.00    -0.347 OA
ENDBRANCH   3   2
ENDBRANCH   4   3
ENDBRANCH   5   4
ENDBRANCH   6   5
TORSDOF 9
ENDMDL
MODEL 5
REMARK VINA RESULT:      -9.8      1.237      4.847
REMARK  Name = 
REMARK  9 active torsions:
REMARK  status: ('A' for Active; 'I' for Inactive)
REMARK    1  A    between atoms: O_2  and  C_3
REMARK    2  A    between atoms: C_3  and  C_4
REMARK    3  A    between atoms: C_4  and  O_5
REMARK    4  A    between atoms: O_5  and  C_6
REMARK    5  A    between atoms: C_13  and  C_18
REMARK    6  A    between atoms: C_18  and  C_20
REMARK    7  A    between atoms: N_22  and  C_23
REMARK    8  A    between atoms: C_23  and  C_24
REMARK    9  A    between atoms: C_27  and  O_28
REMARK                            x       y       z     vdW  Elec       q    Type
REMARK                         _______ _______ _______ _____ _____    ______ ____
ROOT
ATOM      6  C   UNL     1      -3.052   3.537  24.745  0.00  0.00    +0.134 A 
ATOM      7  C   UNL     1      -2.570   4.153  25.005  0.00  0.00    +0.032 A 
ATOM      8  C   UNL     1      -1.764   4.023  25.127  0.00  0.00    -0.023 A 
ATOM      9  C   UNL     1      -1.282   4.640  25.387  0.00  0.00    +0.031 C 
ATOM     10  C   UNL     1      -1.441   3.277  24.989  0.00  0.00    -0.030 A 
ATOM     11  C   UNL     1      -0.635   3.147  25.111  0.00  0.00    +0.026 C 
ATOM     12  C   UNL     1      -0.312   2.401  24.973  0.00  0.00    +0.005 C 
ATOM     13  C   UNL     1      -0.795   1.784  24.712  0.00  0.00    +0.013 C 
ATOM     14  C   UNL     1      -1.600   1.913  24.590  0.00  0.00    +0.026 C 
ATOM     15  C   UNL     1      -1.923   2.661  24.728  0.00  0.00    -0.027 A 
ATOM     16  C   UNL     1      -2.729   2.790  24.606  0.00  0.00    +0.008 A 
ATOM     17  C   UNL     1      -3.211   2.174  24.346  0.00  0.00    +0.034 C 
ENDROOT
BRANCH  13  18
ATOM     18  C   UNL     1      -0.472   1.038  24.574  0.00  0.00    +0.079 C 
ATOM     19  C   UNL     1       0.033   0.919  23.934  0.00  0.00    +0.010 C 
BRANCH  18  20
ATOM     20  C   UNL     1      -0.656   0.410  25.077  0.00  0.00    +0.241 C 
ATOM     21  O   UNL     1      -0.405   0.423  25.863  0.00  0.00    -0.273 OA
ATOM     22  N   UNL     1      -1.092  -0.232  24.794  0.00  0.00    -0.201 NA
BRANCH  22  23
ATOM     23  C   UNL     1      -1.275  -0.859  25.297  0.00  0.00    +0.141 C 
BRANCH  23  24
ATOM     24  C   UNL     1      -1.882  -1.382  25.098  0.00  0.00    -0.000 A 
ATOM     25  C   UNL     1      -1.732  -2.014  24.589  0.00  0.00    +0.001 A 
ATOM     26  C   UNL     1      -2.339  -2.536  24.391  0.00  0.00    +0.037 A 
ATOM     27  C   UNL     1      -3.095  -2.427  24.700  0.00  0.00    +0.139 A 
ATOM     30  C   UNL     1      -3.245  -1.795  25.209  0.00  0.00    +0.037 A 
ATOM     31  C   UNL     1      -2.638  -1.272  25.407  0.00  0.00    +0.001 A 
BRANCH  27  28
ATOM     28  O   UNL     1      -3.702  -2.950  24.501  0.00  0.00    -0.471 OA
ATOM     29  C   UNL     1      -4.225  -2.761  23.892  0.00  0.00    +0.252 C 
ENDBRANCH  27  28
ENDBRANCH  23  24
ENDBRANCH  22  23
ENDBRANCH  18  20
ENDBRANCH  13  18
BRANCH   6   5
ATOM      5  O   UNL     1      -3.858   3.666  24.622  0.00  0.00    -0.473 OA
BRANCH   5   4
ATOM      4  C   UNL     1      -4.353   3.818  25.265  0.00  0.00    +0.237 C 
BRANCH   4   3
ATOM      3  C   UNL     1      -5.172   3.810  25.165  0.00  0.00    +0.189 C 
BRANCH   3   2
ATOM      1  C   UNL     1      -6.225   3.130  25.852  0.00  0.00    +0.174 C 
ATOM      2  O   UNL     1      -5.667   3.736  25.822  0.00  0.00    -0.347 OA
ENDBRANCH   3   2
ENDBRANCH   4   3
ENDBRANCH   5   4
ENDBRANCH   6   5
TORSDOF 9
ENDMDL
MODEL 6
REMARK VINA RESULT:      -9.7      1.776      5.845
REMARK  Name = 
REMARK  9 active torsions:
REMARK  status: ('A' for Active; 'I' for Inactive)
REMARK    1  A    between atoms: O_2  and  C_3
REMARK    2  A    between atoms: C_3  and  C_4
REMARK    3  A    between atoms: C_4  and  O_5
REMARK    4  A    between atoms: O_5  and  C_6
REMARK    5  A    between atoms: C_13  and  C_18
REMARK    6  A    between atoms: C_18  and  C_20
REMARK    7  A    between atoms: N_22  and  C_23
REMARK    8  A    between atoms: C_23  and  C_24
REMARK    9  A    between atoms: C_27  and  O_28
REMARK                            x       y       z     vdW  Elec       q    Type
REMARK                         _______ _______ _______ _____ _____    ______ ____
ROOT
ATOM      6  C   UNL     1      -3.797   3.303  24.688  0.00  0.00    +0.134 A 
ATOM      7  C   UNL     1      -4.475   3.510  25.110  0.00  0.00    +0.032 A 
ATOM      8  C   UNL     1      -4.997   2.925  25.365  0.00  0.00    -0.023 A 
ATOM      9  C   UNL     1      -5.674   3.132  25.788  0.00  0.00    +0.031 C 
ATOM     10  C   UNL     1      -4.842   2.132  25.199  0.00  0.00    -0.030 A 
ATOM     11  C   UNL     1      -5.364   1.546  25.454  0.00  0.00    +0.026 C 
ATOM     12  C   UNL     1      -5.210   0.754  25.287  0.00  0.00    +0.005 C 
ATOM     13  C   UNL     1      -4.532   0.546  24.865  0.00  0.00    +0.013 C 
ATOM     14  C   UNL     1      -4.009   1.131  24.609  0.00  0.00    +0.026 C 
ATOM     15  C   UNL     1      -4.165   1.924  24.776  0.00  0.00    -0.027 A 
ATOM     16  C   UNL     1      -3.642   2.509  24.521  0.00  0.00    +0.008 A 
ATOM     17  C   UNL     1      -2.965   2.301  24.099  0.00  0.00    +0.034 C 
ENDROOT
BRANCH  13  18
ATOM     18  C   UNL     1      -4.376  -0.246  24.698  0.00  0.00    +0.079 C 
ATOM     19  C   UNL     1      -4.834  -0.649  24.143  0.00  0.00    +0.010 C 
BRANCH  18  20
ATOM     20  C   UNL     1      -3.761  -0.636  25.086  0.00  0.00    +0.241 C 
ATOM     21  O   UNL     1      -3.857  -0.882  25.868  0.00  0.00    -0.273 OA
ATOM     22  N   UNL     1      -3.050  -0.780  24.692  0.00  0.00    -0.201 NA
BRANCH  22  23
ATOM     23  C   UNL     1      -2.436  -1.170  25.081  0.00  0.00    +0.141 C 
BRANCH  23  24
ATOM     24  C   UNL     1      -1.660  -1.084  24.814  0.00  0.00    -0.000 A 
ATOM     25  C   UNL     1      -1.146  -0.566  25.200  0.00  0.00    +0.001 A 
ATOM     26  C   UNL     1      -0.370  -0.480  24.932  0.00  0.00    +0.037 A 
ATOM     27  C   UNL     1      -0.108  -0.912  24.281  0.00  0.00    +0.139 A 
ATOM     30  C   UNL     1      -0.621  -1.430  23.896  0.00  0.00    +0.037 A 
ATOM     31  C   UNL     1      -1.398  -1.516  24.163  0.00  0.00    +0.001 A 
BRANCH  27  28
ATOM     28  O   UNL     1       0.668  -0.826  24.014  0.00  0.00    -0.471 OA
ATOM     29  C   UNL     1       0.830  -0.334  23.372  0.00  0.00    +0.252 C 
ENDBRANCH  27  28
ENDBRANCH  23  24
ENDBRANCH  22  23
ENDBRANCH  18  20
ENDBRANCH  13  18
BRANCH   6   5
ATOM      5  O   UNL     1      -3.274   3.887  24.432  0.00  0.00    -0.473 OA
BRANCH   5   4
ATOM      4  C   UNL     1      -2.819   4.302  24.982  0.00  0.00    +0.237 C 
BRANCH   4   3
ATOM      3  C   UNL     1      -2.235   4.823  24.723  0.00  0.00    +0.189 C 
BRANCH   3   2
ATOM      1  C   UNL     1      -0.907   5.269  25.005  0.00  0.00    +0.174 C 
ATOM      2  O   UNL     1      -1.677   5.116  25.257  0.00  0.00    -0.347 OA
ENDBRANCH   3   2
ENDBRANCH   4   3
ENDBRANCH   5   4
ENDBRANCH   6   5
TORSDOF 9
ENDMDL
MODEL 7
REMARK VINA RESULT:      -9.7      1.756      4.942
REMARK  Name = 
REMARK  9 active torsions:
REMARK  status: ('A' for Active; 'I' for Inactive)
REMARK    1  A    between atoms: O_2  and  C_3
REMARK    2  A    between atoms: C_3  and  C_4
REMARK    3  A    between atoms: C_4  and  O_5
REMARK    4  A    between atoms: O_5  and  C_6
REMARK    5  A    between atoms: C_13  and  C_18
REMARK    6  A    between atoms: C_18  and  C_20
REMARK    7  A    between atoms: N_22  and  C_23
REMARK    8  A    between atoms: C_23  and  C_24
REMARK    9  A    between atoms: C_27  and  O_28
REMARK                            x       y       z     vdW  Elec       q    Type
REMARK                         _______ _______ _______ _____ _____    ______ ____
ROOT
ATOM      6  C   UNL     1      -0.733   3.049  25.618  0.00  0.00    +0.134 A 
ATOM      7  C   UNL     1      -0.854   3.864  25.671  0.00  0.00    +0.032 A 
ATOM      8  C   UNL     1      -1.545   4.199  25.369  0.00  0.00    -0.023 A 
ATOM      9  C   UNL     1      -1.666   5.013  25.422  0.00  0.00    +0.031 C 
ATOM     10  C   UNL     1      -2.115   3.720  25.015  0.00  0.00    -0.030 A 
ATOM     11  C   UNL     1      -2.806   4.055  24.713  0.00  0.00    +0.026 C 
ATOM     12  C   UNL     1      -3.376   3.576  24.358  0.00  0.00    +0.005 C 
ATOM     13  C   UNL     1      -3.256   2.762  24.305  0.00  0.00    +0.013 C 
ATOM     14  C   UNL     1      -2.565   2.426  24.607  0.00  0.00    +0.026 C 
ATOM     15  C   UNL     1      -1.995   2.906  24.962  0.00  0.00    -0.027 A 
ATOM     16  C   UNL     1      -1.304   2.570  25.263  0.00  0.00    +0.008 A 
ATOM     17  C   UNL     1      -1.184   1.756  25.210  0.00  0.00    +0.034 C 
ENDROOT
BRANCH  13  18
ATOM     18  C   UNL     1      -3.826   2.282  23.951  0.00  0.00    +0.079 C 
ATOM     19  C   UNL     1      -3.997   2.369  23.149  0.00  0.00    +0.010 C 
BRANCH  18  20
ATOM     20  C   UNL     1      -4.224   1.715  24.399  0.00  0.00    +0.241 C 
ATOM     21  O   UNL     1      -4.783   1.950  24.959  0.00  0.00    -0.273 OA
ATOM     22  N   UNL     1      -4.063   0.913  24.287  0.00  0.00    -0.201 NA
BRANCH  22  23
ATOM     23  C   UNL     1      -4.462   0.347  24.736  0.00  0.00    +0.141 C 
BRANCH  23  24
ATOM     24  C   UNL     1      -4.203  -0.437  24.733  0.00  0.00    -0.000 A 
ATOM     25  C   UNL     1      -4.336  -0.912  24.071  0.00  0.00    +0.001 A 
ATOM     26  C   UNL     1      -4.078  -1.695  24.067  0.00  0.00    +0.037 A 
ATOM     27  C   UNL     1      -3.688  -2.004  24.724  0.00  0.00    +0.139 A 
ATOM     30  C   UNL     1      -3.555  -1.530  25.386  0.00  0.00    +0.037 A 
ATOM     31  C   UNL     1      -3.813  -0.745  25.390  0.00  0.00    +0.001 A 
BRANCH  27  28
ATOM     28  O   UNL     1      -3.430  -2.788  24.721  0.00  0.00    -0.471 OA
ATOM     29  C   UNL     1      -2.641  -2.961  24.550  0.00  0.00    +0.252 C 
ENDBRANCH  27  28
ENDBRANCH  23  24
ENDBRANCH  22  23
ENDBRANCH  18  20
ENDBRANCH  13  18
BRANCH   6   5
ATOM      5  O   UNL     1      -0.043   2.714  25.919  0.00  0.00    -0.473 OA
BRANCH   5   4
ATOM      4  C   UNL     1       0.207   2.901  26.684  0.00  0.00    +0.237 C 
BRANCH   4   3
ATOM      3  C   UNL     1       0.763   2.425  27.064  0.00  0.00    +0.189 C 
BRANCH   3   2
ATOM      1  C   UNL     1       1.349   2.510  28.364  0.00  0.00    +0.174 C 
ATOM      2  O   UNL     1       1.311   2.763  27.580  0.00  0.00    -0.347 OA
ENDBRANCH   3   2
ENDBRANCH   4   3
ENDBRANCH   5   4
ENDBRANCH   6   5
TORSDOF 9
ENDMDL
MODEL 8
REMARK VINA RESULT:      -9.4      1.902      3.585
REMARK  Name = 
REMARK  9 active torsions:
REMARK  status: ('A' for Active; 'I' for Inactive)
REMARK    1  A    between atoms: O_2  and  C_3
REMARK    2  A    between atoms: C_3  and  C_4
REMARK    3  A    between atoms: C_4  and  O_5
REMARK    4  A    between atoms: O_5  and  C_6
REMARK    5  A    between atoms: C_13  and  C_18
REMARK    6  A    between atoms: C_18  and  C_20
REMARK    7  A    between atoms: N_22  and  C_23
REMARK    8  A    between atoms: C_23  and  C_24
REMARK    9  A    between atoms: C_27  and  O_28
REMARK                            x       y       z     vdW  Elec       q    Type
REMARK                         _______ _______ _______ _____ _____    ______ ____
ROOT
ATOM      6  C   UNL     1      -0.408  -0.230  24.123  0.00  0.00    +0.134 A 
ATOM      7  C   UNL     1      -0.218  -0.862  24.617  0.00  0.00    +0.032 A 
ATOM      8  C   UNL     1      -0.819  -1.287  24.991  0.00  0.00    -0.023 A 
ATOM      9  C   UNL     1      -0.629  -1.920  25.486  0.00  0.00    +0.031 C 
ATOM     10  C   UNL     1      -1.608  -1.080  24.872  0.00  0.00    -0.030 A 
ATOM     11  C   UNL     1      -2.208  -1.505  25.246  0.00  0.00    +0.026 C 
ATOM     12  C   UNL     1      -2.997  -1.298  25.126  0.00  0.00    +0.005 C 
ATOM     13  C   UNL     1      -3.187  -0.666  24.631  0.00  0.00    +0.013 C 
ATOM     14  C   UNL     1      -2.588  -0.240  24.257  0.00  0.00    +0.026 C 
ATOM     15  C   UNL     1      -1.797  -0.448  24.377  0.00  0.00    -0.027 A 
ATOM     16  C   UNL     1      -1.198  -0.022  24.002  0.00  0.00    +0.008 A 
ATOM     17  C   UNL     1      -1.388   0.610  23.508  0.00  0.00    +0.034 C 
ENDROOT
BRANCH  13  18
ATOM     18  C   UNL     1      -3.976  -0.458  24.511  0.00  0.00    +0.079 C 
ATOM     19  C   UNL     1      -4.437  -0.882  23.975  0.00  0.00    +0.010 C 
BRANCH  18  20
ATOM     20  C   UNL     1      -4.304   0.175  24.928  0.00  0.00    +0.241 C 
ATOM     21  O   UNL     1      -4.645   0.048  25.668  0.00  0.00    -0.273 OA
ATOM     22  N   UNL     1      -4.289   0.934  24.604  0.00  0.00    -0.201 NA
BRANCH  22  23
ATOM     23  C   UNL     1      -4.617   1.566  25.021  0.00  0.00    +0.141 C 
BRANCH  23  24
ATOM     24  C   UNL     1      -4.286   2.318  24.954  0.00  0.00    -0.000 A 
ATOM     25  C   UNL     1      -4.294   2.710  24.227  0.00  0.00    +0.001 A 
ATOM     26  C   UNL     1      -3.963   3.462  24.161  0.00  0.00    +0.037 A 
ATOM     27  C   UNL     1      -3.623   3.823  24.819  0.00  0.00    +0.139 A 
ATOM     30  C   UNL     1      -3.615   3.432  25.546  0.00  0.00    +0.037 A 
ATOM     31  C   UNL     1      -3.946   2.679  25.613  0.00  0.00    +0.001 A 
BRANCH  27  28
ATOM     28  O   UNL     1      -3.292   4.576  24.752  0.00  0.00    -0.471 OA
ATOM     29  C   UNL     1      -2.513   4.706  24.990  0.00  0.00    +0.252 C 
ENDBRANCH  27  28
ENDBRANCH  23  24
ENDBRANCH  22  23
ENDBRANCH  18  20
ENDBRANCH  13  18
BRANCH   6   5
ATOM      5  O   UNL     1       0.191   0.196  23.748  0.00  0.00    -0.473 OA
BRANCH   5   4
ATOM      4  C   UNL     1       0.819  -0.204  23.391  0.00  0.00    +0.237 C 
BRANCH   4   3
ATOM      3  C   UNL     1       1.447   0.222  23.068  0.00  0.00    +0.189 C 
BRANCH   3   2
ATOM      1  C   UNL     1       2.712   0.170  22.405  0.00  0.00    +0.174 C 
ATOM      2  O   UNL     1       1.959  -0.142  22.532  0.00  0.00    -0.347 OA
ENDBRANCH   3   2
ENDBRANCH   4   3
ENDBRANCH   5   4
ENDBRANCH   6   5
TORSDOF 9
ENDMDL
MODEL 9
REMARK VINA RESULT:      -9.2      1.544      4.149
REMARK  Name = 
REMARK  9 active torsions:
REMARK  status: ('A' for Active; 'I' for Inactive)
REMARK    1  A    between atoms: O_2  and  C_3
REMARK    2  A    between atoms: C_3  and  C_4
REMARK    3  A    between atoms: C_4  and  O_5
REMARK    4  A    between atoms: O_5  and  C_6
REMARK    5  A    between atoms: C_13  and  C_18
REMARK    6  A    between atoms: C_18  and  C_20
REMARK    7  A    between atoms: N_22  and  C_23
REMARK    8  A    between atoms: C_23  and  C_24
REMARK    9  A    between atoms: C_27  and  O_28
REMARK                            x       y       z     vdW  Elec       q    Type
REMARK                         _______ _______ _______ _____ _____    ______ ____
ROOT
ATOM      6  C   UNL     1      -4.340  -0.178  25.085  0.00  0.00    +0.134 A 
ATOM      7  C   UNL     1      -4.603  -0.789  24.597  0.00  0.00    +0.032 A 
ATOM      8  C   UNL     1      -4.060  -1.320  24.273  0.00  0.00    -0.023 A 
ATOM      9  C   UNL     1      -4.322  -1.931  23.785  0.00  0.00    +0.031 C 
ATOM     10  C   UNL     1      -3.256  -1.239  24.436  0.00  0.00    -0.030 A 
ATOM     11  C   UNL     1      -2.713  -1.769  24.112  0.00  0.00    +0.026 C 
ATOM     12  C   UNL     1      -1.909  -1.689  24.275  0.00  0.00    +0.005 C 
ATOM     13  C   UNL     1      -1.646  -1.077  24.763  0.00  0.00    +0.013 C 
ATOM     14  C   UNL     1      -2.188  -0.546  25.087  0.00  0.00    +0.026 C 
ATOM     15  C   UNL     1      -2.993  -0.627  24.924  0.00  0.00    -0.027 A 
ATOM     16  C   UNL     1      -3.535  -0.097  25.248  0.00  0.00    +0.008 A 
ATOM     17  C   UNL     1      -3.273   0.514  25.735  0.00  0.00    +0.034 C 
ENDROOT
BRANCH  13  18
ATOM     18  C   UNL     1      -0.842  -0.996  24.926  0.00  0.00    +0.079 C 
ATOM     19  C   UNL     1      -0.478  -1.500  25.467  0.00  0.00    +0.010 C 
BRANCH  18  20
ATOM     20  C   UNL     1      -0.402  -0.408  24.548  0.00  0.00    +0.241 C 
ATOM     21  O   UNL     1       0.011  -0.583  23.856  0.00  0.00    -0.273 OA
ATOM     22  N   UNL     1      -0.375   0.355  24.863  0.00  0.00    -0.201 NA
BRANCH  22  23
ATOM     23  C   UNL     1       0.064   0.941  24.485  0.00  0.00    +0.141 C 
BRANCH  23  24
ATOM     24  C   UNL     1      -0.093   1.736  24.639  0.00  0.00    -0.000 A 
ATOM     25  C   UNL     1      -0.431   2.210  24.053  0.00  0.00    +0.001 A 
ATOM     26  C   UNL     1      -0.588   3.005  24.206  0.00  0.00    +0.037 A 
ATOM     27  C   UNL     1      -0.408   3.326  24.943  0.00  0.00    +0.139 A 
ATOM     30  C   UNL     1      -0.070   2.854  25.529  0.00  0.00    +0.037 A 
ATOM     31  C   UNL     1       0.088   2.058  25.376  0.00  0.00    +0.001 A 
BRANCH  27  28
ATOM     28  O   UNL     1      -0.565   4.122  25.096  0.00  0.00    -0.471 OA
ATOM     29  C   UNL     1      -1.340   4.369  25.237  0.00  0.00    +0.252 C 
ENDBRANCH  27  28
ENDBRANCH  23  24
ENDBRANCH  22  23
ENDBRANCH  18  20
ENDBRANCH  13  18
BRANCH   6   5
ATOM      5  O   UNL     1      -4.882   0.353  25.409  0.00  0.00    -0.473 OA
BRANCH   5   4
ATOM      4  C   UNL     1      -5.192   0.961  24.945  0.00  0.00    +0.237 C 
BRANCH   4   3
ATOM      3  C   UNL     1      -5.705   1.514  25.279  0.00  0.00    +0.189 C 
BRANCH   3   2
ATOM      1  C   UNL     1      -5.826   2.937  25.296  0.00  0.00    +0.174 C 
ATOM      2  O   UNL     1      -5.860   2.223  24.885  0.00  0.00    -0.347 OA
ENDBRANCH   3   2
ENDBRANCH   4   3
ENDBRANCH   5   4
ENDBRANCH   6   5
TORSDOF 9
ENDMDL
MODEL 10
REMARK VINA RESULT:      -8.8      1.909      3.593
REMARK  Name = 
REMARK  9 active torsions:
REMARK  status: ('A' for Active; 'I' for Inactive)
REMARK    1  A    between atoms: O_2  and  C_3
REMARK    2  A    between atoms: C_3  and  C_4
REMARK    3  A    between atoms: C_4  and  O_5
REMARK    4  A    between atoms: O_5  and  C_6
REMARK    5  A    between atoms: C_13  and  C_18
REMARK    6  A    between atoms: C_18  and  C_20
REMARK    7  A    between atoms: N_22  and  C_23
REMARK    8  A    between atoms: C_23  and  C_24
REMARK    9  A    between atoms: C_27  and  O_28
REMARK                            x       y       z     vdW  Elec       q    Type
REMARK                         _______ _______ _______ _____ _____    ______ ____
ROOT
ATOM      6  C   UNL     1       0.595   0.404  23.638  0.00  0.00    +0.134 A 
ATOM      7  C   UNL     1       0.714   1.112  24.045  0.00  0.00    +0.032 A 
ATOM      8  C   UNL     1       0.173   1.352  24.621  0.00  0.00    -0.023 A 
ATOM      9  C   UNL     1       0.292   2.060  25.027  0.00  0.00    +0.031 C 
ATOM     10  C   UNL     1      -0.485   0.885  24.789  0.00  0.00    -0.030 A 
ATOM     11  C   UNL     1      -1.026   1.125  25.364  0.00  0.00    +0.026 C 
ATOM     12  C   UNL     1      -1.684   0.658  25.533  0.00  0.00    +0.005 C 
ATOM     13  C   UNL     1      -1.803  -0.050  25.126  0.00  0.00    +0.013 C 
ATOM     14  C   UNL     1      -1.263  -0.291  24.551  0.00  0.00    +0.026 C 
ATOM     15  C   UNL     1      -0.604   0.177  24.382  0.00  0.00    -0.027 A 
ATOM     16  C   UNL     1      -0.064  -0.064  23.807  0.00  0.00    +0.008 A 
ATOM     17  C   UNL     1      -0.182  -0.771  23.401  0.00  0.00    +0.034 C 
ENDROOT
BRANCH  13  18
ATOM     18  C   UNL     1      -2.461  -0.517  25.294  0.00  0.00    +0.079 C 
ATOM     19  C   UNL     1      -2.402  -1.131  25.841  0.00  0.00    +0.010 C 
BRANCH  18  20
ATOM     20  C   UNL     1      -3.179  -0.370  24.914  0.00  0.00    +0.241 C 
ATOM     21  O   UNL     1      -3.432  -0.864  24.304  0.00  0.00    -0.273 OA
ATOM     22  N   UNL     1      -3.643   0.273  25.145  0.00  0.00    -0.201 NA
BRANCH  22  23
ATOM     23  C   UNL     1      -4.361   0.420  24.765  0.00  0.00    +0.141 C 
BRANCH  23  24
ATOM     24  C   UNL     1      -4.765   1.124  24.907  0.00  0.00    -0.000 A 
ATOM     25  C   UNL     1      -4.605   1.792  24.448  0.00  0.00    +0.001 A 
ATOM     26  C   UNL     1      -5.009   2.496  24.591  0.00  0.00    +0.037 A 
ATOM     27  C   UNL     1      -5.572   2.535  25.191  0.00  0.00    +0.139 A 
ATOM     30  C   UNL     1      -5.733   1.868  25.650  0.00  0.00    +0.037 A 
ATOM     31  C   UNL     1      -5.328   1.163  25.508  0.00  0.00    +0.001 A 
BRANCH  27  28
ATOM     28  O   UNL     1      -5.977   3.240  25.334  0.00  0.00    -0.471 OA
ATOM     29  C   UNL     1      -5.568   3.899  25.617  0.00  0.00    +0.252 C 
ENDBRANCH  27  28
ENDBRANCH  23  24
ENDBRANCH  22  23
ENDBRANCH  18  20
ENDBRANCH  13  18
BRANCH   6   5
ATOM      5  O   UNL     1       1.135   0.163  23.063  0.00  0.00    -0.473 OA
BRANCH   5   4
ATOM      4  C   UNL     1       1.898   0.478  23.056  0.00  0.00    +0.237 C 
BRANCH   4   3
ATOM      3  C   UNL     1       2.488   0.117  22.607  0.00  0.00    +0.189 C 
BRANCH   3   2
ATOM      1  C   UNL     1       3.892   0.378  22.544  0.00  0.00    +0.174 C 
ATOM      2  O   UNL     1       3.120   0.565  22.321  0.00  0.00    -0.347 OA
ENDBRANCH   3   2
ENDBRANCH   4   3
ENDBRANCH   5   4
ENDBRANCH   6   5
TORSDOF 9
ENDMDL
