MODEL 1
REMARK VINA RESULT:     -12.6      0.000      0.000
REMARK  Name = 
REMARK  4 active torsions:
REMARK  status: ('A' for Active; 'I' for Inactive)
REMARK    1  A    between atoms: C_5  and  C_6
REMARK    2  A    between atoms: C_6  and  N_7
REMARK    3  A    between atoms: C_12  and  C_13
REMARK    4  A    between atoms: N_15  and  C_16
REMARK                            x       y       z     vdW  Elec       q    Type
REMARK                         _______ _______ _______ _____ _____    ______ ____
ROOT
ATOM      7  N   UNL     1      -3.492   1.714  24.762  0.00  0.00    -0.257 NA
ATOM      8  C   UNL     1      -3.655   2.488  24.994  0.00  0.00    +0.121 C 
ATOM      9  C   UNL     1      -4.426   2.708  25.189  0.00  0.00    +0.090 A 
ATOM     10  C   UNL     1      -5.035   2.152  25.152  0.00  0.00    +0.077 A 
ATOM     11  C   UNL     1      -4.872   1.377  24.920  0.00  0.00    +0.072 C 
ATOM     12  C   UNL     1      -4.101   1.158  24.725  0.00  0.00    +0.143 C 
ATOM     22  N   UNL     1      -5.735   2.525  25.375  0.00  0.00    -0.227 NA
ATOM     23  C   UNL     1      -5.560   3.312  25.550  0.00  0.00    +0.198 A 
ATOM     24  N   UNL     1      -4.752   3.424  25.435  0.00  0.00    -0.226 NA
ENDROOT
BRANCH  12  13
ATOM     13  C   UNL     1      -3.939   0.384  24.493  0.00  0.00    +0.256 C 
ATOM     14  O   UNL     1      -3.621   0.235  23.745  0.00  0.00    -0.272 OA
ATOM     15  N   UNL     1      -4.093  -0.242  25.008  0.00  0.00    -0.206 NA
BRANCH  15  16
ATOM     16  C   UNL     1      -3.930  -1.017  24.775  0.00  0.00    +0.095 C 
ATOM     17  C   UNL     1      -3.365  -1.460  25.181  0.00  0.00    +0.022 C 
ATOM     18  C   UNL     1      -3.202  -2.234  24.949  0.00  0.00    +0.002 C 
ATOM     19  C   UNL     1      -3.604  -2.566  24.309  0.00  0.00    +0.000 C 
ATOM     20  C   UNL     1      -4.169  -2.124  23.903  0.00  0.00    +0.002 C 
ATOM     21  C   UNL     1      -4.332  -1.349  24.136  0.00  0.00    +0.022 C 
ENDBRANCH  15  16
ENDBRANCH  12  13
BRANCH   7   6
ATOM      6  C   UNL     1      -2.722   1.496  24.567  0.00  0.00    +0.100 C 
BRANCH   6   5
ATOM      1 CL   UNL     1      -0.213   3.539  25.216  0.00  0.00    -0.082 Cl
ATOM      2  C   UNL     1      -0.840   3.028  25.054  0.00  0.00    +0.058 A 
ATOM      3  C   UNL     1      -1.095   2.493  25.627  0.00  0.00    +0.011 A 
ATOM      4  C   UNL     1      -1.722   1.982  25.465  0.00  0.00    -0.002 A 
ATOM      5  C   UNL     1      -2.095   2.006  24.730  0.00  0.00    -0.006 A 
ATOM     25  C   UNL     1      -1.839   2.542  24.156  0.00  0.00    -0.002 A 
ATOM     26  C   UNL     1      -1.212   3.053  24.318  0.00  0.00    +0.011 A 
ENDBRANCH   6   5
ENDBRANCH   7   6
TORSDOF 4
ENDMDL
MODEL 2
REMARK VINA RESULT:     -12.2      1.655      3.987
REMARK  Name = 
REMARK  4 active torsions:
REMARK  status: ('A' for Active; 'I' for Inactive)
REMARK    1  A    between atoms: C_5  and  C_6
REMARK    2  A    between atoms: C_6  and  N_7
REMARK    3  A    between atoms: C_12  and  C_13
REMARK    4  A    between atoms: N_15  and  C_16
REMARK                            x       y       z     vdW  Elec       q    Type
REMARK                         _______ _______ _______ _____ _____    ______ ____
ROOT
ATOM      7  N   UNL     1      -3.888   1.352  24.811  0.00  0.00    -0.257 NA
ATOM      8  C   UNL     1      -4.661   1.077  24.891  0.00  0.00    +0.121 C 
ATOM      9  C   UNL     1      -5.269   1.602  25.079  0.00  0.00    +0.090 A 
ATOM     10  C   UNL     1      -5.103   2.403  25.187  0.00  0.00    +0.077 A 
ATOM     11  C   UNL     1      -4.329   2.679  25.107  0.00  0.00    +0.072 C 
ATOM     12  C   UNL     1      -3.722   2.153  24.919  0.00  0.00    +0.143 C 
ATOM     22  N   UNL     1      -5.810   2.788  25.367  0.00  0.00    -0.227 NA
ATOM     23  C   UNL     1      -6.413   2.225  25.371  0.00  0.00    +0.198 A 
ATOM     24  N   UNL     1      -6.078   1.493  25.193  0.00  0.00    -0.226 NA
ENDROOT
BRANCH  12  13
ATOM     13  C   UNL     1      -2.949   2.429  24.839  0.00  0.00    +0.256 C 
ATOM     14  O   UNL     1      -2.561   2.364  24.113  0.00  0.00    -0.272 OA
ATOM     15  N   UNL     1      -2.563   2.769  25.484  0.00  0.00    -0.206 NA
BRANCH  15  16
ATOM     16  C   UNL     1      -1.789   3.044  25.403  0.00  0.00    +0.095 C 
ATOM     17  C   UNL     1      -1.649   3.786  25.070  0.00  0.00    +0.022 C 
ATOM     18  C   UNL     1      -0.876   4.063  24.988  0.00  0.00    +0.002 C 
ATOM     19  C   UNL     1      -0.243   3.597  25.240  0.00  0.00    +0.000 C 
ATOM     20  C   UNL     1      -0.383   2.855  25.572  0.00  0.00    +0.002 C 
ATOM     21  C   UNL     1      -1.157   2.579  25.653  0.00  0.00    +0.022 C 
ENDBRANCH  15  16
ENDBRANCH  12  13
BRANCH   7   6
ATOM      6  C   UNL     1      -3.281   0.827  24.623  0.00  0.00    +0.100 C 
BRANCH   6   5
ATOM      1 CL   UNL     1      -3.849  -2.424  24.635  0.00  0.00    -0.082 Cl
ATOM      2  C   UNL     1      -3.707  -1.611  24.632  0.00  0.00    +0.058 A 
ATOM      3  C   UNL     1      -3.834  -1.173  23.945  0.00  0.00    +0.011 A 
ATOM      4  C   UNL     1      -3.692  -0.361  23.942  0.00  0.00    -0.002 A 
ATOM      5  C   UNL     1      -3.423   0.014  24.626  0.00  0.00    -0.006 A 
ATOM     25  C   UNL     1      -3.295  -0.425  25.314  0.00  0.00    -0.002 A 
ATOM     26  C   UNL     1      -3.437  -1.237  25.317  0.00  0.00    +0.011 A 
ENDBRANCH   6   5
ENDBRANCH   7   6
TORSDOF 4
ENDMDL
MODEL 3
REMARK VINA RESULT:     -12.0      1.965      4.479
REMARK  Name = 
REMARK  4 active torsions:
REMARK  status: ('A' for Active; 'I' for Inactive)
REMARK    1  A    between atoms: C_5  and  C_6
REMARK    2  A    between atoms: C_6  and  N_7
REMARK    3  A    between atoms: C_12  and  C_13
REMARK    4  A    between atoms: N_15  and  C_16
REMARK                            x       y       z     vdW  Elec       q    Type
REMARK                         _______ _______ _______ _____ _____    ______ ____
ROOT
ATOM      7  N   UNL     1      -2.802   0.515  24.472  0.00  0.00    -0.257 NA
ATOM      8  C   UNL     1      -2.122   0.060  24.374  0.00  0.00    +0.121 C 
ATOM      9  C   UNL     1      -1.396   0.426  24.236  0.00  0.00    +0.090 A 
ATOM     10  C   UNL     1      -1.351   1.249  24.196  0.00  0.00    +0.077 A 
ATOM     11  C   UNL     1      -2.032   1.705  24.294  0.00  0.00    +0.072 C 
ATOM     12  C   UNL     1      -2.757   1.337  24.432  0.00  0.00    +0.143 C 
ATOM     22  N   UNL     1      -0.565   1.455  24.054  0.00  0.00    -0.227 NA
ATOM     23  C   UNL     1      -0.124   0.760  24.007  0.00  0.00    +0.198 A 
ATOM     24  N   UNL     1      -0.638   0.124  24.119  0.00  0.00    -0.226 NA
ENDROOT
BRANCH  12  13
ATOM     13  C   UNL     1      -3.438   1.794  24.529  0.00  0.00    +0.256 C 
ATOM     14  O   UNL     1      -4.000   1.829  23.925  0.00  0.00    -0.272 OA
ATOM     15  N   UNL     1      -3.556   2.214  25.229  0.00  0.00    -0.206 NA
BRANCH  15  16
ATOM     16  C   UNL     1      -4.238   2.670  25.325  0.00  0.00    +0.095 C 
ATOM     17  C   UNL     1      -4.227   3.472  25.132  0.00  0.00    +0.022 C 
ATOM     18  C   UNL     1      -4.907   3.928  25.227  0.00  0.00    +0.002 C 
ATOM     19  C   UNL     1      -5.599   3.582  25.518  0.00  0.00    +0.000 C 
ATOM     20  C   UNL     1      -5.609   2.781  25.712  0.00  0.00    +0.002 C 
ATOM     21  C   UNL     1      -4.928   2.325  25.615  0.00  0.00    +0.022 C 
ENDBRANCH  15  16
ENDBRANCH  12  13
BRANCH   7   6
ATOM      6  C   UNL     1      -3.528   0.148  24.610  0.00  0.00    +0.100 C 
BRANCH   6   5
ATOM      1 CL   UNL     1      -3.729  -3.146  24.650  0.00  0.00    -0.082 Cl
ATOM      2  C   UNL     1      -3.679  -2.322  24.640  0.00  0.00    +0.058 A 
ATOM      3  C   UNL     1      -3.449  -1.915  25.319  0.00  0.00    +0.011 A 
ATOM      4  C   UNL     1      -3.398  -1.092  25.309  0.00  0.00    -0.002 A 
ATOM      5  C   UNL     1      -3.578  -0.675  24.620  0.00  0.00    -0.006 A 
ATOM     25  C   UNL     1      -3.809  -1.083  23.940  0.00  0.00    -0.002 A 
ATOM     26  C   UNL     1      -3.859  -1.907  23.950  0.00  0.00    +0.011 A 
ENDBRANCH   6   5
ENDBRANCH   7   6
TORSDOF 4
ENDMDL
MODEL 4
REMARK VINA RESULT:     -11.6      1.627      2.932
REMARK  Name = 
REMARK  4 active torsions:
REMARK  status: ('A' for Active; 'I' for Inactive)
REMARK    1  A    between atoms: C_5  and  C_6
REMARK    2  A    between atoms: C_6  and  N_7
REMARK    3  A    between atoms: C_12  and  C_13
REMARK    4  A    between atoms: N_15  and  C_16
REMARK                            x       y       z     vdW  Elec       q    Type
REMARK                         _______ _______ _______ _____ _____    ______ ____
ROOT
ATOM      7  N   UNL     1      -2.409   1.595  24.937  0.00  0.00    -0.257 NA
ATOM      8  C   UNL     1      -2.101   2.326  25.163  0.00  0.00    +0.121 C 
ATOM      9  C   UNL     1      -1.331   2.378  25.454  0.00  0.00    +0.090 A 
ATOM     10  C   UNL     1      -0.869   1.698  25.519  0.00  0.00    +0.077 A 
ATOM     11  C   UNL     1      -1.176   0.966  25.293  0.00  0.00    +0.072 C 
ATOM     12  C   UNL     1      -1.946   0.915  25.002  0.00  0.00    +0.143 C 
ATOM     22  N   UNL     1      -0.134   1.917  25.823  0.00  0.00    -0.227 NA
ATOM     23  C   UNL     1      -0.142   2.732  25.946  0.00  0.00    +0.198 A 
ATOM     24  N   UNL     1      -0.882   3.017  25.718  0.00  0.00    -0.226 NA
ENDROOT
BRANCH  12  13
ATOM     13  C   UNL     1      -2.253   0.184  24.776  0.00  0.00    +0.256 C 
ATOM     14  O   UNL     1      -2.503   0.064  23.998  0.00  0.00    -0.272 OA
ATOM     15  N   UNL     1      -2.311  -0.428  25.327  0.00  0.00    -0.206 NA
BRANCH  15  16
ATOM     16  C   UNL     1      -2.618  -1.159  25.099  0.00  0.00    +0.095 C 
ATOM     17  C   UNL     1      -3.397  -1.356  25.289  0.00  0.00    +0.022 C 
ATOM     18  C   UNL     1      -3.705  -2.087  25.062  0.00  0.00    +0.002 C 
ATOM     19  C   UNL     1      -3.234  -2.622  24.646  0.00  0.00    +0.000 C 
ATOM     20  C   UNL     1      -2.455  -2.425  24.456  0.00  0.00    +0.002 C 
ATOM     21  C   UNL     1      -2.148  -1.694  24.683  0.00  0.00    +0.022 C 
ENDBRANCH  15  16
ENDBRANCH  12  13
BRANCH   7   6
ATOM      6  C   UNL     1      -3.179   1.544  24.646  0.00  0.00    +0.100 C 
BRANCH   6   5
ATOM      1 CL   UNL     1      -5.334   3.970  25.245  0.00  0.00    -0.082 Cl
ATOM      2  C   UNL     1      -4.795   3.363  25.095  0.00  0.00    +0.058 A 
ATOM      3  C   UNL     1      -4.732   2.730  25.619  0.00  0.00    +0.011 A 
ATOM      4  C   UNL     1      -4.193   2.123  25.469  0.00  0.00    -0.002 A 
ATOM      5  C   UNL     1      -3.717   2.150  24.796  0.00  0.00    -0.006 A 
ATOM     25  C   UNL     1      -3.781   2.785  24.271  0.00  0.00    -0.002 A 
ATOM     26  C   UNL     1      -4.320   3.391  24.421  0.00  0.00    +0.011 A 
ENDBRANCH   6   5
ENDBRANCH   7   6
TORSDOF 4
ENDMDL
