MODEL 1
REMARK VINA RESULT:     -11.7      0.000      0.000
REMARK  Name = 
REMARK  7 active torsions:
REMARK  status: ('A' for Active; 'I' for Inactive)
REMARK    1  A    between atoms: C_2  and  C_4
REMARK    2  A    between atoms: C_6  and  C_7
REMARK    3  A    between atoms: C_7  and  C_8
REMARK    4  A    between atoms: C_11  and  C_13
REMARK    5  A    between atoms: C_23  and  C_24
REMARK    6  A    between atoms: C_24  and  N_25
REMARK    7  A    between atoms: C_28  and  C_29
REMARK                            x       y       z     vdW  Elec       q    Type
REMARK                         _______ _______ _______ _____ _____    ______ ____
ROOT
ATOM      4  C   UNL     1      -3.378   1.280  23.694  0.00  0.00    +0.006 C 
ATOM      5  C   UNL     1      -3.658   1.957  24.072  0.00  0.00    +0.005 C 
ATOM      6  C   UNL     1      -4.246   1.894  24.648  0.00  0.00    +0.027 C 
ATOM     20  C   UNL     1      -4.553   1.154  24.845  0.00  0.00    -0.048 C 
ATOM     21  C   UNL     1      -5.140   1.091  25.420  0.00  0.00    +0.026 C 
ATOM     22  C   UNL     1      -4.272   0.477  24.465  0.00  0.00    -0.034 C 
ATOM     23  C   UNL     1      -3.685   0.540  23.890  0.00  0.00    +0.037 C 
ENDROOT
BRANCH   4   2
ATOM      1  C   UNL     1      -1.999   1.228  23.323  0.00  0.00    +0.000 C 
ATOM      2  C   UNL     1      -2.790   1.344  23.118  0.00  0.00    +0.000 C 
ATOM      3  C   UNL     1      -2.993   1.523  22.340  0.00  0.00    +0.000 C 
ENDBRANCH   4   2
BRANCH   6   7
ATOM      7  C   UNL     1      -4.526   2.571  25.027  0.00  0.00    +0.091 C 
BRANCH   7   8
ATOM      8  C   UNL     1      -3.995   3.115  25.346  0.00  0.00    +0.227 A 
ATOM      9  N   UNL     1      -4.022   3.429  26.109  0.00  0.00    -0.111 NA
ATOM     10  N   UNL     1      -3.387   3.950  26.193  0.00  0.00    -0.107 NA
ATOM     11  C   UNL     1      -2.968   3.957  25.482  0.00  0.00    +0.250 A 
ATOM     12  O   UNL     1      -3.344   3.441  24.959  0.00  0.00    -0.420 OA
BRANCH  11  13
ATOM     13  C   UNL     1      -2.292   4.401  25.322  0.00  0.00    +0.055 A 
ATOM     14  C   UNL     1      -1.549   4.042  25.336  0.00  0.00    +0.004 A 
ATOM     15  C   UNL     1      -0.872   4.486  25.176  0.00  0.00    -0.004 A 
ATOM     16  C   UNL     1      -0.939   5.290  25.003  0.00  0.00    -0.022 A 
ATOM     17  C   UNL     1      -0.262   5.735  24.843  0.00  0.00    +0.031 C 
ATOM     18  C   UNL     1      -1.680   5.650  24.989  0.00  0.00    -0.004 A 
ATOM     19  C   UNL     1      -2.357   5.205  25.149  0.00  0.00    +0.004 A 
ENDBRANCH  11  13
ENDBRANCH   7   8
ENDBRANCH   6   7
BRANCH  23  24
ATOM     24  C   UNL     1      -3.405  -0.136  23.511  0.00  0.00    +0.076 C 
BRANCH  24  25
ATOM     25  N   UNL     1      -3.473  -0.873  23.878  0.00  0.00    -0.272 NA
ATOM     26  C   UNL     1      -4.092  -1.379  23.675  0.00  0.00    +0.072 C 
ATOM     27  C   UNL     1      -4.161  -2.115  24.042  0.00  0.00    +0.020 C 
ATOM     28  C   UNL     1      -3.609  -2.345  24.611  0.00  0.00    +0.036 C 
ATOM     31  C   UNL     1      -2.990  -1.839  24.813  0.00  0.00    +0.020 C 
ATOM     32  C   UNL     1      -2.922  -1.103  24.447  0.00  0.00    +0.072 C 
BRANCH  28  29
ATOM     29  C   UNL     1      -3.677  -3.080  24.977  0.00  0.00    +0.182 C 
ATOM     30  O   UNL     1      -3.276  -3.229  25.684  0.00  0.00    -0.220 OA
ENDBRANCH  28  29
ENDBRANCH  24  25
ENDBRANCH  23  24
TORSDOF 7
ENDMDL
MODEL 2
REMARK VINA RESULT:     -11.4      1.769      5.464
REMARK  Name = 
REMARK  7 active torsions:
REMARK  status: ('A' for Active; 'I' for Inactive)
REMARK    1  A    between atoms: C_2  and  C_4
REMARK    2  A    between atoms: C_6  and  C_7
REMARK    3  A    between atoms: C_7  and  C_8
REMARK    4  A    between atoms: C_11  and  C_13
REMARK    5  A    between atoms: C_23  and  C_24
REMARK    6  A    between atoms: C_24  and  N_25
REMARK    7  A    between atoms: C_28  and  C_29
REMARK                            x       y       z     vdW  Elec       q    Type
REMARK                         _______ _______ _______ _____ _____    ______ ____
ROOT
ATOM      4  C   UNL     1      -1.151   2.793  24.939  0.00  0.00    +0.006 C 
ATOM      5  C   UNL     1      -0.810   2.140  24.568  0.00  0.00    +0.005 C 
ATOM      6  C   UNL     1      -1.185   1.791  23.920  0.00  0.00    +0.027 C 
ATOM     20  C   UNL     1      -1.900   2.097  23.644  0.00  0.00    -0.048 C 
ATOM     21  C   UNL     1      -2.274   1.750  22.997  0.00  0.00    +0.026 C 
ATOM     22  C   UNL     1      -2.239   2.751  24.015  0.00  0.00    -0.034 C 
ATOM     23  C   UNL     1      -1.865   3.099  24.662  0.00  0.00    +0.037 C 
ENDROOT
BRANCH   4   2
ATOM      1  C   UNL     1      -0.400   3.871  25.501  0.00  0.00    +0.000 C 
ATOM      2  C   UNL     1      -0.776   3.141  25.586  0.00  0.00    +0.000 C 
ATOM      3  C   UNL     1      -0.776   2.760  26.317  0.00  0.00    +0.000 C 
ENDBRANCH   4   2
BRANCH   6   7
ATOM      7  C   UNL     1      -0.845   1.138  23.550  0.00  0.00    +0.091 C 
BRANCH   7   8
ATOM      8  C   UNL     1      -0.891   0.394  23.902  0.00  0.00    +0.227 A 
ATOM      9  N   UNL     1      -0.259  -0.034  24.216  0.00  0.00    -0.111 NA
ATOM     10  N   UNL     1      -0.555  -0.746  24.510  0.00  0.00    -0.107 NA
ATOM     11  C   UNL     1      -1.369  -0.758  24.378  0.00  0.00    +0.250 A 
ATOM     12  O   UNL     1      -1.577  -0.053  24.002  0.00  0.00    -0.420 OA
BRANCH  11  13
ATOM     13  C   UNL     1      -1.885  -1.367  24.585  0.00  0.00    +0.055 A 
ATOM     14  C   UNL     1      -1.774  -2.125  24.277  0.00  0.00    +0.004 A 
ATOM     15  C   UNL     1      -2.290  -2.735  24.484  0.00  0.00    -0.004 A 
ATOM     16  C   UNL     1      -2.917  -2.586  24.999  0.00  0.00    -0.022 A 
ATOM     17  C   UNL     1      -3.434  -3.196  25.206  0.00  0.00    +0.031 C 
ATOM     18  C   UNL     1      -3.029  -1.830  25.307  0.00  0.00    -0.004 A 
ATOM     19  C   UNL     1      -2.512  -1.220  25.099  0.00  0.00    +0.004 A 
ENDBRANCH  11  13
ENDBRANCH   7   8
ENDBRANCH   6   7
BRANCH  23  24
ATOM     24  C   UNL     1      -2.205   3.753  25.033  0.00  0.00    +0.076 C 
BRANCH  24  25
ATOM     25  N   UNL     1      -3.023   3.789  25.138  0.00  0.00    -0.272 NA
ATOM     26  C   UNL     1      -3.496   4.158  24.572  0.00  0.00    +0.072 C 
ATOM     27  C   UNL     1      -4.313   4.194  24.677  0.00  0.00    +0.020 C 
ATOM     28  C   UNL     1      -4.658   3.860  25.349  0.00  0.00    +0.036 C 
ATOM     31  C   UNL     1      -4.185   3.491  25.914  0.00  0.00    +0.020 C 
ATOM     32  C   UNL     1      -3.367   3.455  25.809  0.00  0.00    +0.072 C 
BRANCH  28  29
ATOM     29  C   UNL     1      -5.475   3.896  25.454  0.00  0.00    +0.182 C 
ATOM     30  O   UNL     1      -5.866   3.290  25.855  0.00  0.00    -0.220 OA
ENDBRANCH  28  29
ENDBRANCH  24  25
ENDBRANCH  23  24
TORSDOF 7
ENDMDL
MODEL 3
REMARK VINA RESULT:     -11.3      1.292      2.213
REMARK  Name = 
REMARK  7 active torsions:
REMARK  status: ('A' for Active; 'I' for Inactive)
REMARK    1  A    between atoms: C_2  and  C_4
REMARK    2  A    between atoms: C_6  and  C_7
REMARK    3  A    between atoms: C_7  and  C_8
REMARK    4  A    between atoms: C_11  and  C_13
REMARK    5  A    between atoms: C_23  and  C_24
REMARK    6  A    between atoms: C_24  and  N_25
REMARK    7  A    between atoms: C_28  and  C_29
REMARK                            x       y       z     vdW  Elec       q    Type
REMARK                         _______ _______ _______ _____ _____    ______ ____
ROOT
ATOM      4  C   UNL     1      -4.643   1.374  24.623  0.00  0.00    +0.006 C 
ATOM      5  C   UNL     1      -4.244   2.061  24.403  0.00  0.00    +0.005 C 
ATOM      6  C   UNL     1      -3.613   2.020  23.872  0.00  0.00    +0.027 C 
ATOM     20  C   UNL     1      -3.382   1.291  23.562  0.00  0.00    -0.048 C 
ATOM     21  C   UNL     1      -2.752   1.250  23.032  0.00  0.00    +0.026 C 
ATOM     22  C   UNL     1      -3.782   0.604  23.783  0.00  0.00    -0.034 C 
ATOM     23  C   UNL     1      -4.412   0.645  24.313  0.00  0.00    +0.037 C 
ENDROOT
BRANCH   4   2
ATOM      1  C   UNL     1      -5.127   1.424  25.967  0.00  0.00    +0.000 C 
ATOM      2  C   UNL     1      -5.273   1.416  25.154  0.00  0.00    +0.000 C 
ATOM      3  C   UNL     1      -6.047   1.450  24.873  0.00  0.00    +0.000 C 
ENDBRANCH   4   2
BRANCH   6   7
ATOM      7  C   UNL     1      -3.214   2.707  23.652  0.00  0.00    +0.091 C 
BRANCH   7   8
ATOM      8  C   UNL     1      -2.681   3.060  24.172  0.00  0.00    +0.227 A 
ATOM      9  N   UNL     1      -2.655   3.861  24.371  0.00  0.00    -0.111 NA
ATOM     10  N   UNL     1      -2.037   3.970  24.908  0.00  0.00    -0.107 NA
ATOM     11  C   UNL     1      -1.683   3.237  25.041  0.00  0.00    +0.250 A 
ATOM     12  O   UNL     1      -2.081   2.675  24.586  0.00  0.00    -0.420 OA
BRANCH  11  13
ATOM     13  C   UNL     1      -1.043   3.091  25.540  0.00  0.00    +0.055 A 
ATOM     14  C   UNL     1      -1.173   2.840  26.315  0.00  0.00    +0.004 A 
ATOM     15  C   UNL     1      -0.534   2.694  26.816  0.00  0.00    -0.004 A 
ATOM     16  C   UNL     1       0.237   2.800  26.540  0.00  0.00    -0.022 A 
ATOM     17  C   UNL     1       0.877   2.654  27.041  0.00  0.00    +0.031 C 
ATOM     18  C   UNL     1       0.368   3.051  25.766  0.00  0.00    -0.004 A 
ATOM     19  C   UNL     1      -0.273   3.197  25.266  0.00  0.00    +0.004 A 
ENDBRANCH  11  13
ENDBRANCH   7   8
ENDBRANCH   6   7
BRANCH  23  24
ATOM     24  C   UNL     1      -4.811  -0.042  24.534  0.00  0.00    +0.076 C 
BRANCH  24  25
ATOM     25  N   UNL     1      -4.417  -0.768  24.528  0.00  0.00    -0.272 NA
ATOM     26  C   UNL     1      -3.930  -0.977  25.160  0.00  0.00    +0.072 C 
ATOM     27  C   UNL     1      -3.537  -1.702  25.155  0.00  0.00    +0.020 C 
ATOM     28  C   UNL     1      -3.631  -2.218  24.517  0.00  0.00    +0.036 C 
ATOM     31  C   UNL     1      -4.118  -2.008  23.886  0.00  0.00    +0.020 C 
ATOM     32  C   UNL     1      -4.511  -1.283  23.891  0.00  0.00    +0.072 C 
BRANCH  28  29
ATOM     29  C   UNL     1      -3.238  -2.943  24.512  0.00  0.00    +0.182 C 
ATOM     30  O   UNL     1      -2.426  -2.971  24.364  0.00  0.00    -0.220 OA
ENDBRANCH  28  29
ENDBRANCH  24  25
ENDBRANCH  23  24
TORSDOF 7
ENDMDL
MODEL 4
REMARK VINA RESULT:     -11.3      1.381      5.374
REMARK  Name = 
REMARK  7 active torsions:
REMARK  status: ('A' for Active; 'I' for Inactive)
REMARK    1  A    between atoms: C_2  and  C_4
REMARK    2  A    between atoms: C_6  and  C_7
REMARK    3  A    between atoms: C_7  and  C_8
REMARK    4  A    between atoms: C_11  and  C_13
REMARK    5  A    between atoms: C_23  and  C_24
REMARK    6  A    between atoms: C_24  and  N_25
REMARK    7  A    between atoms: C_28  and  C_29
REMARK                            x       y       z     vdW  Elec       q    Type
REMARK                         _______ _______ _______ _____ _____    ______ ____
ROOT
ATOM      4  C   UNL     1      -4.723   1.939  24.927  0.00  0.00    +0.006 C 
ATOM      5  C   UNL     1      -4.678   1.199  24.566  0.00  0.00    +0.005 C 
ATOM      6  C   UNL     1      -4.101   1.054  23.993  0.00  0.00    +0.027 C 
ATOM     20  C   UNL     1      -3.570   1.650  23.782  0.00  0.00    -0.048 C 
ATOM     21  C   UNL     1      -2.994   1.505  23.210  0.00  0.00    +0.026 C 
ATOM     22  C   UNL     1      -3.617   2.390  24.144  0.00  0.00    -0.034 C 
ATOM     23  C   UNL     1      -4.193   2.535  24.716  0.00  0.00    +0.037 C 
ENDROOT
BRANCH   4   2
ATOM      1  C   UNL     1      -5.992   2.484  25.295  0.00  0.00    +0.000 C 
ATOM      2  C   UNL     1      -5.300   2.083  25.499  0.00  0.00    +0.000 C 
ATOM      3  C   UNL     1      -5.185   1.827  26.274  0.00  0.00    +0.000 C 
ENDBRANCH   4   2
BRANCH   6   7
ATOM      7  C   UNL     1      -4.055   0.314  23.632  0.00  0.00    +0.091 C 
BRANCH   7   8
ATOM      8  C   UNL     1      -3.716  -0.321  24.034  0.00  0.00    +0.227 A 
ATOM      9  N   UNL     1      -4.125  -0.941  24.393  0.00  0.00    -0.111 NA
ATOM     10  N   UNL     1      -3.570  -1.452  24.729  0.00  0.00    -0.107 NA
ATOM     11  C   UNL     1      -2.819  -1.147  24.576  0.00  0.00    +0.250 A 
ATOM     12  O   UNL     1      -2.909  -0.448  24.147  0.00  0.00    -0.420 OA
BRANCH  11  13
ATOM     13  C   UNL     1      -2.103  -1.481  24.812  0.00  0.00    +0.055 A 
ATOM     14  C   UNL     1      -1.886  -2.229  24.538  0.00  0.00    +0.004 A 
ATOM     15  C   UNL     1      -1.170  -2.565  24.772  0.00  0.00    -0.004 A 
ATOM     16  C   UNL     1      -0.670  -2.151  25.283  0.00  0.00    -0.022 A 
ATOM     17  C   UNL     1       0.047  -2.487  25.518  0.00  0.00    +0.031 C 
ATOM     18  C   UNL     1      -0.885  -1.404  25.557  0.00  0.00    -0.004 A 
ATOM     19  C   UNL     1      -1.602  -1.069  25.321  0.00  0.00    +0.004 A 
ENDBRANCH  11  13
ENDBRANCH   7   8
ENDBRANCH   6   7
BRANCH  23  24
ATOM     24  C   UNL     1      -4.239   3.274  25.077  0.00  0.00    +0.076 C 
BRANCH  24  25
ATOM     25  N   UNL     1      -3.565   3.749  25.133  0.00  0.00    -0.272 NA
ATOM     26  C   UNL     1      -3.055   3.667  25.777  0.00  0.00    +0.072 C 
ATOM     27  C   UNL     1      -2.383   4.141  25.833  0.00  0.00    +0.020 C 
ATOM     28  C   UNL     1      -2.219   4.697  25.245  0.00  0.00    +0.036 C 
ATOM     31  C   UNL     1      -2.729   4.778  24.602  0.00  0.00    +0.020 C 
ATOM     32  C   UNL     1      -3.402   4.304  24.546  0.00  0.00    +0.072 C 
BRANCH  28  29
ATOM     29  C   UNL     1      -1.547   5.171  25.300  0.00  0.00    +0.182 C 
ATOM     30  O   UNL     1      -0.854   4.952  24.909  0.00  0.00    -0.220 OA
ENDBRANCH  28  29
ENDBRANCH  24  25
ENDBRANCH  23  24
TORSDOF 7
ENDMDL
MODEL 5
REMARK VINA RESULT:     -11.1      2.101      3.587
REMARK  Name = 
REMARK  7 active torsions:
REMARK  status: ('A' for Active; 'I' for Inactive)
REMARK    1  A    between atoms: C_2  and  C_4
REMARK    2  A    between atoms: C_6  and  C_7
REMARK    3  A    between atoms: C_7  and  C_8
REMARK    4  A    between atoms: C_11  and  C_13
REMARK    5  A    between atoms: C_23  and  C_24
REMARK    6  A    between atoms: C_24  and  N_25
REMARK    7  A    between atoms: C_28  and  C_29
REMARK                            x       y       z     vdW  Elec       q    Type
REMARK                         _______ _______ _______ _____ _____    ______ ____
ROOT
ATOM      4  C   UNL     1      -0.998   2.175  24.667  0.00  0.00    +0.006 C 
ATOM      5  C   UNL     1      -1.562   2.675  24.332  0.00  0.00    +0.005 C 
ATOM      6  C   UNL     1      -2.028   2.409  23.704  0.00  0.00    +0.027 C 
ATOM     20  C   UNL     1      -1.927   1.644  23.411  0.00  0.00    -0.048 C 
ATOM     21  C   UNL     1      -2.392   1.378  22.784  0.00  0.00    +0.026 C 
ATOM     22  C   UNL     1      -1.362   1.145  23.747  0.00  0.00    -0.034 C 
ATOM     23  C   UNL     1      -0.897   1.410  24.374  0.00  0.00    +0.037 C 
ENDROOT
BRANCH   4   2
ATOM      1  C   UNL     1      -0.848   2.470  26.057  0.00  0.00    +0.000 C 
ATOM      2  C   UNL     1      -0.533   2.441  25.294  0.00  0.00    +0.000 C 
ATOM      3  C   UNL     1       0.245   2.679  25.160  0.00  0.00    +0.000 C 
ENDBRANCH   4   2
BRANCH   6   7
ATOM      7  C   UNL     1      -2.592   2.908  23.369  0.00  0.00    +0.091 C 
BRANCH   7   8
ATOM      8  C   UNL     1      -3.265   3.116  23.798  0.00  0.00    +0.227 A 
ATOM      9  N   UNL     1      -3.577   3.877  23.872  0.00  0.00    -0.111 NA
ATOM     10  N   UNL     1      -4.249   3.831  24.348  0.00  0.00    -0.107 NA
ATOM     11  C   UNL     1      -4.353   3.043  24.568  0.00  0.00    +0.250 A 
ATOM     12  O   UNL     1      -3.744   2.601  24.228  0.00  0.00    -0.420 OA
BRANCH  11  13
ATOM     13  C   UNL     1      -4.958   2.748  25.045  0.00  0.00    +0.055 A 
ATOM     14  C   UNL     1      -5.429   2.127  24.776  0.00  0.00    +0.004 A 
ATOM     15  C   UNL     1      -6.035   1.831  25.251  0.00  0.00    -0.004 A 
ATOM     16  C   UNL     1      -6.169   2.157  25.998  0.00  0.00    -0.022 A 
ATOM     17  C   UNL     1      -6.774   1.862  26.474  0.00  0.00    +0.031 C 
ATOM     18  C   UNL     1      -5.698   2.778  26.268  0.00  0.00    -0.004 A 
ATOM     19  C   UNL     1      -5.092   3.074  25.790  0.00  0.00    +0.004 A 
ENDBRANCH  11  13
ENDBRANCH   7   8
ENDBRANCH   6   7
BRANCH  23  24
ATOM     24  C   UNL     1      -0.333   0.912  24.709  0.00  0.00    +0.076 C 
BRANCH  24  25
ATOM     25  N   UNL     1      -0.477   0.100  24.759  0.00  0.00    -0.272 NA
ATOM     26  C   UNL     1      -0.143  -0.413  24.205  0.00  0.00    +0.072 C 
ATOM     27  C   UNL     1      -0.287  -1.224  24.256  0.00  0.00    +0.020 C 
ATOM     28  C   UNL     1      -0.764  -1.522  24.860  0.00  0.00    +0.036 C 
ATOM     31  C   UNL     1      -1.097  -1.008  25.413  0.00  0.00    +0.020 C 
ATOM     32  C   UNL     1      -0.953  -0.197  25.363  0.00  0.00    +0.072 C 
BRANCH  28  29
ATOM     29  C   UNL     1      -0.908  -2.332  24.910  0.00  0.00    +0.182 C 
ATOM     30  O   UNL     1      -1.629  -2.640  24.651  0.00  0.00    -0.220 OA
ENDBRANCH  28  29
ENDBRANCH  24  25
ENDBRANCH  23  24
TORSDOF 7
ENDMDL
MODEL 6
REMARK VINA RESULT:     -11.1      1.457      2.188
REMARK  Name = 
REMARK  7 active torsions:
REMARK  status: ('A' for Active; 'I' for Inactive)
REMARK    1  A    between atoms: C_2  and  C_4
REMARK    2  A    between atoms: C_6  and  C_7
REMARK    3  A    between atoms: C_7  and  C_8
REMARK    4  A    between atoms: C_11  and  C_13
REMARK    5  A    between atoms: C_23  and  C_24
REMARK    6  A    between atoms: C_24  and  N_25
REMARK    7  A    between atoms: C_28  and  C_29
REMARK                            x       y       z     vdW  Elec       q    Type
REMARK                         _______ _______ _______ _____ _____    ______ ____
ROOT
ATOM      4  C   UNL     1      -2.939   0.781  24.712  0.00  0.00    +0.006 C 
ATOM      5  C   UNL     1      -2.212   1.171  24.698  0.00  0.00    +0.005 C 
ATOM      6  C   UNL     1      -1.516   0.750  24.839  0.00  0.00    +0.027 C 
ATOM     20  C   UNL     1      -1.547  -0.060  24.994  0.00  0.00    -0.048 C 
ATOM     21  C   UNL     1      -0.852  -0.480  25.135  0.00  0.00    +0.026 C 
ATOM     22  C   UNL     1      -2.275  -0.448  25.009  0.00  0.00    -0.034 C 
ATOM     23  C   UNL     1      -2.971  -0.029  24.868  0.00  0.00    +0.037 C 
ENDROOT
BRANCH   4   2
ATOM      1  C   UNL     1      -4.128   1.405  25.201  0.00  0.00    +0.000 C 
ATOM      2  C   UNL     1      -3.634   1.202  24.571  0.00  0.00    +0.000 C 
ATOM      3  C   UNL     1      -3.836   1.420  23.803  0.00  0.00    +0.000 C 
ENDBRANCH   4   2
BRANCH   6   7
ATOM      7  C   UNL     1      -0.789   1.140  24.824  0.00  0.00    +0.091 C 
BRANCH   7   8
ATOM      8  C   UNL     1      -0.719   1.895  25.146  0.00  0.00    +0.227 A 
ATOM      9  N   UNL     1      -0.336   2.088  25.851  0.00  0.00    -0.111 NA
ATOM     10  N   UNL     1      -0.400   2.903  25.961  0.00  0.00    -0.107 NA
ATOM     11  C   UNL     1      -0.823   3.214  25.324  0.00  0.00    +0.250 A 
ATOM     12  O   UNL     1      -1.020   2.590  24.820  0.00  0.00    -0.420 OA
BRANCH  11  13
ATOM     13  C   UNL     1      -1.014   4.008  25.210  0.00  0.00    +0.055 A 
ATOM     14  C   UNL     1      -1.749   4.294  25.453  0.00  0.00    +0.004 A 
ATOM     15  C   UNL     1      -1.942   5.088  25.340  0.00  0.00    -0.004 A 
ATOM     16  C   UNL     1      -1.398   5.597  24.982  0.00  0.00    -0.022 A 
ATOM     17  C   UNL     1      -1.591   6.391  24.868  0.00  0.00    +0.031 C 
ATOM     18  C   UNL     1      -0.664   5.312  24.738  0.00  0.00    -0.004 A 
ATOM     19  C   UNL     1      -0.472   4.516  24.853  0.00  0.00    +0.004 A 
ENDBRANCH  11  13
ENDBRANCH   7   8
ENDBRANCH   6   7
BRANCH  23  24
ATOM     24  C   UNL     1      -3.697  -0.417  24.883  0.00  0.00    +0.076 C 
BRANCH  24  25
ATOM     25  N   UNL     1      -3.737  -1.225  24.713  0.00  0.00    -0.272 NA
ATOM     26  C   UNL     1      -3.921  -1.477  23.949  0.00  0.00    +0.072 C 
ATOM     27  C   UNL     1      -3.961  -2.283  23.779  0.00  0.00    +0.020 C 
ATOM     28  C   UNL     1      -3.817  -2.838  24.374  0.00  0.00    +0.036 C 
ATOM     31  C   UNL     1      -3.633  -2.585  25.137  0.00  0.00    +0.020 C 
ATOM     32  C   UNL     1      -3.593  -1.778  25.307  0.00  0.00    +0.072 C 
BRANCH  28  29
ATOM     29  C   UNL     1      -3.856  -3.643  24.204  0.00  0.00    +0.182 C 
ATOM     30  O   UNL     1      -3.214  -4.023  23.852  0.00  0.00    -0.220 OA
ENDBRANCH  28  29
ENDBRANCH  24  25
ENDBRANCH  23  24
TORSDOF 7
ENDMDL
MODEL 7
REMARK VINA RESULT:     -11.0      1.284      5.753
REMARK  Name = 
REMARK  7 active torsions:
REMARK  status: ('A' for Active; 'I' for Inactive)
REMARK    1  A    between atoms: C_2  and  C_4
REMARK    2  A    between atoms: C_6  and  C_7
REMARK    3  A    between atoms: C_7  and  C_8
REMARK    4  A    between atoms: C_11  and  C_13
REMARK    5  A    between atoms: C_23  and  C_24
REMARK    6  A    between atoms: C_24  and  N_25
REMARK    7  A    between atoms: C_28  and  C_29
REMARK                            x       y       z     vdW  Elec       q    Type
REMARK                         _______ _______ _______ _____ _____    ______ ____
ROOT
ATOM      4  C   UNL     1      -4.230   3.046  25.164  0.00  0.00    +0.006 C 
ATOM      5  C   UNL     1      -4.506   2.422  24.701  0.00  0.00    +0.005 C 
ATOM      6  C   UNL     1      -4.023   2.098  24.115  0.00  0.00    +0.027 C 
ATOM     20  C   UNL     1      -3.264   2.399  23.993  0.00  0.00    -0.048 C 
ATOM     21  C   UNL     1      -2.782   2.075  23.408  0.00  0.00    +0.026 C 
ATOM     22  C   UNL     1      -2.989   3.024  24.457  0.00  0.00    -0.034 C 
ATOM     23  C   UNL     1      -3.472   3.347  25.042  0.00  0.00    +0.037 C 
ENDROOT
BRANCH   4   2
ATOM      1  C   UNL     1      -5.289   3.926  25.547  0.00  0.00    +0.000 C 
ATOM      2  C   UNL     1      -4.714   3.369  25.749  0.00  0.00    +0.000 C 
ATOM      3  C   UNL     1      -4.622   3.137  26.534  0.00  0.00    +0.000 C 
ENDBRANCH   4   2
BRANCH   6   7
ATOM      7  C   UNL     1      -4.299   1.474  23.652  0.00  0.00    +0.091 C 
BRANCH   7   8
ATOM      8  C   UNL     1      -4.447   0.739  23.995  0.00  0.00    +0.227 A 
ATOM      9  N   UNL     1      -5.123   0.529  24.419  0.00  0.00    -0.111 NA
ATOM     10  N   UNL     1      -5.039  -0.255  24.661  0.00  0.00    -0.107 NA
ATOM     11  C   UNL     1      -4.311  -0.529  24.388  0.00  0.00    +0.250 A 
ATOM     12  O   UNL     1      -3.945   0.085  23.977  0.00  0.00    -0.420 OA
BRANCH  11  13
ATOM     13  C   UNL     1      -4.002  -1.285  24.506  0.00  0.00    +0.055 A 
ATOM     14  C   UNL     1      -4.145  -1.880  23.952  0.00  0.00    +0.004 A 
ATOM     15  C   UNL     1      -3.837  -2.636  24.068  0.00  0.00    -0.004 A 
ATOM     16  C   UNL     1      -3.385  -2.798  24.740  0.00  0.00    -0.022 A 
ATOM     17  C   UNL     1      -3.076  -3.554  24.857  0.00  0.00    +0.031 C 
ATOM     18  C   UNL     1      -3.241  -2.204  25.294  0.00  0.00    -0.004 A 
ATOM     19  C   UNL     1      -3.550  -1.447  25.176  0.00  0.00    +0.004 A 
ENDBRANCH  11  13
ENDBRANCH   7   8
ENDBRANCH   6   7
BRANCH  23  24
ATOM     24  C   UNL     1      -3.197   3.971  25.505  0.00  0.00    +0.076 C 
BRANCH  24  25
ATOM     25  N   UNL     1      -2.466   4.318  25.339  0.00  0.00    -0.272 NA
ATOM     26  C   UNL     1      -1.771   3.963  25.607  0.00  0.00    +0.072 C 
ATOM     27  C   UNL     1      -1.040   4.309  25.441  0.00  0.00    +0.020 C 
ATOM     28  C   UNL     1      -1.005   5.010  25.006  0.00  0.00    +0.036 C 
ATOM     31  C   UNL     1      -1.700   5.364  24.738  0.00  0.00    +0.020 C 
ATOM     32  C   UNL     1      -2.431   5.017  24.904  0.00  0.00    +0.072 C 
BRANCH  28  29
ATOM     29  C   UNL     1      -0.276   5.356  24.840  0.00  0.00    +0.182 C 
ATOM     30  O   UNL     1       0.125   5.161  24.145  0.00  0.00    -0.220 OA
ENDBRANCH  28  29
ENDBRANCH  24  25
ENDBRANCH  23  24
TORSDOF 7
ENDMDL
MODEL 8
REMARK VINA RESULT:     -10.8      1.536      5.825
REMARK  Name = 
REMARK  7 active torsions:
REMARK  status: ('A' for Active; 'I' for Inactive)
REMARK    1  A    between atoms: C_2  and  C_4
REMARK    2  A    between atoms: C_6  and  C_7
REMARK    3  A    between atoms: C_7  and  C_8
REMARK    4  A    between atoms: C_11  and  C_13
REMARK    5  A    between atoms: C_23  and  C_24
REMARK    6  A    between atoms: C_24  and  N_25
REMARK    7  A    between atoms: C_28  and  C_29
REMARK                            x       y       z     vdW  Elec       q    Type
REMARK                         _______ _______ _______ _____ _____    ______ ____
ROOT
ATOM      4  C   UNL     1      -1.576   1.534  24.301  0.00  0.00    +0.006 C 
ATOM      5  C   UNL     1      -2.240   1.137  24.015  0.00  0.00    +0.005 C 
ATOM      6  C   UNL     1      -2.907   1.564  23.783  0.00  0.00    +0.027 C 
ATOM     20  C   UNL     1      -2.910   2.388  23.838  0.00  0.00    -0.048 C 
ATOM     21  C   UNL     1      -3.577   2.814  23.607  0.00  0.00    +0.026 C 
ATOM     22  C   UNL     1      -2.245   2.784  24.125  0.00  0.00    -0.034 C 
ATOM     23  C   UNL     1      -1.579   2.357  24.357  0.00  0.00    +0.037 C 
ENDROOT
BRANCH   4   2
ATOM      1  C   UNL     1      -0.329   0.916  23.977  0.00  0.00    +0.000 C 
ATOM      2  C   UNL     1      -0.909   1.107  24.533  0.00  0.00    +0.000 C 
ATOM      3  C   UNL     1      -0.822   0.872  25.318  0.00  0.00    +0.000 C 
ENDBRANCH   4   2
BRANCH   6   7
ATOM      7  C   UNL     1      -3.571   1.167  23.496  0.00  0.00    +0.091 C 
BRANCH   7   8
ATOM      8  C   UNL     1      -3.849   0.496  23.884  0.00  0.00    +0.227 A 
ATOM      9  N   UNL     1      -4.466   0.472  24.432  0.00  0.00    -0.111 NA
ATOM     10  N   UNL     1      -4.558  -0.310  24.679  0.00  0.00    -0.107 NA
ATOM     11  C   UNL     1      -3.999  -0.770  24.284  0.00  0.00    +0.250 A 
ATOM     12  O   UNL     1      -3.561  -0.272  23.792  0.00  0.00    -0.420 OA
BRANCH  11  13
ATOM     13  C   UNL     1      -3.895  -1.584  24.365  0.00  0.00    +0.055 A 
ATOM     14  C   UNL     1      -3.477  -1.884  25.010  0.00  0.00    +0.004 A 
ATOM     15  C   UNL     1      -3.372  -2.698  25.092  0.00  0.00    -0.004 A 
ATOM     16  C   UNL     1      -3.687  -3.213  24.528  0.00  0.00    -0.022 A 
ATOM     17  C   UNL     1      -3.583  -4.027  24.610  0.00  0.00    +0.031 C 
ATOM     18  C   UNL     1      -4.105  -2.913  23.884  0.00  0.00    -0.004 A 
ATOM     19  C   UNL     1      -4.209  -2.098  23.802  0.00  0.00    +0.004 A 
ENDBRANCH  11  13
ENDBRANCH   7   8
ENDBRANCH   6   7
BRANCH  23  24
ATOM     24  C   UNL     1      -0.915   2.753  24.643  0.00  0.00    +0.076 C 
BRANCH  24  25
ATOM     25  N   UNL     1      -0.929   3.575  24.728  0.00  0.00    -0.272 NA
ATOM     26  C   UNL     1      -1.309   3.916  25.376  0.00  0.00    +0.072 C 
ATOM     27  C   UNL     1      -1.323   4.736  25.461  0.00  0.00    +0.020 C 
ATOM     28  C   UNL     1      -0.957   5.216  24.897  0.00  0.00    +0.036 C 
ATOM     31  C   UNL     1      -0.577   4.874  24.250  0.00  0.00    +0.020 C 
ATOM     32  C   UNL     1      -0.563   4.054  24.165  0.00  0.00    +0.072 C 
BRANCH  28  29
ATOM     29  C   UNL     1      -0.971   6.035  24.982  0.00  0.00    +0.182 C 
ATOM     30  O   UNL     1      -1.693   6.436  25.006  0.00  0.00    -0.220 OA
ENDBRANCH  28  29
ENDBRANCH  24  25
ENDBRANCH  23  24
TORSDOF 7
ENDMDL
MODEL 9
REMARK VINA RESULT:     -10.6      2.281      4.542
REMARK  Name = 
REMARK  7 active torsions:
REMARK  status: ('A' for Active; 'I' for Inactive)
REMARK    1  A    between atoms: C_2  and  C_4
REMARK    2  A    between atoms: C_6  and  C_7
REMARK    3  A    between atoms: C_7  and  C_8
REMARK    4  A    between atoms: C_11  and  C_13
REMARK    5  A    between atoms: C_23  and  C_24
REMARK    6  A    between atoms: C_24  and  N_25
REMARK    7  A    between atoms: C_28  and  C_29
REMARK                            x       y       z     vdW  Elec       q    Type
REMARK                         _______ _______ _______ _____ _____    ______ ____
ROOT
ATOM      4  C   UNL     1      -2.918   2.838  23.764  0.00  0.00    +0.006 C 
ATOM      5  C   UNL     1      -2.115   2.771  23.939  0.00  0.00    +0.005 C 
ATOM      6  C   UNL     1      -1.842   2.953  24.697  0.00  0.00    +0.027 C 
ATOM     20  C   UNL     1      -2.372   3.201  25.278  0.00  0.00    -0.048 C 
ATOM     21  C   UNL     1      -2.099   3.383  26.034  0.00  0.00    +0.026 C 
ATOM     22  C   UNL     1      -3.175   3.268  25.102  0.00  0.00    -0.034 C 
ATOM     23  C   UNL     1      -3.448   3.087  24.345  0.00  0.00    +0.037 C 
ENDROOT
BRANCH   4   2
ATOM      1  C   UNL     1      -3.199   1.871  22.750  0.00  0.00    +0.000 C 
ATOM      2  C   UNL     1      -3.191   2.656  23.007  0.00  0.00    +0.000 C 
ATOM      3  C   UNL     1      -3.454   3.256  22.508  0.00  0.00    +0.000 C 
ENDBRANCH   4   2
BRANCH   6   7
ATOM      7  C   UNL     1      -1.038   2.886  24.872  0.00  0.00    +0.091 C 
BRANCH   7   8
ATOM      8  C   UNL     1      -0.657   2.160  24.786  0.00  0.00    +0.227 A 
ATOM      9  N   UNL     1       0.121   2.049  24.532  0.00  0.00    -0.111 NA
ATOM     10  N   UNL     1       0.273   1.238  24.528  0.00  0.00    -0.107 NA
ATOM     11  C   UNL     1      -0.409   0.848  24.780  0.00  0.00    +0.250 A 
ATOM     12  O   UNL     1      -0.984   1.419  24.940  0.00  0.00    -0.420 OA
BRANCH  11  13
ATOM     13  C   UNL     1      -0.501   0.033  24.859  0.00  0.00    +0.055 A 
ATOM     14  C   UNL     1      -0.838  -0.280  25.544  0.00  0.00    +0.004 A 
ATOM     15  C   UNL     1      -0.931  -1.096  25.624  0.00  0.00    -0.004 A 
ATOM     16  C   UNL     1      -0.686  -1.599  25.017  0.00  0.00    -0.022 A 
ATOM     17  C   UNL     1      -0.778  -2.416  25.096  0.00  0.00    +0.031 C 
ATOM     18  C   UNL     1      -0.349  -1.288  24.332  0.00  0.00    -0.004 A 
ATOM     19  C   UNL     1      -0.257  -0.471  24.253  0.00  0.00    +0.004 A 
ENDBRANCH  11  13
ENDBRANCH   7   8
ENDBRANCH   6   7
BRANCH  23  24
ATOM     24  C   UNL     1      -4.251   3.153  24.169  0.00  0.00    +0.076 C 
BRANCH  24  25
ATOM     25  N   UNL     1      -4.816   2.898  24.715  0.00  0.00    -0.272 NA
ATOM     26  C   UNL     1      -5.019   2.099  24.755  0.00  0.00    +0.072 C 
ATOM     27  C   UNL     1      -5.583   1.844  25.300  0.00  0.00    +0.020 C 
ATOM     28  C   UNL     1      -5.944   2.388  25.806  0.00  0.00    +0.036 C 
ATOM     31  C   UNL     1      -5.740   3.186  25.765  0.00  0.00    +0.020 C 
ATOM     32  C   UNL     1      -5.176   3.441  25.220  0.00  0.00    +0.072 C 
BRANCH  28  29
ATOM     29  C   UNL     1      -6.508   2.133  26.350  0.00  0.00    +0.182 C 
ATOM     30  O   UNL     1      -6.333   2.136  27.157  0.00  0.00    -0.220 OA
ENDBRANCH  28  29
ENDBRANCH  24  25
ENDBRANCH  23  24
TORSDOF 7
ENDMDL
MODEL 10
REMARK VINA RESULT:     -10.6      2.584      4.842
REMARK  Name = 
REMARK  7 active torsions:
REMARK  status: ('A' for Active; 'I' for Inactive)
REMARK    1  A    between atoms: C_2  and  C_4
REMARK    2  A    between atoms: C_6  and  C_7
REMARK    3  A    between atoms: C_7  and  C_8
REMARK    4  A    between atoms: C_11  and  C_13
REMARK    5  A    between atoms: C_23  and  C_24
REMARK    6  A    between atoms: C_24  and  N_25
REMARK    7  A    between atoms: C_28  and  C_29
REMARK                            x       y       z     vdW  Elec       q    Type
REMARK                         _______ _______ _______ _____ _____    ______ ____
ROOT
ATOM      4  C   UNL     1      -3.190  -0.184  24.674  0.00  0.00    +0.006 C 
ATOM      5  C   UNL     1      -2.408  -0.315  24.901  0.00  0.00    +0.005 C 
ATOM      6  C   UNL     1      -1.930   0.322  25.123  0.00  0.00    +0.027 C 
ATOM     20  C   UNL     1      -2.236   1.088  25.118  0.00  0.00    -0.048 C 
ATOM     21  C   UNL     1      -1.759   1.723  25.339  0.00  0.00    +0.026 C 
ATOM     22  C   UNL     1      -3.019   1.218  24.891  0.00  0.00    -0.034 C 
ATOM     23  C   UNL     1      -3.495   0.583  24.669  0.00  0.00    +0.037 C 
ENDROOT
BRANCH   4   2
ATOM      1  C   UNL     1      -3.975  -1.324  25.029  0.00  0.00    +0.000 C 
ATOM      2  C   UNL     1      -3.666  -0.820  24.453  0.00  0.00    +0.000 C 
ATOM      3  C   UNL     1      -3.834  -0.952  23.657  0.00  0.00    +0.000 C 
ENDBRANCH   4   2
BRANCH   6   7
ATOM      7  C   UNL     1      -1.148   0.190  25.349  0.00  0.00    +0.091 C 
BRANCH   7   8
ATOM      8  C   UNL     1      -0.628  -0.190  24.835  0.00  0.00    +0.227 A 
ATOM      9  N   UNL     1      -0.532  -1.006  24.759  0.00  0.00    -0.111 NA
ATOM     10  N   UNL     1       0.044  -1.142  24.183  0.00  0.00    -0.107 NA
ATOM     11  C   UNL     1       0.303  -0.411  23.904  0.00  0.00    +0.250 A 
ATOM     12  O   UNL     1      -0.112   0.178  24.307  0.00  0.00    -0.420 OA
BRANCH  11  13
ATOM     13  C   UNL     1       0.876  -0.288  23.324  0.00  0.00    +0.055 A 
ATOM     14  C   UNL     1       0.707  -0.455  22.534  0.00  0.00    +0.004 A 
ATOM     15  C   UNL     1       1.279  -0.333  21.953  0.00  0.00    -0.004 A 
ATOM     16  C   UNL     1       2.023  -0.043  22.163  0.00  0.00    -0.022 A 
ATOM     17  C   UNL     1       2.597   0.079  21.583  0.00  0.00    +0.031 C 
ATOM     18  C   UNL     1       2.194   0.124  22.953  0.00  0.00    -0.004 A 
ATOM     19  C   UNL     1       1.620   0.001  23.533  0.00  0.00    +0.004 A 
ENDBRANCH  11  13
ENDBRANCH   7   8
ENDBRANCH   6   7
BRANCH  23  24
ATOM     24  C   UNL     1      -4.277   0.713  24.443  0.00  0.00    +0.076 C 
BRANCH  24  25
ATOM     25  N   UNL     1      -4.681   1.379  24.717  0.00  0.00    -0.272 NA
ATOM     26  C   UNL     1      -4.634   2.090  24.300  0.00  0.00    +0.072 C 
ATOM     27  C   UNL     1      -5.038   2.755  24.574  0.00  0.00    +0.020 C 
ATOM     28  C   UNL     1      -5.487   2.710  25.265  0.00  0.00    +0.036 C 
ATOM     31  C   UNL     1      -5.533   1.999  25.681  0.00  0.00    +0.020 C 
ATOM     32  C   UNL     1      -5.130   1.334  25.407  0.00  0.00    +0.072 C 
BRANCH  28  29
ATOM     29  C   UNL     1      -5.890   3.375  25.539  0.00  0.00    +0.182 C 
ATOM     30  O   UNL     1      -5.468   4.031  25.810  0.00  0.00    -0.220 OA
ENDBRANCH  28  29
ENDBRANCH  24  25
ENDBRANCH  23  24
TORSDOF 7
ENDMDL
