MODEL 1
REMARK VINA RESULT:      -9.7      0.000      0.000
REMARK  Name = 
REMARK  5 active torsions:
REMARK  status: ('A' for Active; 'I' for Inactive)
REMARK    1  A    between atoms: C_2  and  O_5
REMARK    2  A    between atoms: O_5  and  C_6
REMARK    3  A    between atoms: C_9  and  N_12
REMARK    4  A    between atoms: C_17  and  N_23
REMARK    5  A    between atoms: C_24  and  C_26
REMARK                            x       y       z     vdW  Elec       q    Type
REMARK                         _______ _______ _______ _____ _____    ______ ____
ROOT
ATOM     12  N   UNL     1      -3.751   0.302  24.769  0.00  0.00    -0.191 N 
ATOM     13  C   UNL     1      -3.087   0.746  24.563  0.00  0.00    +0.254 C 
ATOM     14  O   UNL     1      -2.371   0.445  24.285  0.00  0.00    -0.272 OA
ATOM     15  C   UNL     1      -3.264   1.541  24.684  0.00  0.00    +0.156 C 
ATOM     16  C   UNL     1      -2.821   2.229  24.576  0.00  0.00    +0.051 C 
ATOM     17  C   UNL     1      -3.152   2.965  24.748  0.00  0.00    +0.100 C 
ATOM     18  C   UNL     1      -3.926   3.013  25.028  0.00  0.00    +0.043 C 
ATOM     19  C   UNL     1      -4.370   2.326  25.137  0.00  0.00    +0.097 C 
ATOM     20  N   UNL     1      -4.038   1.590  24.965  0.00  0.00    -0.257 N 
ATOM     21  C   UNL     1      -4.339   0.824  25.017  0.00  0.00    +0.317 C 
ATOM     22  O   UNL     1      -5.096   0.617  25.273  0.00  0.00    -0.252 OA
ENDROOT
BRANCH  12   9
ATOM      6  C   UNL     1      -3.946  -2.163  24.660  0.00  0.00    +0.147 A 
ATOM      7  C   UNL     1      -4.188  -1.702  24.020  0.00  0.00    +0.038 A 
ATOM      8  C   UNL     1      -4.124  -0.880  24.056  0.00  0.00    +0.018 A 
ATOM      9  C   UNL     1      -3.816  -0.520  24.733  0.00  0.00    +0.062 A 
ATOM     10  C   UNL     1      -3.574  -0.982  25.371  0.00  0.00    +0.018 A 
ATOM     11  C   UNL     1      -3.639  -1.803  25.335  0.00  0.00    +0.038 A 
BRANCH   6   5
ATOM      5  O   UNL     1      -4.011  -2.985  24.623  0.00  0.00    -0.404 OA
BRANCH   5   2
ATOM      1  F   UNL     1      -2.817  -3.877  23.915  0.00  0.00    -0.133 F 
ATOM      2  C   UNL     1      -3.414  -3.431  24.270  0.00  0.00    +0.575 C 
ATOM      3  F   UNL     1      -3.836  -3.433  23.560  0.00  0.00    -0.133 F 
ATOM      4  F   UNL     1      -2.991  -3.428  24.977  0.00  0.00    -0.133 F 
ENDBRANCH   5   2
ENDBRANCH   6   5
ENDBRANCH  12   9
BRANCH  17  23
ATOM     23  N   UNL     1      -2.709   3.652  24.639  0.00  0.00    -0.202 NA
ATOM     24  C   UNL     1      -2.129   3.860  25.188  0.00  0.00    +0.284 C 
ATOM     25  O   UNL     1      -1.992   3.380  25.845  0.00  0.00    -0.267 OA
BRANCH  24  26
ATOM     26  C   UNL     1      -1.686   4.547  25.080  0.00  0.00    +0.155 A 
ATOM     27  C   UNL     1      -0.887   4.497  24.882  0.00  0.00    +0.123 A 
ATOM     28  N   UNL     1      -0.444   5.185  24.775  0.00  0.00    -0.239 NA
ATOM     29  C   UNL     1      -0.800   5.923  24.865  0.00  0.00    +0.120 A 
ATOM     30  C   UNL     1      -1.600   5.974  25.063  0.00  0.00    +0.120 A 
ATOM     31  N   UNL     1      -2.043   5.286  25.171  0.00  0.00    -0.236 NA
ENDBRANCH  24  26
ENDBRANCH  17  23
TORSDOF 5
ENDMDL
MODEL 2
REMARK VINA RESULT:      -9.6      3.209      6.254
REMARK  Name = 
REMARK  5 active torsions:
REMARK  status: ('A' for Active; 'I' for Inactive)
REMARK    1  A    between atoms: C_2  and  O_5
REMARK    2  A    between atoms: O_5  and  C_6
REMARK    3  A    between atoms: C_9  and  N_12
REMARK    4  A    between atoms: C_17  and  N_23
REMARK    5  A    between atoms: C_24  and  C_26
REMARK                            x       y       z     vdW  Elec       q    Type
REMARK                         _______ _______ _______ _____ _____    ______ ____
ROOT
ATOM     12  N   UNL     1      -3.156   2.629  25.021  0.00  0.00    -0.191 N 
ATOM     13  C   UNL     1      -2.849   1.936  24.695  0.00  0.00    +0.254 C 
ATOM     14  O   UNL     1      -2.084   1.835  24.404  0.00  0.00    -0.272 OA
ATOM     15  C   UNL     1      -3.441   1.362  24.711  0.00  0.00    +0.156 C 
ATOM     16  C   UNL     1      -3.455   0.575  24.463  0.00  0.00    +0.051 C 
ATOM     17  C   UNL     1      -4.141   0.127  24.551  0.00  0.00    +0.100 C 
ATOM     18  C   UNL     1      -4.814   0.465  24.887  0.00  0.00    +0.043 C 
ATOM     19  C   UNL     1      -4.802   1.251  25.135  0.00  0.00    +0.097 C 
ATOM     20  N   UNL     1      -4.114   1.700  25.047  0.00  0.00    -0.257 N 
ATOM     21  C   UNL     1      -3.939   2.483  25.238  0.00  0.00    +0.317 C 
ATOM     22  O   UNL     1      -4.455   3.025  25.586  0.00  0.00    -0.252 OA
ENDROOT
BRANCH  12   9
ATOM      6  C   UNL     1      -1.944   4.769  25.297  0.00  0.00    +0.147 A 
ATOM      7  C   UNL     1      -1.837   4.161  25.845  0.00  0.00    +0.038 A 
ATOM      8  C   UNL     1      -2.241   3.448  25.753  0.00  0.00    +0.018 A 
ATOM      9  C   UNL     1      -2.752   3.342  25.113  0.00  0.00    +0.062 A 
ATOM     10  C   UNL     1      -2.859   3.950  24.566  0.00  0.00    +0.018 A 
ATOM     11  C   UNL     1      -2.454   4.664  24.658  0.00  0.00    +0.038 A 
BRANCH   6   5
ATOM      5  O   UNL     1      -1.540   5.482  25.389  0.00  0.00    -0.404 OA
BRANCH   5   2
ATOM      1  F   UNL     1      -0.271   5.846  24.400  0.00  0.00    -0.133 F 
ATOM      2  C   UNL     1      -0.906   5.665  24.894  0.00  0.00    +0.575 C 
ATOM      3  F   UNL     1      -0.441   5.104  25.284  0.00  0.00    -0.133 F 
ATOM      4  F   UNL     1      -1.370   6.224  24.505  0.00  0.00    -0.133 F 
ENDBRANCH   5   2
ENDBRANCH   6   5
ENDBRANCH  12   9
BRANCH  17  23
ATOM     23  N   UNL     1      -4.154  -0.661  24.304  0.00  0.00    -0.202 NA
ATOM     24  C   UNL     1      -3.821  -1.247  24.778  0.00  0.00    +0.284 C 
ATOM     25  O   UNL     1      -3.474  -1.047  25.500  0.00  0.00    -0.267 OA
BRANCH  24  26
ATOM     26  C   UNL     1      -3.834  -2.035  24.532  0.00  0.00    +0.155 A 
ATOM     27  C   UNL     1      -3.424  -2.608  24.960  0.00  0.00    +0.123 A 
ATOM     28  N   UNL     1      -3.438  -3.395  24.712  0.00  0.00    -0.239 NA
ATOM     29  C   UNL     1      -3.861  -3.609  24.038  0.00  0.00    +0.120 A 
ATOM     30  C   UNL     1      -4.272  -3.035  23.610  0.00  0.00    +0.120 A 
ATOM     31  N   UNL     1      -4.259  -2.248  23.856  0.00  0.00    -0.236 NA
ENDBRANCH  24  26
ENDBRANCH  17  23
TORSDOF 5
ENDMDL
MODEL 3
REMARK VINA RESULT:      -9.4      3.802      4.874
REMARK  Name = 
REMARK  5 active torsions:
REMARK  status: ('A' for Active; 'I' for Inactive)
REMARK    1  A    between atoms: C_2  and  O_5
REMARK    2  A    between atoms: O_5  and  C_6
REMARK    3  A    between atoms: C_9  and  N_12
REMARK    4  A    between atoms: C_17  and  N_23
REMARK    5  A    between atoms: C_24  and  C_26
REMARK                            x       y       z     vdW  Elec       q    Type
REMARK                         _______ _______ _______ _____ _____    ______ ____
ROOT
ATOM     12  N   UNL     1      -2.649   1.301  24.571  0.00  0.00    -0.191 N 
ATOM     13  C   UNL     1      -2.079   1.606  24.057  0.00  0.00    +0.254 C 
ATOM     14  O   UNL     1      -2.176   2.251  23.553  0.00  0.00    -0.272 OA
ATOM     15  C   UNL     1      -1.396   1.151  24.136  0.00  0.00    +0.156 C 
ATOM     16  C   UNL     1      -0.658   1.193  23.768  0.00  0.00    +0.051 C 
ATOM     17  C   UNL     1      -0.068   0.651  23.963  0.00  0.00    +0.100 C 
ATOM     18  C   UNL     1      -0.215   0.066  24.525  0.00  0.00    +0.043 C 
ATOM     19  C   UNL     1      -0.952   0.022  24.893  0.00  0.00    +0.097 C 
ATOM     20  N   UNL     1      -1.543   0.565  24.698  0.00  0.00    -0.257 N 
ATOM     21  C   UNL     1      -2.317   0.658  24.967  0.00  0.00    +0.317 C 
ATOM     22  O   UNL     1      -2.694   0.190  25.533  0.00  0.00    -0.252 OA
ENDROOT
BRANCH  12   9
ATOM      6  C   UNL     1      -4.948   2.166  24.870  0.00  0.00    +0.147 A 
ATOM      7  C   UNL     1      -4.306   2.594  25.162  0.00  0.00    +0.038 A 
ATOM      8  C   UNL     1      -3.539   2.306  25.062  0.00  0.00    +0.018 A 
ATOM      9  C   UNL     1      -3.415   1.589  24.671  0.00  0.00    +0.062 A 
ATOM     10  C   UNL     1      -4.058   1.162  24.380  0.00  0.00    +0.018 A 
ATOM     11  C   UNL     1      -4.825   1.451  24.480  0.00  0.00    +0.038 A 
BRANCH   6   5
ATOM      5  O   UNL     1      -5.715   2.454  24.970  0.00  0.00    -0.404 OA
BRANCH   5   2
ATOM      1  F   UNL     1      -6.681   1.837  26.156  0.00  0.00    -0.133 F 
ATOM      2  C   UNL     1      -6.198   2.145  25.563  0.00  0.00    +0.575 C 
ATOM      3  F   UNL     1      -5.849   2.653  26.112  0.00  0.00    -0.133 F 
ATOM      4  F   UNL     1      -6.547   1.638  25.015  0.00  0.00    -0.133 F 
ENDBRANCH   5   2
ENDBRANCH   6   5
ENDBRANCH  12   9
BRANCH  17  23
ATOM     23  N   UNL     1       0.669   0.694  23.596  0.00  0.00    -0.202 NA
ATOM     24  C   UNL     1       0.929   0.071  23.121  0.00  0.00    +0.284 C 
ATOM     25  O   UNL     1       0.452  -0.594  23.013  0.00  0.00    -0.267 OA
BRANCH  24  26
ATOM     26  C   UNL     1       1.667   0.113  22.753  0.00  0.00    +0.155 A 
ATOM     27  C   UNL     1       1.761  -0.170  21.983  0.00  0.00    +0.123 A 
ATOM     28  N   UNL     1       2.499  -0.128  21.617  0.00  0.00    -0.239 NA
ATOM     29  C   UNL     1       3.142   0.196  22.018  0.00  0.00    +0.120 A 
ATOM     30  C   UNL     1       3.048   0.478  22.788  0.00  0.00    +0.120 A 
ATOM     31  N   UNL     1       2.310   0.437  23.156  0.00  0.00    -0.236 NA
ENDBRANCH  24  26
ENDBRANCH  17  23
TORSDOF 5
ENDMDL
MODEL 4
REMARK VINA RESULT:      -8.8      3.941      5.251
REMARK  Name = 
REMARK  5 active torsions:
REMARK  status: ('A' for Active; 'I' for Inactive)
REMARK    1  A    between atoms: C_2  and  O_5
REMARK    2  A    between atoms: O_5  and  C_6
REMARK    3  A    between atoms: C_9  and  N_12
REMARK    4  A    between atoms: C_17  and  N_23
REMARK    5  A    between atoms: C_24  and  C_26
REMARK                            x       y       z     vdW  Elec       q    Type
REMARK                         _______ _______ _______ _____ _____    ______ ____
ROOT
ATOM     12  N   UNL     1      -0.013   0.384  23.817  0.00  0.00    -0.191 N 
ATOM     13  C   UNL     1      -0.508   1.043  23.871  0.00  0.00    +0.254 C 
ATOM     14  O   UNL     1      -0.357   1.790  23.557  0.00  0.00    -0.272 OA
ATOM     15  C   UNL     1      -1.180   0.822  24.295  0.00  0.00    +0.156 C 
ATOM     16  C   UNL     1      -1.855   1.241  24.519  0.00  0.00    +0.051 C 
ATOM     17  C   UNL     1      -2.449   0.866  24.950  0.00  0.00    +0.100 C 
ATOM     18  C   UNL     1      -2.370   0.072  25.158  0.00  0.00    +0.043 C 
ATOM     19  C   UNL     1      -1.696  -0.348  24.934  0.00  0.00    +0.097 C 
ATOM     20  N   UNL     1      -1.101   0.027  24.503  0.00  0.00    -0.257 N 
ATOM     21  C   UNL     1      -0.380  -0.243  24.207  0.00  0.00    +0.317 C 
ATOM     22  O   UNL     1      -0.078  -1.007  24.288  0.00  0.00    -0.252 OA
ENDROOT
BRANCH  12   9
ATOM      6  C   UNL     1       2.185   0.307  22.682  0.00  0.00    +0.147 A 
ATOM      7  C   UNL     1       1.551  -0.129  22.383  0.00  0.00    +0.038 A 
ATOM      8  C   UNL     1       0.818  -0.104  22.762  0.00  0.00    +0.018 A 
ATOM      9  C   UNL     1       0.719   0.359  23.439  0.00  0.00    +0.062 A 
ATOM     10  C   UNL     1       1.353   0.794  23.736  0.00  0.00    +0.018 A 
ATOM     11  C   UNL     1       2.086   0.768  23.358  0.00  0.00    +0.038 A 
BRANCH   6   5
ATOM      5  O   UNL     1       2.917   0.281  22.304  0.00  0.00    -0.404 OA
BRANCH   5   2
ATOM      1  F   UNL     1       4.298   0.586  23.155  0.00  0.00    -0.133 F 
ATOM      2  C   UNL     1       3.607   0.434  22.729  0.00  0.00    +0.575 C 
ATOM      3  F   UNL     1       3.645  -0.360  22.953  0.00  0.00    -0.133 F 
ATOM      4  F   UNL     1       3.570   1.227  22.506  0.00  0.00    -0.133 F 
ENDBRANCH   5   2
ENDBRANCH   6   5
ENDBRANCH  12   9
BRANCH  17  23
ATOM     23  N   UNL     1      -3.124   1.285  25.174  0.00  0.00    -0.202 NA
ATOM     24  C   UNL     1      -3.777   1.314  24.671  0.00  0.00    +0.284 C 
ATOM     25  O   UNL     1      -3.756   0.924  23.944  0.00  0.00    -0.267 OA
BRANCH  24  26
ATOM     26  C   UNL     1      -4.452   1.733  24.894  0.00  0.00    +0.155 A 
ATOM     27  C   UNL     1      -5.180   1.348  24.941  0.00  0.00    +0.123 A 
ATOM     28  N   UNL     1      -5.855   1.768  25.164  0.00  0.00    -0.239 NA
ATOM     29  C   UNL     1      -5.801   2.571  25.340  0.00  0.00    +0.120 A 
ATOM     30  C   UNL     1      -5.073   2.956  25.294  0.00  0.00    +0.120 A 
ATOM     31  N   UNL     1      -4.398   2.538  25.071  0.00  0.00    -0.236 NA
ENDBRANCH  24  26
ENDBRANCH  17  23
TORSDOF 5
ENDMDL
