REMARK  Name = 
REMARK  5 active torsions:
REMARK  status: ('A' for Active; 'I' for Inactive)
REMARK    1  A    between atoms: N_6  and  C_7
REMARK    2  A    between atoms: C_7  and  C_8
REMARK    3  A    between atoms: C_18  and  C_19
REMARK    4  A    between atoms: C_19  and  C_20
REMARK    5  A    between atoms: C_20  and  C_21
REMARK                            x       y       z     vdW  Elec       q    Type
REMARK                         _______ _______ _______ _____ _____    ______ ____
ROOT
ATOM      1  C   UNL     1       0.461  -1.319   0.000  0.00  0.00    +0.090 C 
ATOM      2  N   UNL     1       0.645  -0.514   0.000  0.00  0.00    -0.271 NA
ATOM      3  C   UNL     1       0.000   0.000   0.000  0.00  0.00    +0.083 C 
ATOM      4  C   UNL     1      -0.785  -0.255   0.000  0.00  0.00    +0.035 C 
ATOM      5  C   UNL     1      -1.270   0.412   0.000  0.00  0.00    +0.074 C 
ATOM      6  N   UNL     1      -0.785   1.080   0.000  0.00  0.00    -0.259 NA
ATOM     13  C   UNL     1       0.000   0.825   0.000  0.00  0.00    +0.152 C 
ATOM     14  C   UNL     1       0.645   1.339   0.000  0.00  0.00    +0.257 C 
ATOM     15  O   UNL     1       0.461   2.144   0.000  0.00  0.00    -0.272 OA
ATOM     16  N   UNL     1       1.449   1.156   0.000  0.00  0.00    -0.203 NA
ATOM     17  C   UNL     1       1.807   0.412   0.000  0.00  0.00    +0.131 C 
ATOM     18  C   UNL     1       1.449  -0.331   0.000  0.00  0.00    +0.080 C 
ENDROOT
BRANCH   6   7
ATOM      7  C   UNL     1      -1.040   1.865   0.000  0.00  0.00    +0.139 C 
BRANCH   7   8
ATOM      8  C   UNL     1      -1.847   2.036   0.000  0.00  0.00    +0.155 A 
ATOM      9  N   UNL     1      -2.460   1.484   0.000  0.00  0.00    -0.226 NA
ATOM     10  C   UNL     1      -3.174   1.897   0.000  0.00  0.00    +0.121 A 
ATOM     11  C   UNL     1      -3.003   2.704   0.000  0.00  0.00    +0.121 A 
ATOM     12  N   UNL     1      -2.182   2.790   0.000  0.00  0.00    -0.226 NA
ENDBRANCH   7   8
ENDBRANCH   6   7
BRANCH  18  19
ATOM     19  C   UNL     1       1.964  -0.976   0.000  0.00  0.00    +0.027 C 
BRANCH  19  20
ATOM     20  C   UNL     1       1.662  -1.744   0.000  0.00  0.00    +0.087 C 
BRANCH  20  21
ATOM     21  C   UNL     1       2.177  -2.389   0.000  0.00  0.00    +0.226 C 
ATOM     22  O   UNL     1       2.993  -2.266   0.000  0.00  0.00    -0.275 OA
ATOM     23  N   UNL     1       1.875  -3.157   0.000  0.00  0.00    -0.274 N 
ATOM     24  C   UNL     1       2.390  -3.802   0.000  0.00  0.00    +0.125 C 
ATOM     25  C   UNL     1       2.088  -4.570   0.000  0.00  0.00    +0.164 C 
ATOM     26  O   UNL     1       1.272  -4.693   0.000  0.00  0.00    -0.350 OA
ATOM     27  C   UNL     1       0.758  -4.048   0.000  0.00  0.00    +0.164 C 
ATOM     28  C   UNL     1       1.060  -3.280   0.000  0.00  0.00    +0.125 C 
ENDBRANCH  20  21
ENDBRANCH  19  20
ENDBRANCH  18  19
TORSDOF 5
