REMARK  Name = 
REMARK  6 active torsions:
REMARK  status: ('A' for Active; 'I' for Inactive)
REMARK    1  A    between atoms: C_2  and  C_3
REMARK    2  A    between atoms: C_8  and  C_9
REMARK    3  A    between atoms: C_9  and  C_10
REMARK    4  A    between atoms: C_15  and  C_18
REMARK    5  A    between atoms: C_18  and  O_20
REMARK    6  A    between atoms: N_24  and  C_25
REMARK                            x       y       z     vdW  Elec       q    Type
REMARK                         _______ _______ _______ _____ _____    ______ ____
ROOT
ATOM      3  C   UNL     1       1.429  -2.475   0.000  0.00  0.00    +0.020 C 
ATOM      4  C   UNL     1       2.143  -2.888   0.000  0.00  0.00    +0.095 C 
ATOM      5  N   UNL     1       2.143  -3.712   0.000  0.00  0.00    -0.263 N 
ATOM      6  C   UNL     1       1.429  -4.125   0.000  0.00  0.00    +0.095 C 
ATOM      7  C   UNL     1       0.715  -3.712   0.000  0.00  0.00    +0.022 C 
ATOM      8  C   UNL     1       0.715  -2.888   0.000  0.00  0.00    +0.012 C 
ATOM     22  C   UNL     1       2.858  -4.125   0.000  0.00  0.00    +0.323 C 
ATOM     23  O   UNL     1       2.858  -4.950   0.000  0.00  0.00    -0.251 OA
ATOM     24  N   UNL     1       3.572  -3.712   0.000  0.00  0.00    -0.190 NA
ENDROOT
BRANCH  24  25
ATOM     25  C   UNL     1       4.287  -4.125   0.000  0.00  0.00    +0.097 C 
ATOM     26  C   UNL     1       5.001  -3.712   0.000  0.00  0.00    +0.023 C 
ATOM     27  C   UNL     1       4.287  -4.950   0.000  0.00  0.00    +0.023 C 
ENDBRANCH  24  25
BRANCH   3   2
ATOM      1  C   UNL     1       0.715  -1.238   0.000  0.00  0.00    +0.000 C 
ATOM      2  C   UNL     1       1.429  -1.650   0.000  0.00  0.00    +0.002 C 
ENDBRANCH   3   2
BRANCH   8   9
ATOM      9  C   UNL     1       0.000  -2.475   0.000  0.00  0.00    +0.085 C 
BRANCH   9  10
ATOM     10  C   UNL     1      -0.715  -2.888   0.000  0.00  0.00    +0.226 C 
ATOM     11  O   UNL     1      -0.715  -3.712   0.000  0.00  0.00    -0.275 OA
ATOM     12  N   UNL     1      -1.429  -2.475   0.000  0.00  0.00    -0.280 N 
ATOM     13  C   UNL     1      -2.143  -2.888   0.000  0.00  0.00    +0.094 C 
ATOM     14  C   UNL     1      -2.858  -2.475   0.000  0.00  0.00    +0.033 C 
ATOM     15  C   UNL     1      -2.858  -1.650   0.000  0.00  0.00    +0.102 C 
ATOM     16  C   UNL     1      -2.143  -1.238   0.000  0.00  0.00    +0.033 C 
ATOM     17  C   UNL     1      -1.429  -1.650   0.000  0.00  0.00    +0.094 C 
BRANCH  15  18
ATOM     18  C   UNL     1      -3.572  -1.238   0.000  0.00  0.00    +0.317 C 
ATOM     19  O   UNL     1      -4.287  -1.650   0.000  0.00  0.00    -0.250 OA
BRANCH  18  20
ATOM     20  O   UNL     1      -3.572  -0.412   0.000  0.00  0.00    -0.444 OA
ATOM     21  C   UNL     1      -4.287   0.000   0.000  0.00  0.00    +0.256 C 
ENDBRANCH  18  20
ENDBRANCH  15  18
ENDBRANCH   9  10
ENDBRANCH   8   9
TORSDOF 6
