MODEL 1
REMARK VINA RESULT:     -11.9      0.000      0.000
REMARK  Name = 
REMARK  7 active torsions:
REMARK  status: ('A' for Active; 'I' for Inactive)
REMARK    1  A    between atoms: C_2  and  C_4
REMARK    2  A    between atoms: C_4  and  C_5
REMARK    3  A    between atoms: C_10  and  C_11
REMARK    4  A    between atoms: C_11  and  C_12
REMARK    5  A    between atoms: C_12  and  N_13
REMARK    6  A    between atoms: N_16  and  C_19
REMARK    7  A    between atoms: C_26  and  C_28
REMARK                            x       y       z     vdW  Elec       q    Type
REMARK                         _______ _______ _______ _____ _____    ______ ____
ROOT
ATOM      5  C   UNL     1      -4.080   3.584  25.253  0.00  0.00    +0.015 C 
ATOM      6  C   UNL     1      -3.872   4.381  25.318  0.00  0.00    +0.022 C 
ATOM      7  C   UNL     1      -3.077   4.600  25.333  0.00  0.00    +0.093 C 
ATOM      8  N   UNL     1      -2.489   4.023  25.284  0.00  0.00    -0.280 N 
ATOM      9  C   UNL     1      -2.696   3.227  25.220  0.00  0.00    +0.093 C 
ATOM     10  C   UNL     1      -3.491   3.008  25.204  0.00  0.00    +0.022 C 
ATOM     26  C   UNL     1      -1.693   4.243  25.300  0.00  0.00    +0.225 C 
ATOM     27  O   UNL     1      -1.487   5.039  25.364  0.00  0.00    -0.275 OA
ENDROOT
BRANCH  26  28
ATOM     28  C   UNL     1      -1.105   3.666  25.251  0.00  0.00    +0.077 C 
ATOM     29  C   UNL     1      -0.812   3.218  25.878  0.00  0.00    +0.009 C 
ATOM     30  C   UNL     1      -0.233   2.712  25.580  0.00  0.00    +0.001 C 
ATOM     31  C   UNL     1      -0.168   2.848  24.769  0.00  0.00    +0.001 C 
ATOM     32  C   UNL     1      -0.707   3.437  24.565  0.00  0.00    +0.009 C 
ENDBRANCH  26  28
BRANCH   5   4
ATOM      4  C   UNL     1      -4.874   3.365  25.238  0.00  0.00    +0.114 C 
BRANCH   4   2
ATOM      1  O   UNL     1      -5.812   4.431  25.401  0.00  0.00    -0.246 OA
ATOM      2  C   UNL     1      -5.423   3.769  25.703  0.00  0.00    +0.365 C 
ATOM      3  O   UNL     1      -5.582   3.512  26.470  0.00  0.00    -0.246 OA
ENDBRANCH   4   2
ENDBRANCH   5   4
BRANCH  10  11
ATOM     11  C   UNL     1      -3.698   2.212  25.140  0.00  0.00    +0.019 C 
BRANCH  11  12
ATOM     12  C   UNL     1      -3.549   1.803  24.438  0.00  0.00    +0.072 C 
BRANCH  12  13
ATOM     13  N   UNL     1      -3.584   0.979  24.426  0.00  0.00    -0.270 NA
ATOM     14  C   UNL     1      -4.269   0.591  24.673  0.00  0.00    +0.094 C 
ATOM     15  C   UNL     1      -4.302  -0.233  24.661  0.00  0.00    +0.108 C 
ATOM     16  N   UNL     1      -3.652  -0.669  24.402  0.00  0.00    -0.305 N 
ATOM     17  C   UNL     1      -2.967  -0.281  24.156  0.00  0.00    +0.108 C 
ATOM     18  C   UNL     1      -2.932   0.543  24.168  0.00  0.00    +0.094 C 
BRANCH  16  19
ATOM     19  C   UNL     1      -3.686  -1.493  24.390  0.00  0.00    +0.048 A 
ATOM     20  C   UNL     1      -4.133  -1.879  23.814  0.00  0.00    +0.017 A 
ATOM     21  C   UNL     1      -4.167  -2.704  23.801  0.00  0.00    +0.031 A 
ATOM     22  C   UNL     1      -3.754  -3.141  24.366  0.00  0.00    +0.140 A 
ATOM     23  F   UNL     1      -3.788  -3.966  24.353  0.00  0.00    -0.204 F 
ATOM     24  C   UNL     1      -3.308  -2.755  24.942  0.00  0.00    +0.031 A 
ATOM     25  C   UNL     1      -3.274  -1.932  24.954  0.00  0.00    +0.017 A 
ENDBRANCH  16  19
ENDBRANCH  12  13
ENDBRANCH  11  12
ENDBRANCH  10  11
TORSDOF 7
ENDMDL
MODEL 2
REMARK VINA RESULT:     -10.7      3.079      4.852
REMARK  Name = 
REMARK  7 active torsions:
REMARK  status: ('A' for Active; 'I' for Inactive)
REMARK    1  A    between atoms: C_2  and  C_4
REMARK    2  A    between atoms: C_4  and  C_5
REMARK    3  A    between atoms: C_10  and  C_11
REMARK    4  A    between atoms: C_11  and  C_12
REMARK    5  A    between atoms: C_12  and  N_13
REMARK    6  A    between atoms: N_16  and  C_19
REMARK    7  A    between atoms: C_26  and  C_28
REMARK                            x       y       z     vdW  Elec       q    Type
REMARK                         _______ _______ _______ _____ _____    ______ ____
ROOT
ATOM      5  C   UNL     1      -3.728  -0.425  24.499  0.00  0.00    +0.015 C 
ATOM      6  C   UNL     1      -4.493  -0.353  24.800  0.00  0.00    +0.022 C 
ATOM      7  C   UNL     1      -4.811   0.393  24.945  0.00  0.00    +0.093 C 
ATOM      8  N   UNL     1      -4.365   1.069  24.790  0.00  0.00    -0.280 N 
ATOM      9  C   UNL     1      -3.600   0.999  24.490  0.00  0.00    +0.093 C 
ATOM     10  C   UNL     1      -3.281   0.252  24.344  0.00  0.00    +0.022 C 
ATOM     26  C   UNL     1      -4.684   1.817  24.935  0.00  0.00    +0.225 C 
ATOM     27  O   UNL     1      -5.449   1.887  25.236  0.00  0.00    -0.275 OA
ENDROOT
BRANCH  26  28
ATOM     28  C   UNL     1      -4.237   2.493  24.780  0.00  0.00    +0.077 C 
ATOM     29  C   UNL     1      -4.175   2.877  24.053  0.00  0.00    +0.009 C 
ATOM     30  C   UNL     1      -3.674   3.525  24.149  0.00  0.00    +0.001 C 
ATOM     31  C   UNL     1      -3.426   3.542  24.936  0.00  0.00    +0.001 C 
ATOM     32  C   UNL     1      -3.774   2.904  25.326  0.00  0.00    +0.009 C 
ENDBRANCH  26  28
BRANCH   5   4
ATOM      4  C   UNL     1      -3.409  -1.171  24.354  0.00  0.00    +0.114 C 
BRANCH   4   2
ATOM      1  O   UNL     1      -3.850  -2.271  25.153  0.00  0.00    -0.246 OA
ATOM      2  C   UNL     1      -3.877  -1.844  24.447  0.00  0.00    +0.365 C 
ATOM      3  O   UNL     1      -4.371  -2.091  23.835  0.00  0.00    -0.246 OA
ENDBRANCH   4   2
ENDBRANCH   5   4
BRANCH  10  11
ATOM     11  C   UNL     1      -2.516   0.181  24.044  0.00  0.00    +0.019 C 
BRANCH  11  12
ATOM     12  C   UNL     1      -1.871   0.424  24.499  0.00  0.00    +0.072 C 
BRANCH  12  13
ATOM     13  N   UNL     1      -1.112   0.414  24.175  0.00  0.00    -0.270 NA
ATOM     14  C   UNL     1      -0.649  -0.267  24.229  0.00  0.00    +0.094 C 
ATOM     15  C   UNL     1       0.110  -0.275  23.905  0.00  0.00    +0.108 C 
ATOM     16  N   UNL     1       0.405   0.396  23.528  0.00  0.00    -0.305 N 
ATOM     17  C   UNL     1      -0.058   1.076  23.473  0.00  0.00    +0.108 C 
ATOM     18  C   UNL     1      -0.817   1.086  23.797  0.00  0.00    +0.094 C 
BRANCH  16  19
ATOM     19  C   UNL     1       1.163   0.387  23.204  0.00  0.00    +0.048 A 
ATOM     20  C   UNL     1       1.347  -0.142  22.598  0.00  0.00    +0.017 A 
ATOM     21  C   UNL     1       2.106  -0.151  22.273  0.00  0.00    +0.031 A 
ATOM     22  C   UNL     1       2.681   0.369  22.556  0.00  0.00    +0.140 A 
ATOM     23  F   UNL     1       3.440   0.360  22.232  0.00  0.00    -0.204 F 
ATOM     24  C   UNL     1       2.497   0.897  23.162  0.00  0.00    +0.031 A 
ATOM     25  C   UNL     1       1.739   0.906  23.486  0.00  0.00    +0.017 A 
ENDBRANCH  16  19
ENDBRANCH  12  13
ENDBRANCH  11  12
ENDBRANCH  10  11
TORSDOF 7
ENDMDL
MODEL 3
REMARK VINA RESULT:     -10.7      0.857      2.826
REMARK  Name = 
REMARK  7 active torsions:
REMARK  status: ('A' for Active; 'I' for Inactive)
REMARK    1  A    between atoms: C_2  and  C_4
REMARK    2  A    between atoms: C_4  and  C_5
REMARK    3  A    between atoms: C_10  and  C_11
REMARK    4  A    between atoms: C_11  and  C_12
REMARK    5  A    between atoms: C_12  and  N_13
REMARK    6  A    between atoms: N_16  and  C_19
REMARK    7  A    between atoms: C_26  and  C_28
REMARK                            x       y       z     vdW  Elec       q    Type
REMARK                         _______ _______ _______ _____ _____    ______ ____
ROOT
ATOM      5  C   UNL     1      -2.267   3.535  25.059  0.00  0.00    +0.015 C 
ATOM      6  C   UNL     1      -2.598   4.285  25.150  0.00  0.00    +0.022 C 
ATOM      7  C   UNL     1      -3.409   4.367  25.273  0.00  0.00    +0.093 C 
ATOM      8  N   UNL     1      -3.891   3.697  25.305  0.00  0.00    -0.280 N 
ATOM      9  C   UNL     1      -3.561   2.947  25.214  0.00  0.00    +0.093 C 
ATOM     10  C   UNL     1      -2.749   2.866  25.091  0.00  0.00    +0.022 C 
ATOM     26  C   UNL     1      -4.703   3.779  25.429  0.00  0.00    +0.225 C 
ATOM     27  O   UNL     1      -5.033   4.529  25.520  0.00  0.00    -0.275 OA
ENDROOT
BRANCH  26  28
ATOM     28  C   UNL     1      -5.185   3.109  25.461  0.00  0.00    +0.077 C 
ATOM     29  C   UNL     1      -5.350   2.663  26.134  0.00  0.00    +0.009 C 
ATOM     30  C   UNL     1      -5.852   2.047  25.914  0.00  0.00    +0.001 C 
ATOM     31  C   UNL     1      -5.998   2.113  25.105  0.00  0.00    +0.001 C 
ATOM     32  C   UNL     1      -5.585   2.769  24.824  0.00  0.00    +0.009 C 
ENDBRANCH  26  28
BRANCH   5   4
ATOM      4  C   UNL     1      -1.456   3.453  24.936  0.00  0.00    +0.114 C 
BRANCH   4   2
ATOM      1  O   UNL     1      -0.801   4.671  24.573  0.00  0.00    -0.246 OA
ATOM      2  C   UNL     1      -0.946   4.074  25.124  0.00  0.00    +0.365 C 
ATOM      3  O   UNL     1      -0.581   4.099  25.863  0.00  0.00    -0.246 OA
ENDBRANCH   4   2
ENDBRANCH   5   4
BRANCH  10  11
ATOM     11  C   UNL     1      -2.419   2.115  25.000  0.00  0.00    +0.019 C 
BRANCH  11  12
ATOM     12  C   UNL     1      -2.519   1.704  24.290  0.00  0.00    +0.072 C 
BRANCH  12  13
ATOM     13  N   UNL     1      -2.706   0.901  24.303  0.00  0.00    -0.270 NA
ATOM     14  C   UNL     1      -2.411   0.417  24.902  0.00  0.00    +0.094 C 
ATOM     15  C   UNL     1      -2.599  -0.386  24.913  0.00  0.00    +0.108 C 
ATOM     16  N   UNL     1      -3.081  -0.706  24.326  0.00  0.00    -0.305 N 
ATOM     17  C   UNL     1      -3.376  -0.222  23.726  0.00  0.00    +0.108 C 
ATOM     18  C   UNL     1      -3.189   0.581  23.714  0.00  0.00    +0.094 C 
BRANCH  16  19
ATOM     19  C   UNL     1      -3.268  -1.508  24.337  0.00  0.00    +0.048 A 
ATOM     20  C   UNL     1      -3.985  -1.769  24.023  0.00  0.00    +0.017 A 
ATOM     21  C   UNL     1      -4.173  -2.573  24.034  0.00  0.00    +0.031 A 
ATOM     22  C   UNL     1      -3.643  -3.115  24.360  0.00  0.00    +0.140 A 
ATOM     23  F   UNL     1      -3.831  -3.919  24.371  0.00  0.00    -0.204 F 
ATOM     24  C   UNL     1      -2.926  -2.854  24.674  0.00  0.00    +0.031 A 
ATOM     25  C   UNL     1      -2.739  -2.052  24.663  0.00  0.00    +0.017 A 
ENDBRANCH  16  19
ENDBRANCH  12  13
ENDBRANCH  11  12
ENDBRANCH  10  11
TORSDOF 7
ENDMDL
MODEL 4
REMARK VINA RESULT:     -10.3      3.103      5.168
REMARK  Name = 
REMARK  7 active torsions:
REMARK  status: ('A' for Active; 'I' for Inactive)
REMARK    1  A    between atoms: C_2  and  C_4
REMARK    2  A    between atoms: C_4  and  C_5
REMARK    3  A    between atoms: C_10  and  C_11
REMARK    4  A    between atoms: C_11  and  C_12
REMARK    5  A    between atoms: C_12  and  N_13
REMARK    6  A    between atoms: N_16  and  C_19
REMARK    7  A    between atoms: C_26  and  C_28
REMARK                            x       y       z     vdW  Elec       q    Type
REMARK                         _______ _______ _______ _____ _____    ______ ____
ROOT
ATOM      5  C   UNL     1      -2.753  -1.785  24.581  0.00  0.00    +0.015 C 
ATOM      6  C   UNL     1      -2.089  -2.257  24.447  0.00  0.00    +0.022 C 
ATOM      7  C   UNL     1      -1.342  -1.913  24.397  0.00  0.00    +0.093 C 
ATOM      8  N   UNL     1      -1.256  -1.097  24.481  0.00  0.00    -0.280 N 
ATOM      9  C   UNL     1      -1.919  -0.624  24.615  0.00  0.00    +0.093 C 
ATOM     10  C   UNL     1      -2.668  -0.969  24.664  0.00  0.00    +0.022 C 
ATOM     26  C   UNL     1      -0.508  -0.753  24.431  0.00  0.00    +0.225 C 
ATOM     27  O   UNL     1       0.155  -1.226  24.298  0.00  0.00    -0.275 OA
ENDROOT
BRANCH  26  28
ATOM     28  C   UNL     1      -0.422   0.064  24.515  0.00  0.00    +0.077 C 
ATOM     29  C   UNL     1      -0.438   0.482  25.225  0.00  0.00    +0.009 C 
ATOM     30  C   UNL     1      -0.332   1.282  25.052  0.00  0.00    +0.001 C 
ATOM     31  C   UNL     1      -0.251   1.357  24.235  0.00  0.00    +0.001 C 
ATOM     32  C   UNL     1      -0.307   0.605  23.902  0.00  0.00    +0.009 C 
ENDBRANCH  26  28
BRANCH   5   4
ATOM      4  C   UNL     1      -3.501  -2.129  24.631  0.00  0.00    +0.114 C 
BRANCH   4   2
ATOM      1  O   UNL     1      -3.734  -3.372  23.964  0.00  0.00    -0.246 OA
ATOM      2  C   UNL     1      -3.576  -2.950  24.656  0.00  0.00    +0.365 C 
ATOM      3  O   UNL     1      -3.495  -3.350  25.373  0.00  0.00    -0.246 OA
ENDBRANCH   4   2
ENDBRANCH   5   4
BRANCH  10  11
ATOM     11  C   UNL     1      -3.330  -0.496  24.798  0.00  0.00    +0.019 C 
BRANCH  11  12
ATOM     12  C   UNL     1      -3.576   0.041  24.221  0.00  0.00    +0.072 C 
BRANCH  12  13
ATOM     13  N   UNL     1      -3.947   0.743  24.444  0.00  0.00    -0.270 NA
ATOM     14  C   UNL     1      -4.455   0.754  25.094  0.00  0.00    +0.094 C 
ATOM     15  C   UNL     1      -4.825   1.458  25.316  0.00  0.00    +0.108 C 
ATOM     16  N   UNL     1      -4.688   2.149  24.889  0.00  0.00    -0.305 N 
ATOM     17  C   UNL     1      -4.181   2.138  24.238  0.00  0.00    +0.108 C 
ATOM     18  C   UNL     1      -3.810   1.436  24.015  0.00  0.00    +0.094 C 
BRANCH  16  19
ATOM     19  C   UNL     1      -5.059   2.851  25.110  0.00  0.00    +0.048 A 
ATOM     20  C   UNL     1      -5.829   2.836  25.405  0.00  0.00    +0.017 A 
ATOM     21  C   UNL     1      -6.200   3.539  25.628  0.00  0.00    +0.031 A 
ATOM     22  C   UNL     1      -5.800   4.257  25.555  0.00  0.00    +0.140 A 
ATOM     23  F   UNL     1      -6.171   4.960  25.777  0.00  0.00    -0.204 F 
ATOM     24  C   UNL     1      -5.029   4.272  25.260  0.00  0.00    +0.031 A 
ATOM     25  C   UNL     1      -4.659   3.570  25.038  0.00  0.00    +0.017 A 
ENDBRANCH  16  19
ENDBRANCH  12  13
ENDBRANCH  11  12
ENDBRANCH  10  11
TORSDOF 7
ENDMDL
MODEL 5
REMARK VINA RESULT:     -10.1      2.839      4.841
REMARK  Name = 
REMARK  7 active torsions:
REMARK  status: ('A' for Active; 'I' for Inactive)
REMARK    1  A    between atoms: C_2  and  C_4
REMARK    2  A    between atoms: C_4  and  C_5
REMARK    3  A    between atoms: C_10  and  C_11
REMARK    4  A    between atoms: C_11  and  C_12
REMARK    5  A    between atoms: C_12  and  N_13
REMARK    6  A    between atoms: N_16  and  C_19
REMARK    7  A    between atoms: C_26  and  C_28
REMARK                            x       y       z     vdW  Elec       q    Type
REMARK                         _______ _______ _______ _____ _____    ______ ____
ROOT
ATOM      5  C   UNL     1      -3.161   2.185  24.583  0.00  0.00    +0.015 C 
ATOM      6  C   UNL     1      -3.927   2.220  24.890  0.00  0.00    +0.022 C 
ATOM      7  C   UNL     1      -4.340   1.525  25.049  0.00  0.00    +0.093 C 
ATOM      8  N   UNL     1      -3.988   0.793  24.902  0.00  0.00    -0.280 N 
ATOM      9  C   UNL     1      -3.223   0.757  24.595  0.00  0.00    +0.093 C 
ATOM     10  C   UNL     1      -2.809   1.454  24.436  0.00  0.00    +0.022 C 
ATOM     26  C   UNL     1      -4.402   0.097  25.061  0.00  0.00    +0.225 C 
ATOM     27  O   UNL     1      -5.166   0.133  25.368  0.00  0.00    -0.275 OA
ENDROOT
BRANCH  26  28
ATOM     28  C   UNL     1      -4.050  -0.635  24.914  0.00  0.00    +0.077 C 
ATOM     29  C   UNL     1      -4.068  -1.047  24.200  0.00  0.00    +0.009 C 
ATOM     30  C   UNL     1      -3.648  -1.749  24.300  0.00  0.00    +0.001 C 
ATOM     31  C   UNL     1      -3.369  -1.771  25.077  0.00  0.00    +0.001 C 
ATOM     32  C   UNL     1      -3.618  -1.083  25.456  0.00  0.00    +0.009 C 
ENDBRANCH  26  28
BRANCH   5   4
ATOM      4  C   UNL     1      -2.748   2.881  24.424  0.00  0.00    +0.114 C 
BRANCH   4   2
ATOM      1  O   UNL     1      -3.601   3.978  24.091  0.00  0.00    -0.246 OA
ATOM      2  C   UNL     1      -3.081   3.611  24.615  0.00  0.00    +0.365 C 
ATOM      3  O   UNL     1      -2.893   3.975  25.332  0.00  0.00    -0.246 OA
ENDBRANCH   4   2
ENDBRANCH   5   4
BRANCH  10  11
ATOM     11  C   UNL     1      -2.045   1.417  24.129  0.00  0.00    +0.019 C 
BRANCH  11  12
ATOM     12  C   UNL     1      -1.450   1.029  24.551  0.00  0.00    +0.072 C 
BRANCH  12  13
ATOM     13  N   UNL     1      -0.711   0.910  24.204  0.00  0.00    -0.270 NA
ATOM     14  C   UNL     1      -0.154   1.519  24.200  0.00  0.00    +0.094 C 
ATOM     15  C   UNL     1       0.585   1.399  23.853  0.00  0.00    +0.108 C 
ATOM     16  N   UNL     1       0.768   0.671  23.511  0.00  0.00    -0.305 N 
ATOM     17  C   UNL     1       0.211   0.062  23.516  0.00  0.00    +0.108 C 
ATOM     18  C   UNL     1      -0.528   0.181  23.862  0.00  0.00    +0.094 C 
BRANCH  16  19
ATOM     19  C   UNL     1       1.506   0.551  23.165  0.00  0.00    +0.048 A 
ATOM     20  C   UNL     1       2.158   0.986  23.423  0.00  0.00    +0.017 A 
ATOM     21  C   UNL     1       2.898   0.867  23.077  0.00  0.00    +0.031 A 
ATOM     22  C   UNL     1       2.984   0.312  22.472  0.00  0.00    +0.140 A 
ATOM     23  F   UNL     1       3.724   0.192  22.126  0.00  0.00    -0.204 F 
ATOM     24  C   UNL     1       2.333  -0.123  22.214  0.00  0.00    +0.031 A 
ATOM     25  C   UNL     1       1.594  -0.003  22.561  0.00  0.00    +0.017 A 
ENDBRANCH  16  19
ENDBRANCH  12  13
ENDBRANCH  11  12
ENDBRANCH  10  11
TORSDOF 7
ENDMDL
MODEL 6
REMARK VINA RESULT:     -10.0      3.060      5.596
REMARK  Name = 
REMARK  7 active torsions:
REMARK  status: ('A' for Active; 'I' for Inactive)
REMARK    1  A    between atoms: C_2  and  C_4
REMARK    2  A    between atoms: C_4  and  C_5
REMARK    3  A    between atoms: C_10  and  C_11
REMARK    4  A    between atoms: C_11  and  C_12
REMARK    5  A    between atoms: C_12  and  N_13
REMARK    6  A    between atoms: N_16  and  C_19
REMARK    7  A    between atoms: C_26  and  C_28
REMARK                            x       y       z     vdW  Elec       q    Type
REMARK                         _______ _______ _______ _____ _____    ______ ____
ROOT
ATOM      5  C   UNL     1      -0.274   0.110  23.950  0.00  0.00    +0.015 C 
ATOM      6  C   UNL     1       0.044  -0.651  23.915  0.00  0.00    +0.022 C 
ATOM      7  C   UNL     1      -0.393  -1.294  24.189  0.00  0.00    +0.093 C 
ATOM      8  N   UNL     1      -1.149  -1.177  24.498  0.00  0.00    -0.280 N 
ATOM      9  C   UNL     1      -1.468  -0.417  24.533  0.00  0.00    +0.093 C 
ATOM     10  C   UNL     1      -1.030   0.227  24.259  0.00  0.00    +0.022 C 
ATOM     26  C   UNL     1      -1.588  -1.821  24.772  0.00  0.00    +0.225 C 
ATOM     27  O   UNL     1      -1.269  -2.581  24.736  0.00  0.00    -0.275 OA
ENDROOT
BRANCH  26  28
ATOM     28  C   UNL     1      -2.344  -1.704  25.080  0.00  0.00    +0.077 C 
ATOM     29  C   UNL     1      -2.521  -1.433  25.839  0.00  0.00    +0.009 C 
ATOM     30  C   UNL     1      -3.342  -1.399  25.912  0.00  0.00    +0.001 C 
ATOM     31  C   UNL     1      -3.672  -1.649  25.198  0.00  0.00    +0.001 C 
ATOM     32  C   UNL     1      -3.055  -1.837  24.684  0.00  0.00    +0.009 C 
ENDBRANCH  26  28
BRANCH   5   4
ATOM      4  C   UNL     1       0.164   0.753  23.677  0.00  0.00    +0.114 C 
BRANCH   4   2
ATOM      1  O   UNL     1       1.169   0.200  22.824  0.00  0.00    -0.246 OA
ATOM      2  C   UNL     1       0.959   0.657  23.479  0.00  0.00    +0.365 C 
ATOM      3  O   UNL     1       1.545   1.017  23.934  0.00  0.00    -0.246 OA
ENDBRANCH   4   2
ENDBRANCH   5   4
BRANCH  10  11
ATOM     11  C   UNL     1      -1.348   0.987  24.295  0.00  0.00    +0.019 C 
BRANCH  11  12
ATOM     12  C   UNL     1      -1.974   1.195  23.798  0.00  0.00    +0.072 C 
BRANCH  12  13
ATOM     13  N   UNL     1      -2.588   1.666  24.084  0.00  0.00    -0.270 NA
ATOM     14  C   UNL     1      -2.460   2.164  24.730  0.00  0.00    +0.094 C 
ATOM     15  C   UNL     1      -3.075   2.635  25.015  0.00  0.00    +0.108 C 
ATOM     16  N   UNL     1      -3.816   2.608  24.656  0.00  0.00    -0.305 N 
ATOM     17  C   UNL     1      -3.944   2.110  24.011  0.00  0.00    +0.108 C 
ATOM     18  C   UNL     1      -3.331   1.639  23.725  0.00  0.00    +0.094 C 
BRANCH  16  19
ATOM     19  C   UNL     1      -4.430   3.078  24.942  0.00  0.00    +0.048 A 
ATOM     20  C   UNL     1      -5.104   2.727  25.262  0.00  0.00    +0.017 A 
ATOM     21  C   UNL     1      -5.719   3.198  25.548  0.00  0.00    +0.031 A 
ATOM     22  C   UNL     1      -5.659   4.020  25.513  0.00  0.00    +0.140 A 
ATOM     23  F   UNL     1      -6.274   4.491  25.799  0.00  0.00    -0.204 F 
ATOM     24  C   UNL     1      -4.985   4.371  25.192  0.00  0.00    +0.031 A 
ATOM     25  C   UNL     1      -4.371   3.901  24.907  0.00  0.00    +0.017 A 
ENDBRANCH  16  19
ENDBRANCH  12  13
ENDBRANCH  11  12
ENDBRANCH  10  11
TORSDOF 7
ENDMDL
MODEL 7
REMARK VINA RESULT:      -9.9      3.200      6.141
REMARK  Name = 
REMARK  7 active torsions:
REMARK  status: ('A' for Active; 'I' for Inactive)
REMARK    1  A    between atoms: C_2  and  C_4
REMARK    2  A    between atoms: C_4  and  C_5
REMARK    3  A    between atoms: C_10  and  C_11
REMARK    4  A    between atoms: C_11  and  C_12
REMARK    5  A    between atoms: C_12  and  N_13
REMARK    6  A    between atoms: N_16  and  C_19
REMARK    7  A    between atoms: C_26  and  C_28
REMARK                            x       y       z     vdW  Elec       q    Type
REMARK                         _______ _______ _______ _____ _____    ______ ____
ROOT
ATOM      5  C   UNL     1      -1.280  -1.494  24.908  0.00  0.00    +0.015 C 
ATOM      6  C   UNL     1      -1.724  -2.172  24.750  0.00  0.00    +0.022 C 
ATOM      7  C   UNL     1      -2.540  -2.117  24.650  0.00  0.00    +0.093 C 
ATOM      8  N   UNL     1      -2.914  -1.384  24.708  0.00  0.00    -0.280 N 
ATOM      9  C   UNL     1      -2.472  -0.706  24.866  0.00  0.00    +0.093 C 
ATOM     10  C   UNL     1      -1.654  -0.761  24.966  0.00  0.00    +0.022 C 
ATOM     26  C   UNL     1      -3.732  -1.329  24.608  0.00  0.00    +0.225 C 
ATOM     27  O   UNL     1      -4.174  -2.007  24.450  0.00  0.00    -0.275 OA
ENDROOT
BRANCH  26  28
ATOM     28  C   UNL     1      -4.106  -0.596  24.665  0.00  0.00    +0.077 C 
ATOM     29  C   UNL     1      -4.329  -0.114  24.034  0.00  0.00    +0.009 C 
ATOM     30  C   UNL     1      -4.683   0.564  24.343  0.00  0.00    +0.001 C 
ATOM     31  C   UNL     1      -4.680   0.500  25.166  0.00  0.00    +0.001 C 
ATOM     32  C   UNL     1      -4.323  -0.216  25.365  0.00  0.00    +0.009 C 
ENDBRANCH  26  28
BRANCH   5   4
ATOM      4  C   UNL     1      -0.464  -1.549  25.008  0.00  0.00    +0.114 C 
BRANCH   4   2
ATOM      1  O   UNL     1      -0.109  -2.929  24.891  0.00  0.00    -0.246 OA
ATOM      2  C   UNL     1      -0.133  -2.232  25.332  0.00  0.00    +0.365 C 
ATOM      3  O   UNL     1       0.174  -2.219  26.098  0.00  0.00    -0.246 OA
ENDBRANCH   4   2
ENDBRANCH   5   4
BRANCH  10  11
ATOM     11  C   UNL     1      -1.212  -0.083  25.124  0.00  0.00    +0.019 C 
BRANCH  11  12
ATOM     12  C   UNL     1      -1.005   0.427  24.508  0.00  0.00    +0.072 C 
BRANCH  12  13
ATOM     13  N   UNL     1      -1.066   1.243  24.611  0.00  0.00    -0.270 NA
ATOM     14  C   UNL     1      -1.255   1.727  23.970  0.00  0.00    +0.094 C 
ATOM     15  C   UNL     1      -1.316   2.543  24.074  0.00  0.00    +0.108 C 
ATOM     16  N   UNL     1      -1.188   2.875  24.818  0.00  0.00    -0.305 N 
ATOM     17  C   UNL     1      -0.999   2.391  25.459  0.00  0.00    +0.108 C 
ATOM     18  C   UNL     1      -0.938   1.575  25.356  0.00  0.00    +0.094 C 
BRANCH  16  19
ATOM     19  C   UNL     1      -1.249   3.691  24.921  0.00  0.00    +0.048 A 
ATOM     20  C   UNL     1      -1.928   4.014  25.259  0.00  0.00    +0.017 A 
ATOM     21  C   UNL     1      -1.990   4.831  25.363  0.00  0.00    +0.031 A 
ATOM     22  C   UNL     1      -1.371   5.323  25.129  0.00  0.00    +0.140 A 
ATOM     23  F   UNL     1      -1.432   6.140  25.233  0.00  0.00    -0.204 F 
ATOM     24  C   UNL     1      -0.691   5.000  24.791  0.00  0.00    +0.031 A 
ATOM     25  C   UNL     1      -0.630   4.184  24.688  0.00  0.00    +0.017 A 
ENDBRANCH  16  19
ENDBRANCH  12  13
ENDBRANCH  11  12
ENDBRANCH  10  11
TORSDOF 7
ENDMDL
