MODEL 1
REMARK VINA RESULT:     -10.0      0.000      0.000
REMARK  Name = 
REMARK  6 active torsions:
REMARK  status: ('A' for Active; 'I' for Inactive)
REMARK    1  A    between atoms: O_2  and  C_3
REMARK    2  A    between atoms: C_3  and  C_4
REMARK    3  A    between atoms: N_6  and  C_7
REMARK    4  A    between atoms: C_7  and  C_8
REMARK    5  A    between atoms: C_15  and  C_16
REMARK    6  A    between atoms: C_18  and  C_22
REMARK                            x       y       z     vdW  Elec       q    Type
REMARK                         _______ _______ _______ _____ _____    ______ ____
ROOT
ATOM      8  C   UNL     1      -0.030   0.326  23.578  0.00  0.00    +0.079 C 
ATOM      9  C   UNL     1      -0.411   0.282  24.255  0.00  0.00    +0.018 C 
ATOM     10  C   UNL     1      -1.044   0.738  24.471  0.00  0.00    +0.010 C 
ATOM     11  C   UNL     1      -1.340   0.531  25.292  0.00  0.00    +0.018 C 
ATOM     12  C   UNL     1      -0.953   0.480  24.768  0.00  0.00    +0.072 C 
ATOM     13  N   UNL     1      -0.676   0.788  23.805  0.00  0.00    -0.272 NA
ATOM     14  C   UNL     1      -1.130   1.455  23.379  0.00  0.00    +0.078 C 
ATOM     15  C   UNL     1      -1.476   1.379  24.055  0.00  0.00    +0.056 C 
ENDROOT
BRANCH  15  16
ATOM     16  C   UNL     1      -2.122   1.809  24.336  0.00  0.00    +0.058 A 
ATOM     17  C   UNL     1      -2.884   1.518  24.454  0.00  0.00    +0.035 A 
ATOM     18  C   UNL     1      -3.352   2.134  24.739  0.00  0.00    +0.102 A 
ATOM     19  N   UNL     1      -2.879   2.808  24.797  0.00  0.00    -0.170 NA
ATOM     20  N   UNL     1      -2.118   2.607  24.547  0.00  0.00    -0.253 N 
ATOM     21  C   UNL     1      -1.468   3.114  24.515  0.00  0.00    +0.153 C 
BRANCH  18  22
ATOM     22  C   UNL     1      -4.152   2.087  24.932  0.00  0.00    +0.020 A 
ATOM     23  C   UNL     1      -4.587   1.415  24.730  0.00  0.00    +0.004 A 
ATOM     24  C   UNL     1      -5.387   1.368  24.924  0.00  0.00    +0.030 A 
ATOM     25  C   UNL     1      -5.754   1.992  25.319  0.00  0.00    +0.140 A 
ATOM     26  F   UNL     1      -6.555   1.944  25.512  0.00  0.00    -0.204 F 
ATOM     27  C   UNL     1      -5.319   2.664  25.521  0.00  0.00    +0.030 A 
ATOM     28  C   UNL     1      -4.519   2.711  25.328  0.00  0.00    +0.004 A 
ENDBRANCH  18  22
ENDBRANCH  15  16
BRANCH   8   7
ATOM      7  C   UNL     1       0.557   0.095  23.048  0.00  0.00    +0.131 C 
BRANCH   7   6
ATOM      4  C   UNL     1       1.941   0.044  22.689  0.00  0.00    +0.272 C 
ATOM      5  O   UNL     1       1.733  -0.155  21.916  0.00  0.00    -0.271 OA
ATOM      6  N   UNL     1       1.353   0.169  23.255  0.00  0.00    -0.202 NA
BRANCH   4   3
ATOM      3  C   UNL     1       2.736   0.118  22.898  0.00  0.00    +0.229 C 
BRANCH   3   2
ATOM      1  C   UNL     1       4.011   0.723  22.671  0.00  0.00    +0.175 C 
ATOM      2  O   UNL     1       3.253   0.536  22.407  0.00  0.00    -0.342 OA
ENDBRANCH   3   2
ENDBRANCH   4   3
ENDBRANCH   7   6
ENDBRANCH   8   7
TORSDOF 6
ENDMDL
MODEL 2
REMARK VINA RESULT:      -9.9      1.004      1.335
REMARK  Name = 
REMARK  6 active torsions:
REMARK  status: ('A' for Active; 'I' for Inactive)
REMARK    1  A    between atoms: O_2  and  C_3
REMARK    2  A    between atoms: C_3  and  C_4
REMARK    3  A    between atoms: N_6  and  C_7
REMARK    4  A    between atoms: C_7  and  C_8
REMARK    5  A    between atoms: C_15  and  C_16
REMARK    6  A    between atoms: C_18  and  C_22
REMARK                            x       y       z     vdW  Elec       q    Type
REMARK                         _______ _______ _______ _____ _____    ______ ____
ROOT
ATOM      8  C   UNL     1      -0.228   0.392  23.739  0.00  0.00    +0.079 C 
ATOM      9  C   UNL     1      -0.492   0.663  24.419  0.00  0.00    +0.018 C 
ATOM     10  C   UNL     1      -1.266   0.824  24.593  0.00  0.00    +0.010 C 
ATOM     11  C   UNL     1      -1.363   1.129  25.431  0.00  0.00    +0.018 C 
ATOM     12  C   UNL     1      -1.033   0.906  24.914  0.00  0.00    +0.072 C 
ATOM     13  N   UNL     1      -1.015   0.558  23.925  0.00  0.00    -0.272 NA
ATOM     14  C   UNL     1      -1.785   0.489  23.439  0.00  0.00    +0.078 C 
ATOM     15  C   UNL     1      -2.003   0.755  24.121  0.00  0.00    +0.056 C 
ENDROOT
BRANCH  15  16
ATOM     16  C   UNL     1      -2.770   0.939  24.362  0.00  0.00    +0.058 A 
ATOM     17  C   UNL     1      -3.049   1.689  24.562  0.00  0.00    +0.035 A 
ATOM     18  C   UNL     1      -3.843   1.619  24.770  0.00  0.00    +0.102 A 
ATOM     19  N   UNL     1      -4.057   0.825  24.698  0.00  0.00    -0.170 NA
ATOM     20  N   UNL     1      -3.393   0.404  24.446  0.00  0.00    -0.253 N 
ATOM     21  C   UNL     1      -3.358  -0.408  24.303  0.00  0.00    +0.153 C 
BRANCH  18  22
ATOM     22  C   UNL     1      -4.339   2.233  25.007  0.00  0.00    +0.020 A 
ATOM     23  C   UNL     1      -4.155   3.013  24.807  0.00  0.00    +0.004 A 
ATOM     24  C   UNL     1      -4.651   3.628  25.045  0.00  0.00    +0.030 A 
ATOM     25  C   UNL     1      -5.331   3.464  25.483  0.00  0.00    +0.140 A 
ATOM     26  F   UNL     1      -5.827   4.080  25.720  0.00  0.00    -0.204 F 
ATOM     27  C   UNL     1      -5.515   2.685  25.683  0.00  0.00    +0.030 A 
ATOM     28  C   UNL     1      -5.019   2.070  25.445  0.00  0.00    +0.004 A 
ENDBRANCH  18  22
ENDBRANCH  15  16
BRANCH   8   7
ATOM      7  C   UNL     1       0.369   0.137  23.231  0.00  0.00    +0.131 C 
BRANCH   7   6
ATOM      4  C   UNL     1       1.748   0.130  22.852  0.00  0.00    +0.272 C 
ATOM      5  O   UNL     1       1.550  -0.229  22.137  0.00  0.00    -0.271 OA
ATOM      6  N   UNL     1       1.158   0.314  23.400  0.00  0.00    -0.202 NA
BRANCH   4   3
ATOM      3  C   UNL     1       2.536   0.307  23.022  0.00  0.00    +0.229 C 
BRANCH   3   2
ATOM      1  C   UNL     1       3.832   0.718  22.582  0.00  0.00    +0.175 C 
ATOM      2  O   UNL     1       3.055   0.501  22.410  0.00  0.00    -0.342 OA
ENDBRANCH   3   2
ENDBRANCH   4   3
ENDBRANCH   7   6
ENDBRANCH   8   7
TORSDOF 6
ENDMDL
MODEL 3
REMARK VINA RESULT:      -9.6      3.557      4.691
REMARK  Name = 
REMARK  6 active torsions:
REMARK  status: ('A' for Active; 'I' for Inactive)
REMARK    1  A    between atoms: O_2  and  C_3
REMARK    2  A    between atoms: C_3  and  C_4
REMARK    3  A    between atoms: N_6  and  C_7
REMARK    4  A    between atoms: C_7  and  C_8
REMARK    5  A    between atoms: C_15  and  C_16
REMARK    6  A    between atoms: C_18  and  C_22
REMARK                            x       y       z     vdW  Elec       q    Type
REMARK                         _______ _______ _______ _____ _____    ______ ____
ROOT
ATOM      8  C   UNL     1      -3.151   3.263  24.611  0.00  0.00    +0.079 C 
ATOM      9  C   UNL     1      -3.140   2.730  24.044  0.00  0.00    +0.018 C 
ATOM     10  C   UNL     1      -3.449   1.983  24.093  0.00  0.00    +0.010 C 
ATOM     11  C   UNL     1      -3.335   1.524  23.331  0.00  0.00    +0.018 C 
ATOM     12  C   UNL     1      -3.286   2.041  23.727  0.00  0.00    +0.072 C 
ATOM     13  N   UNL     1      -3.463   2.500  24.653  0.00  0.00    -0.272 NA
ATOM     14  C   UNL     1      -3.893   2.052  25.322  0.00  0.00    +0.078 C 
ATOM     15  C   UNL     1      -3.862   1.558  24.741  0.00  0.00    +0.056 C 
ENDROOT
BRANCH  15  16
ATOM     16  C   UNL     1      -4.155   0.787  24.725  0.00  0.00    +0.058 A 
ATOM     17  C   UNL     1      -3.713   0.103  24.593  0.00  0.00    +0.035 A 
ATOM     18  C   UNL     1      -4.226  -0.541  24.624  0.00  0.00    +0.102 A 
ATOM     19  N   UNL     1      -4.985  -0.257  24.775  0.00  0.00    -0.170 NA
ATOM     20  N   UNL     1      -4.942   0.565  24.837  0.00  0.00    -0.253 N 
ATOM     21  C   UNL     1      -5.573   1.075  24.985  0.00  0.00    +0.153 C 
BRANCH  18  22
ATOM     22  C   UNL     1      -4.017  -1.333  24.523  0.00  0.00    +0.020 A 
ATOM     23  C   UNL     1      -3.538  -1.708  25.081  0.00  0.00    +0.004 A 
ATOM     24  C   UNL     1      -3.330  -2.500  24.979  0.00  0.00    +0.030 A 
ATOM     25  C   UNL     1      -3.599  -2.917  24.320  0.00  0.00    +0.140 A 
ATOM     26  F   UNL     1      -3.390  -3.709  24.220  0.00  0.00    -0.204 F 
ATOM     27  C   UNL     1      -4.078  -2.541  23.763  0.00  0.00    +0.030 A 
ATOM     28  C   UNL     1      -4.287  -1.750  23.864  0.00  0.00    +0.004 A 
ENDBRANCH  18  22
ENDBRANCH  15  16
BRANCH   8   7
ATOM      7  C   UNL     1      -2.982   4.006  24.925  0.00  0.00    +0.131 C 
BRANCH   7   6
ATOM      4  C   UNL     1      -1.939   4.944  25.202  0.00  0.00    +0.272 C 
ATOM      5  O   UNL     1      -2.254   5.074  25.953  0.00  0.00    -0.271 OA
ATOM      6  N   UNL     1      -2.303   4.410  24.688  0.00  0.00    -0.202 NA
BRANCH   4   3
ATOM      3  C   UNL     1      -1.260   5.347  24.963  0.00  0.00    +0.229 C 
BRANCH   3   2
ATOM      1  C   UNL     1       0.038   5.170  24.392  0.00  0.00    +0.175 C 
ATOM      2  O   UNL     1      -0.533   4.956  24.947  0.00  0.00    -0.342 OA
ENDBRANCH   3   2
ENDBRANCH   4   3
ENDBRANCH   7   6
ENDBRANCH   8   7
TORSDOF 6
ENDMDL
MODEL 4
REMARK VINA RESULT:      -9.6      3.580      4.509
REMARK  Name = 
REMARK  6 active torsions:
REMARK  status: ('A' for Active; 'I' for Inactive)
REMARK    1  A    between atoms: O_2  and  C_3
REMARK    2  A    between atoms: C_3  and  C_4
REMARK    3  A    between atoms: N_6  and  C_7
REMARK    4  A    between atoms: C_7  and  C_8
REMARK    5  A    between atoms: C_15  and  C_16
REMARK    6  A    between atoms: C_18  and  C_22
REMARK                            x       y       z     vdW  Elec       q    Type
REMARK                         _______ _______ _______ _____ _____    ______ ____
ROOT
ATOM      8  C   UNL     1      -3.952  -0.072  24.103  0.00  0.00    +0.079 C 
ATOM      9  C   UNL     1      -3.669   0.506  23.664  0.00  0.00    +0.018 C 
ATOM     10  C   UNL     1      -3.499   1.254  23.922  0.00  0.00    +0.010 C 
ATOM     11  C   UNL     1      -3.182   1.771  23.261  0.00  0.00    +0.018 C 
ATOM     12  C   UNL     1      -3.415   1.222  23.527  0.00  0.00    +0.072 C 
ATOM     13  N   UNL     1      -3.776   0.693  24.358  0.00  0.00    -0.272 NA
ATOM     14  C   UNL     1      -3.846   1.096  25.174  0.00  0.00    +0.078 C 
ATOM     15  C   UNL     1      -3.569   1.635  24.710  0.00  0.00    +0.056 C 
ENDROOT
BRANCH  15  16
ATOM     16  C   UNL     1      -3.376   2.413  24.907  0.00  0.00    +0.058 A 
ATOM     17  C   UNL     1      -2.645   2.775  24.788  0.00  0.00    +0.035 A 
ATOM     18  C   UNL     1      -2.697   3.550  25.065  0.00  0.00    +0.102 A 
ATOM     19  N   UNL     1      -3.460   3.667  25.355  0.00  0.00    -0.170 NA
ATOM     20  N   UNL     1      -3.880   2.963  25.258  0.00  0.00    -0.253 N 
ATOM     21  C   UNL     1      -4.666   2.833  25.472  0.00  0.00    +0.153 C 
BRANCH  18  22
ATOM     22  C   UNL     1      -2.092   4.111  25.055  0.00  0.00    +0.020 A 
ATOM     23  C   UNL     1      -1.304   3.868  25.011  0.00  0.00    +0.004 A 
ATOM     24  C   UNL     1      -0.699   4.429  25.000  0.00  0.00    +0.030 A 
ATOM     25  C   UNL     1      -0.881   5.233  25.034  0.00  0.00    +0.140 A 
ATOM     26  F   UNL     1      -0.276   5.793  25.023  0.00  0.00    -0.204 F 
ATOM     27  C   UNL     1      -1.669   5.476  25.077  0.00  0.00    +0.030 A 
ATOM     28  C   UNL     1      -2.274   4.915  25.088  0.00  0.00    +0.004 A 
ENDBRANCH  18  22
ENDBRANCH  15  16
BRANCH   8   7
ATOM      7  C   UNL     1      -4.218  -0.843  24.221  0.00  0.00    +0.131 C 
BRANCH   7   6
ATOM      4  C   UNL     1      -3.839  -2.220  24.299  0.00  0.00    +0.272 C 
ATOM      5  O   UNL     1      -4.510  -2.429  23.868  0.00  0.00    -0.271 OA
ATOM      6  N   UNL     1      -3.693  -1.426  24.476  0.00  0.00    -0.202 NA
BRANCH   4   3
ATOM      3  C   UNL     1      -3.313  -2.802  24.555  0.00  0.00    +0.229 C 
BRANCH   3   2
ATOM      1  C   UNL     1      -1.902  -3.025  24.528  0.00  0.00    +0.175 C 
ATOM      2  O   UNL     1      -2.620  -2.945  24.130  0.00  0.00    -0.342 OA
ENDBRANCH   3   2
ENDBRANCH   4   3
ENDBRANCH   7   6
ENDBRANCH   8   7
TORSDOF 6
ENDMDL
MODEL 5
REMARK VINA RESULT:      -9.5      1.002      1.335
REMARK  Name = 
REMARK  6 active torsions:
REMARK  status: ('A' for Active; 'I' for Inactive)
REMARK    1  A    between atoms: O_2  and  C_3
REMARK    2  A    between atoms: C_3  and  C_4
REMARK    3  A    between atoms: N_6  and  C_7
REMARK    4  A    between atoms: C_7  and  C_8
REMARK    5  A    between atoms: C_15  and  C_16
REMARK    6  A    between atoms: C_18  and  C_22
REMARK                            x       y       z     vdW  Elec       q    Type
REMARK                         _______ _______ _______ _____ _____    ______ ____
ROOT
ATOM      8  C   UNL     1       0.515   0.618  23.556  0.00  0.00    +0.079 C 
ATOM      9  C   UNL     1       0.175   1.164  23.994  0.00  0.00    +0.018 C 
ATOM     10  C   UNL     1      -0.574   1.123  24.299  0.00  0.00    +0.010 C 
ATOM     11  C   UNL     1      -0.780   1.854  24.777  0.00  0.00    +0.018 C 
ATOM     12  C   UNL     1      -0.400   1.471  24.408  0.00  0.00    +0.072 C 
ATOM     13  N   UNL     1      -0.247   0.585  23.870  0.00  0.00    -0.272 NA
ATOM     14  C   UNL     1      -0.901  -0.050  23.818  0.00  0.00    +0.078 C 
ATOM     15  C   UNL     1      -1.199   0.509  24.245  0.00  0.00    +0.056 C 
ENDROOT
BRANCH  15  16
ATOM     16  C   UNL     1      -1.951   0.531  24.585  0.00  0.00    +0.058 A 
ATOM     17  C   UNL     1      -2.549   1.070  24.404  0.00  0.00    +0.035 A 
ATOM     18  C   UNL     1      -3.204   0.890  24.871  0.00  0.00    +0.102 A 
ATOM     19  N   UNL     1      -3.011   0.240  25.341  0.00  0.00    -0.170 NA
ATOM     20  N   UNL     1      -2.236   0.017  25.164  0.00  0.00    -0.253 N 
ATOM     21  C   UNL     1      -1.820  -0.608  25.505  0.00  0.00    +0.153 C 
BRANCH  18  22
ATOM     22  C   UNL     1      -3.925   1.290  24.870  0.00  0.00    +0.020 A 
ATOM     23  C   UNL     1      -4.632   0.866  24.927  0.00  0.00    +0.004 A 
ATOM     24  C   UNL     1      -5.353   1.266  24.926  0.00  0.00    +0.030 A 
ATOM     25  C   UNL     1      -5.370   2.089  24.868  0.00  0.00    +0.140 A 
ATOM     26  F   UNL     1      -6.092   2.488  24.867  0.00  0.00    -0.204 F 
ATOM     27  C   UNL     1      -4.663   2.512  24.811  0.00  0.00    +0.030 A 
ATOM     28  C   UNL     1      -3.942   2.113  24.812  0.00  0.00    +0.004 A 
ENDBRANCH  18  22
ENDBRANCH  15  16
BRANCH   8   7
ATOM      7  C   UNL     1       1.145   0.313  23.119  0.00  0.00    +0.131 C 
BRANCH   7   6
ATOM      4  C   UNL     1       2.511   0.388  22.705  0.00  0.00    +0.272 C 
ATOM      5  O   UNL     1       2.369  -0.187  22.131  0.00  0.00    -0.271 OA
ATOM      6  N   UNL     1       1.899   0.638  23.199  0.00  0.00    -0.202 NA
BRANCH   4   3
ATOM      3  C   UNL     1       3.265   0.713  22.786  0.00  0.00    +0.229 C 
BRANCH   3   2
ATOM      1  C   UNL     1       4.661   0.523  23.025  0.00  0.00    +0.175 C 
ATOM      2  O   UNL     1       3.927   0.220  22.802  0.00  0.00    -0.342 OA
ENDBRANCH   3   2
ENDBRANCH   4   3
ENDBRANCH   7   6
ENDBRANCH   8   7
TORSDOF 6
ENDMDL
MODEL 6
REMARK VINA RESULT:      -9.0      3.163      4.128
REMARK  Name = 
REMARK  6 active torsions:
REMARK  status: ('A' for Active; 'I' for Inactive)
REMARK    1  A    between atoms: O_2  and  C_3
REMARK    2  A    between atoms: C_3  and  C_4
REMARK    3  A    between atoms: N_6  and  C_7
REMARK    4  A    between atoms: C_7  and  C_8
REMARK    5  A    between atoms: C_15  and  C_16
REMARK    6  A    between atoms: C_18  and  C_22
REMARK                            x       y       z     vdW  Elec       q    Type
REMARK                         _______ _______ _______ _____ _____    ______ ____
ROOT
ATOM      8  C   UNL     1      -0.808  -0.522  24.644  0.00  0.00    +0.079 C 
ATOM      9  C   UNL     1      -0.536   0.090  24.248  0.00  0.00    +0.018 C 
ATOM     10  C   UNL     1      -0.511   0.853  24.519  0.00  0.00    +0.010 C 
ATOM     11  C   UNL     1      -0.161   1.412  23.911  0.00  0.00    +0.018 C 
ATOM     12  C   UNL     1      -0.360   0.835  24.144  0.00  0.00    +0.072 C 
ATOM     13  N   UNL     1      -0.778   0.258  24.913  0.00  0.00    -0.272 NA
ATOM     14  C   UNL     1      -1.033   0.642  25.701  0.00  0.00    +0.078 C 
ATOM     15  C   UNL     1      -0.757   1.216  25.279  0.00  0.00    +0.056 C 
ENDROOT
BRANCH  15  16
ATOM     16  C   UNL     1      -0.703   2.011  25.494  0.00  0.00    +0.058 A 
ATOM     17  C   UNL     1      -1.085   2.640  25.122  0.00  0.00    +0.035 A 
ATOM     18  C   UNL     1      -0.875   3.334  25.515  0.00  0.00    +0.102 A 
ATOM     19  N   UNL     1      -0.364   3.133  26.131  0.00  0.00    -0.170 NA
ATOM     20  N   UNL     1      -0.257   2.315  26.118  0.00  0.00    -0.253 N 
ATOM     21  C   UNL     1       0.212   1.878  26.637  0.00  0.00    +0.153 C 
BRANCH  18  22
ATOM     22  C   UNL     1      -1.132   4.095  25.328  0.00  0.00    +0.020 A 
ATOM     23  C   UNL     1      -1.898   4.332  25.522  0.00  0.00    +0.004 A 
ATOM     24  C   UNL     1      -2.155   5.093  25.334  0.00  0.00    +0.030 A 
ATOM     25  C   UNL     1      -1.645   5.618  24.952  0.00  0.00    +0.140 A 
ATOM     26  F   UNL     1      -1.903   6.379  24.764  0.00  0.00    -0.204 F 
ATOM     27  C   UNL     1      -0.879   5.381  24.758  0.00  0.00    +0.030 A 
ATOM     28  C   UNL     1      -0.622   4.620  24.945  0.00  0.00    +0.004 A 
ENDBRANCH  18  22
ENDBRANCH  15  16
BRANCH   8   7
ATOM      7  C   UNL     1      -0.986  -1.323  24.729  0.00  0.00    +0.131 C 
BRANCH   7   6
ATOM      4  C   UNL     1      -1.905  -2.404  24.553  0.00  0.00    +0.272 C 
ATOM      5  O   UNL     1      -1.473  -2.859  25.087  0.00  0.00    -0.271 OA
ATOM      6  N   UNL     1      -1.662  -1.635  24.374  0.00  0.00    -0.202 NA
BRANCH   4   3
ATOM      3  C   UNL     1      -2.582  -2.715  24.197  0.00  0.00    +0.229 C 
BRANCH   3   2
ATOM      1  C   UNL     1      -4.009  -2.777  24.146  0.00  0.00    +0.175 C 
ATOM      2  O   UNL     1      -3.315  -2.638  24.569  0.00  0.00    -0.342 OA
ENDBRANCH   3   2
ENDBRANCH   4   3
ENDBRANCH   7   6
ENDBRANCH   8   7
TORSDOF 6
ENDMDL
