MODEL 1
REMARK VINA RESULT:     -14.9      0.000      0.000
REMARK  Name = 
REMARK  2 active torsions:
REMARK  status: ('A' for Active; 'I' for Inactive)
REMARK    1  A    between atoms: C_5  and  C_8
REMARK    2  A    between atoms: C_17  and  C_24
REMARK                            x       y       z     vdW  Elec       q    Type
REMARK                         _______ _______ _______ _____ _____    ______ ____
ROOT
ATOM      8  C   UNL     1      -3.918   3.357  24.350  0.00  0.00    +0.249 C 
ATOM      9  O   UNL     1      -3.760   4.217  24.176  0.00  0.00    -0.270 OA
ATOM     10  N   UNL     1      -3.301   2.765  24.113  0.00  0.00    -0.276 N 
ATOM     11  C   UNL     1      -2.559   2.599  23.766  0.00  0.00    +0.096 C 
ATOM     12  C   UNL     1      -2.545   1.616  23.869  0.00  0.00    +0.043 C 
ATOM     13  C   UNL     1      -2.381   0.818  23.878  0.00  0.00    +0.011 C 
ATOM     14  C   UNL     1      -2.899   1.244  24.085  0.00  0.00    +0.058 C 
ATOM     15  C   UNL     1      -2.898   2.193  23.979  0.00  0.00    +0.099 C 
ATOM     16  C   UNL     1      -3.723   1.231  24.492  0.00  0.00    +0.042 A 
ATOM     17  C   UNL     1      -4.268   0.705  24.819  0.00  0.00    +0.018 A 
ATOM     18  C   UNL     1      -4.975   0.989  25.135  0.00  0.00    +0.006 A 
ATOM     19  C   UNL     1      -5.138   1.798  25.124  0.00  0.00    +0.061 A 
ATOM     20  C   UNL     1      -4.593   2.323  24.798  0.00  0.00    +0.261 A 
ATOM     21  O   UNL     1      -4.756   3.342  24.764  0.00  0.00    -0.267 OA
ATOM     22  N   UNL     1      -3.886   2.040  24.481  0.00  0.00    -0.299 N 
ATOM     23  C   UNL     1      -3.406   1.613  24.293  0.00  0.00    +0.110 C 
ENDROOT
BRANCH   8   5
ATOM      1  F   UNL     1      -6.269   1.562  26.032  0.00  0.00    -0.204 F 
ATOM      2  C   UNL     1      -5.708   1.985  25.601  0.00  0.00    +0.140 A 
ATOM      3  C   UNL     1      -5.744   1.814  24.809  0.00  0.00    +0.030 A 
ATOM      4  C   UNL     1      -5.095   2.311  24.351  0.00  0.00    +0.007 A 
ATOM      5  C   UNL     1      -4.586   2.831  24.737  0.00  0.00    +0.054 A 
ATOM      6  C   UNL     1      -4.636   2.929  25.554  0.00  0.00    +0.007 A 
ATOM      7  C   UNL     1      -5.198   2.506  25.986  0.00  0.00    +0.030 A 
ENDBRANCH   8   5
BRANCH  17  24
ATOM     24  C   UNL     1      -4.106  -0.103  24.830  0.00  0.00    +0.031 A 
ATOM     25  C   UNL     1      -4.278  -0.640  24.228  0.00  0.00    +0.007 A 
ATOM     26  C   UNL     1      -4.021  -1.386  24.470  0.00  0.00    +0.007 A 
ATOM     27  C   UNL     1      -3.690  -1.309  25.222  0.00  0.00    +0.035 A 
ATOM     28  S   UNL     1      -3.742  -0.517  25.444  0.00  0.00    -0.086 S 
ENDBRANCH  17  24
TORSDOF 2
ENDMDL
MODEL 2
REMARK VINA RESULT:     -14.7      1.210      2.326
REMARK  Name = 
REMARK  2 active torsions:
REMARK  status: ('A' for Active; 'I' for Inactive)
REMARK    1  A    between atoms: C_5  and  C_8
REMARK    2  A    between atoms: C_17  and  C_24
REMARK                            x       y       z     vdW  Elec       q    Type
REMARK                         _______ _______ _______ _____ _____    ______ ____
ROOT
ATOM      8  C   UNL     1      -3.936   3.277  24.309  0.00  0.00    +0.249 C 
ATOM      9  O   UNL     1      -4.103   4.152  24.345  0.00  0.00    -0.270 OA
ATOM     10  N   UNL     1      -4.517   2.726  24.690  0.00  0.00    -0.276 N 
ATOM     11  C   UNL     1      -5.227   2.612  25.116  0.00  0.00    +0.096 C 
ATOM     12  C   UNL     1      -5.223   1.627  25.184  0.00  0.00    +0.043 C 
ATOM     13  C   UNL     1      -5.365   0.837  25.324  0.00  0.00    +0.011 C 
ATOM     14  C   UNL     1      -4.876   1.227  25.008  0.00  0.00    +0.058 C 
ATOM     15  C   UNL     1      -4.894   2.181  24.951  0.00  0.00    +0.099 C 
ATOM     16  C   UNL     1      -4.084   1.156  24.547  0.00  0.00    +0.042 A 
ATOM     17  C   UNL     1      -3.551   0.590  24.273  0.00  0.00    +0.018 A 
ATOM     18  C   UNL     1      -2.876   0.824  23.860  0.00  0.00    +0.006 A 
ATOM     19  C   UNL     1      -2.735   1.624  23.719  0.00  0.00    +0.061 A 
ATOM     20  C   UNL     1      -3.268   2.191  23.993  0.00  0.00    +0.261 A 
ATOM     21  O   UNL     1      -3.130   3.203  23.840  0.00  0.00    -0.267 OA
ATOM     22  N   UNL     1      -3.943   1.957  24.407  0.00  0.00    -0.299 N 
ATOM     23  C   UNL     1      -4.395   1.562  24.701  0.00  0.00    +0.110 C 
ENDROOT
BRANCH   8   5
ATOM      1  F   UNL     1      -1.379   1.276  23.288  0.00  0.00    -0.204 F 
ATOM      2  C   UNL     1      -2.014   1.752  23.515  0.00  0.00    +0.140 A 
ATOM      3  C   UNL     1      -2.652   1.656  23.024  0.00  0.00    +0.030 A 
ATOM      4  C   UNL     1      -3.353   2.209  23.309  0.00  0.00    +0.007 A 
ATOM      5  C   UNL     1      -3.285   2.702  23.966  0.00  0.00    +0.054 A 
ATOM      6  C   UNL     1      -2.583   2.721  24.398  0.00  0.00    +0.007 A 
ATOM      7  C   UNL     1      -1.947   2.245  24.172  0.00  0.00    +0.030 A 
ENDBRANCH   8   5
BRANCH  17  24
ATOM     24  C   UNL     1      -3.692  -0.211  24.413  0.00  0.00    +0.031 A 
ATOM     25  C   UNL     1      -4.119  -0.721  23.925  0.00  0.00    +0.007 A 
ATOM     26  C   UNL     1      -4.122  -1.467  24.276  0.00  0.00    +0.007 A 
ATOM     27  C   UNL     1      -3.696  -1.419  24.981  0.00  0.00    +0.035 A 
ATOM     28  S   UNL     1      -3.431  -0.643  25.066  0.00  0.00    -0.086 S 
ENDBRANCH  17  24
TORSDOF 2
ENDMDL
MODEL 3
REMARK VINA RESULT:     -14.4      1.601      2.606
REMARK  Name = 
REMARK  2 active torsions:
REMARK  status: ('A' for Active; 'I' for Inactive)
REMARK    1  A    between atoms: C_5  and  C_8
REMARK    2  A    between atoms: C_17  and  C_24
REMARK                            x       y       z     vdW  Elec       q    Type
REMARK                         _______ _______ _______ _____ _____    ______ ____
ROOT
ATOM      8  C   UNL     1      -4.966   3.256  25.369  0.00  0.00    +0.249 C 
ATOM      9  O   UNL     1      -5.785   3.568  25.534  0.00  0.00    -0.270 OA
ATOM     10  N   UNL     1      -4.885   2.406  25.129  0.00  0.00    -0.276 N 
ATOM     11  C   UNL     1      -5.241   1.669  24.961  0.00  0.00    +0.096 C 
ATOM     12  C   UNL     1      -4.435   1.143  24.739  0.00  0.00    +0.043 C 
ATOM     13  C   UNL     1      -3.882   0.582  24.532  0.00  0.00    +0.011 C 
ATOM     14  C   UNL     1      -3.890   1.258  24.718  0.00  0.00    +0.058 C 
ATOM     15  C   UNL     1      -4.678   1.754  24.930  0.00  0.00    +0.099 C 
ATOM     16  C   UNL     1      -3.331   1.974  24.860  0.00  0.00    +0.042 A 
ATOM     17  C   UNL     1      -2.532   2.176  24.838  0.00  0.00    +0.018 A 
ATOM     18  C   UNL     1      -2.296   2.944  25.025  0.00  0.00    +0.006 A 
ATOM     19  C   UNL     1      -2.859   3.510  25.234  0.00  0.00    +0.061 A 
ATOM     20  C   UNL     1      -3.658   3.307  25.256  0.00  0.00    +0.261 A 
ATOM     21  O   UNL     1      -4.395   3.983  25.513  0.00  0.00    -0.267 OA
ATOM     22  N   UNL     1      -3.894   2.539  25.069  0.00  0.00    -0.299 N 
ATOM     23  C   UNL     1      -3.859   1.896  24.889  0.00  0.00    +0.110 C 
ENDROOT
BRANCH   8   5
ATOM      1  F   UNL     1      -1.771   4.389  25.675  0.00  0.00    -0.204 F 
ATOM      2  C   UNL     1      -2.542   4.115  25.573  0.00  0.00    +0.140 A 
ATOM      3  C   UNL     1      -2.731   4.027  24.789  0.00  0.00    +0.030 A 
ATOM      4  C   UNL     1      -3.610   3.715  24.711  0.00  0.00    +0.007 A 
ATOM      5  C   UNL     1      -4.085   3.566  25.369  0.00  0.00    +0.054 A 
ATOM      6  C   UNL     1      -3.789   3.691  26.128  0.00  0.00    +0.007 A 
ATOM      7  C   UNL     1      -3.017   3.966  26.230  0.00  0.00    +0.030 A 
ENDBRANCH   8   5
BRANCH  17  24
ATOM     24  C   UNL     1      -1.968   1.611  24.628  0.00  0.00    +0.031 A 
ATOM     25  C   UNL     1      -1.600   1.080  25.141  0.00  0.00    +0.007 A 
ATOM     26  C   UNL     1      -1.079   0.618  24.699  0.00  0.00    +0.007 A 
ATOM     27  C   UNL     1      -1.125   0.864  23.913  0.00  0.00    +0.035 A 
ATOM     28  S   UNL     1      -1.674   1.477  23.869  0.00  0.00    -0.086 S 
ENDBRANCH  17  24
TORSDOF 2
ENDMDL
MODEL 4
REMARK VINA RESULT:     -14.3      2.661      3.957
REMARK  Name = 
REMARK  2 active torsions:
REMARK  status: ('A' for Active; 'I' for Inactive)
REMARK    1  A    between atoms: C_5  and  C_8
REMARK    2  A    between atoms: C_17  and  C_24
REMARK                            x       y       z     vdW  Elec       q    Type
REMARK                         _______ _______ _______ _____ _____    ______ ____
ROOT
ATOM      8  C   UNL     1      -3.332  -2.420  24.641  0.00  0.00    +0.249 C 
ATOM      9  O   UNL     1      -3.646  -3.251  24.566  0.00  0.00    -0.270 OA
ATOM     10  N   UNL     1      -2.452  -2.304  24.624  0.00  0.00    -0.276 N 
ATOM     11  C   UNL     1      -1.685  -2.630  24.564  0.00  0.00    +0.096 C 
ATOM     12  C   UNL     1      -1.148  -1.803  24.631  0.00  0.00    +0.043 C 
ATOM     13  C   UNL     1      -0.574  -1.228  24.671  0.00  0.00    +0.011 C 
ATOM     14  C   UNL     1      -1.274  -1.264  24.691  0.00  0.00    +0.058 C 
ATOM     15  C   UNL     1      -1.779  -2.071  24.625  0.00  0.00    +0.099 C 
ATOM     16  C   UNL     1      -2.021  -0.734  24.772  0.00  0.00    +0.042 A 
ATOM     17  C   UNL     1      -2.239   0.056  24.861  0.00  0.00    +0.018 A 
ATOM     18  C   UNL     1      -3.037   0.261  24.909  0.00  0.00    +0.006 A 
ATOM     19  C   UNL     1      -3.616  -0.325  24.868  0.00  0.00    +0.061 A 
ATOM     20  C   UNL     1      -3.398  -1.115  24.779  0.00  0.00    +0.261 A 
ATOM     21  O   UNL     1      -4.090  -1.879  24.723  0.00  0.00    -0.267 OA
ATOM     22  N   UNL     1      -2.601  -1.320  24.731  0.00  0.00    -0.299 N 
ATOM     23  C   UNL     1      -1.934  -1.258  24.714  0.00  0.00    +0.110 C 
ENDROOT
BRANCH   8   5
ATOM      1  F   UNL     1      -4.625   0.727  24.716  0.00  0.00    -0.204 F 
ATOM      2  C   UNL     1      -4.304  -0.032  24.725  0.00  0.00    +0.140 A 
ATOM      3  C   UNL     1      -3.991  -0.220  25.449  0.00  0.00    +0.030 A 
ATOM      4  C   UNL     1      -3.637  -1.086  25.423  0.00  0.00    +0.007 A 
ATOM      5  C   UNL     1      -3.662  -1.552  24.743  0.00  0.00    +0.054 A 
ATOM      6  C   UNL     1      -4.008  -1.259  24.054  0.00  0.00    +0.007 A 
ATOM      7  C   UNL     1      -4.329  -0.499  24.045  0.00  0.00    +0.030 A 
ENDBRANCH   8   5
BRANCH  17  24
ATOM     24  C   UNL     1      -1.659   0.642  24.902  0.00  0.00    +0.031 A 
ATOM     25  C   UNL     1      -1.269   0.891  25.585  0.00  0.00    +0.007 A 
ATOM     26  C   UNL     1      -0.737   1.484  25.373  0.00  0.00    +0.007 A 
ATOM     27  C   UNL     1      -0.798   1.602  24.558  0.00  0.00    +0.035 A 
ATOM     28  S   UNL     1      -1.368   1.082  24.268  0.00  0.00    -0.086 S 
ENDBRANCH  17  24
TORSDOF 2
ENDMDL
MODEL 5
REMARK VINA RESULT:     -14.1      1.723      2.906
REMARK  Name = 
REMARK  2 active torsions:
REMARK  status: ('A' for Active; 'I' for Inactive)
REMARK    1  A    between atoms: C_5  and  C_8
REMARK    2  A    between atoms: C_17  and  C_24
REMARK                            x       y       z     vdW  Elec       q    Type
REMARK                         _______ _______ _______ _____ _____    ______ ____
ROOT
ATOM      8  C   UNL     1      -4.975   2.527  24.973  0.00  0.00    +0.249 C 
ATOM      9  O   UNL     1      -5.845   2.693  25.072  0.00  0.00    -0.270 OA
ATOM     10  N   UNL     1      -4.398   3.121  25.291  0.00  0.00    -0.276 N 
ATOM     11  C   UNL     1      -4.254   3.844  25.685  0.00  0.00    +0.096 C 
ATOM     12  C   UNL     1      -3.266   3.844  25.675  0.00  0.00    +0.043 C 
ATOM     13  C   UNL     1      -2.468   3.992  25.748  0.00  0.00    +0.011 C 
ATOM     14  C   UNL     1      -2.880   3.492  25.479  0.00  0.00    +0.058 C 
ATOM     15  C   UNL     1      -3.835   3.506  25.496  0.00  0.00    +0.099 C 
ATOM     16  C   UNL     1      -2.842   2.686  25.039  0.00  0.00    +0.042 A 
ATOM     17  C   UNL     1      -2.296   2.146  24.738  0.00  0.00    +0.018 A 
ATOM     18  C   UNL     1      -2.559   1.458  24.366  0.00  0.00    +0.006 A 
ATOM     19  C   UNL     1      -3.367   1.311  24.293  0.00  0.00    +0.061 A 
ATOM     20  C   UNL     1      -3.913   1.852  24.593  0.00  0.00    +0.261 A 
ATOM     21  O   UNL     1      -4.933   1.707  24.524  0.00  0.00    -0.267 OA
ATOM     22  N   UNL     1      -3.651   2.539  24.966  0.00  0.00    -0.299 N 
ATOM     23  C   UNL     1      -3.236   3.002  25.215  0.00  0.00    +0.110 C 
ENDROOT
BRANCH   8   5
ATOM      1  F   UNL     1      -3.055  -0.060  23.873  0.00  0.00    -0.204 F 
ATOM      2  C   UNL     1      -3.512   0.582  24.118  0.00  0.00    +0.140 A 
ATOM      3  C   UNL     1      -3.440   1.213  23.614  0.00  0.00    +0.030 A 
ATOM      4  C   UNL     1      -3.970   1.922  23.921  0.00  0.00    +0.007 A 
ATOM      5  C   UNL     1      -4.425   1.866  24.606  0.00  0.00    +0.054 A 
ATOM      6  C   UNL     1      -4.424   1.170  25.048  0.00  0.00    +0.007 A 
ATOM      7  C   UNL     1      -3.967   0.527  24.803  0.00  0.00    +0.030 A 
ENDBRANCH   8   5
BRANCH  17  24
ATOM     24  C   UNL     1      -1.487   2.293  24.811  0.00  0.00    +0.031 A 
ATOM     25  C   UNL     1      -1.013   2.090  25.454  0.00  0.00    +0.007 A 
ATOM     26  C   UNL     1      -0.244   2.340  25.294  0.00  0.00    +0.007 A 
ATOM     27  C   UNL     1      -0.243   2.698  24.551  0.00  0.00    +0.035 A 
ATOM     28  S   UNL     1      -1.010   2.669  24.252  0.00  0.00    -0.086 S 
ENDBRANCH  17  24
TORSDOF 2
ENDMDL
MODEL 6
REMARK VINA RESULT:     -14.0      2.210      3.473
REMARK  Name = 
REMARK  2 active torsions:
REMARK  status: ('A' for Active; 'I' for Inactive)
REMARK    1  A    between atoms: C_5  and  C_8
REMARK    2  A    between atoms: C_17  and  C_24
REMARK                            x       y       z     vdW  Elec       q    Type
REMARK                         _______ _______ _______ _____ _____    ______ ____
ROOT
ATOM      8  C   UNL     1      -1.601  -0.975  25.363  0.00  0.00    +0.249 C 
ATOM      9  O   UNL     1      -0.968  -1.550  25.612  0.00  0.00    -0.270 OA
ATOM     10  N   UNL     1      -1.386  -0.116  25.309  0.00  0.00    -0.276 N 
ATOM     11  C   UNL     1      -0.813   0.488  25.387  0.00  0.00    +0.096 C 
ATOM     12  C   UNL     1      -1.362   1.270  25.133  0.00  0.00    +0.043 C 
ATOM     13  C   UNL     1      -1.671   2.001  24.952  0.00  0.00    +0.011 C 
ATOM     14  C   UNL     1      -1.894   1.336  24.979  0.00  0.00    +0.058 C 
ATOM     15  C   UNL     1      -1.350   0.591  25.226  0.00  0.00    +0.099 C 
ATOM     16  C   UNL     1      -2.642   0.821  24.841  0.00  0.00    +0.042 A 
ATOM     17  C   UNL     1      -3.432   0.886  24.616  0.00  0.00    +0.018 A 
ATOM     18  C   UNL     1      -3.907   0.212  24.574  0.00  0.00    +0.006 A 
ATOM     19  C   UNL     1      -3.590  -0.527  24.758  0.00  0.00    +0.061 A 
ATOM     20  C   UNL     1      -2.800  -0.593  24.984  0.00  0.00    +0.261 A 
ATOM     21  O   UNL     1      -2.363  -1.498  25.222  0.00  0.00    -0.267 OA
ATOM     22  N   UNL     1      -2.325   0.081  25.025  0.00  0.00    -0.299 N 
ATOM     23  C   UNL     1      -2.138   0.723  24.992  0.00  0.00    +0.110 C 
ENDROOT
BRANCH   8   5
ATOM      1  F   UNL     1      -4.796  -1.149  24.203  0.00  0.00    -0.204 F 
ATOM      2  C   UNL     1      -4.031  -1.096  24.507  0.00  0.00    +0.140 A 
ATOM      3  C   UNL     1      -4.024  -0.764  25.247  0.00  0.00    +0.030 A 
ATOM      4  C   UNL     1      -3.143  -0.718  25.562  0.00  0.00    +0.007 A 
ATOM      5  C   UNL     1      -2.502  -0.987  25.117  0.00  0.00    +0.054 A 
ATOM      6  C   UNL     1      -2.625  -1.310  24.368  0.00  0.00    +0.007 A 
ATOM      7  C   UNL     1      -3.390  -1.364  24.063  0.00  0.00    +0.030 A 
ENDBRANCH   8   5
BRANCH  17  24
ATOM     24  C   UNL     1      -3.749   1.626  24.432  0.00  0.00    +0.031 A 
ATOM     25  C   UNL     1      -3.695   2.008  23.703  0.00  0.00    +0.007 A 
ATOM     26  C   UNL     1      -4.088   2.731  23.765  0.00  0.00    +0.007 A 
ATOM     27  C   UNL     1      -4.384   2.795  24.532  0.00  0.00    +0.035 A 
ATOM     28  S   UNL     1      -4.175   2.113  24.944  0.00  0.00    -0.086 S 
ENDBRANCH  17  24
TORSDOF 2
ENDMDL
MODEL 7
REMARK VINA RESULT:     -13.9      2.713      4.279
REMARK  Name = 
REMARK  2 active torsions:
REMARK  status: ('A' for Active; 'I' for Inactive)
REMARK    1  A    between atoms: C_5  and  C_8
REMARK    2  A    between atoms: C_17  and  C_24
REMARK                            x       y       z     vdW  Elec       q    Type
REMARK                         _______ _______ _______ _____ _____    ______ ____
ROOT
ATOM      8  C   UNL     1      -1.816  -2.172  24.775  0.00  0.00    +0.249 C 
ATOM      9  O   UNL     1      -1.488  -3.001  24.761  0.00  0.00    -0.270 OA
ATOM     10  N   UNL     1      -2.661  -2.055  24.532  0.00  0.00    -0.276 N 
ATOM     11  C   UNL     1      -3.384  -2.377  24.265  0.00  0.00    +0.096 C 
ATOM     12  C   UNL     1      -3.925  -1.552  24.213  0.00  0.00    +0.043 C 
ATOM     13  C   UNL     1      -4.493  -0.976  24.118  0.00  0.00    +0.011 C 
ATOM     14  C   UNL     1      -3.822  -1.014  24.319  0.00  0.00    +0.058 C 
ATOM     15  C   UNL     1      -3.313  -1.821  24.364  0.00  0.00    +0.099 C 
ATOM     16  C   UNL     1      -3.125  -0.488  24.606  0.00  0.00    +0.042 A 
ATOM     17  C   UNL     1      -2.942   0.299  24.771  0.00  0.00    +0.018 A 
ATOM     18  C   UNL     1      -2.186   0.501  25.031  0.00  0.00    +0.006 A 
ATOM     19  C   UNL     1      -1.612  -0.085  25.127  0.00  0.00    +0.061 A 
ATOM     20  C   UNL     1      -1.795  -0.872  24.961  0.00  0.00    +0.261 A 
ATOM     21  O   UNL     1      -1.108  -1.636  25.067  0.00  0.00    -0.267 OA
ATOM     22  N   UNL     1      -2.551  -1.074  24.701  0.00  0.00    -0.299 N 
ATOM     23  C   UNL     1      -3.191  -1.011  24.513  0.00  0.00    +0.110 C 
ENDROOT
BRANCH   8   5
ATOM      1  F   UNL     1      -0.603   0.968  25.273  0.00  0.00    -0.204 F 
ATOM      2  C   UNL     1      -0.911   0.210  25.176  0.00  0.00    +0.140 A 
ATOM      3  C   UNL     1      -1.406   0.005  25.785  0.00  0.00    +0.030 A 
ATOM      4  C   UNL     1      -1.737  -0.860  25.643  0.00  0.00    +0.007 A 
ATOM      5  C   UNL     1      -1.528  -1.308  24.983  0.00  0.00    +0.054 A 
ATOM      6  C   UNL     1      -1.012  -0.999  24.420  0.00  0.00    +0.007 A 
ATOM      7  C   UNL     1      -0.703  -0.239  24.517  0.00  0.00    +0.030 A 
ENDBRANCH   8   5
BRANCH  17  24
ATOM     24  C   UNL     1      -3.516   0.884  24.676  0.00  0.00    +0.031 A 
ATOM     25  C   UNL     1      -4.104   1.080  25.220  0.00  0.00    +0.007 A 
ATOM     26  C   UNL     1      -4.554   1.693  24.900  0.00  0.00    +0.007 A 
ATOM     27  C   UNL     1      -4.243   1.877  24.158  0.00  0.00    +0.035 A 
ATOM     28  S   UNL     1      -3.602   1.377  24.019  0.00  0.00    -0.086 S 
ENDBRANCH  17  24
TORSDOF 2
ENDMDL
