REMARK  Name = 
REMARK  6 active torsions:
REMARK  status: ('A' for Active; 'I' for Inactive)
REMARK    1  A    between atoms: C_2  and  C_5
REMARK    2  A    between atoms: C_7  and  C_8
REMARK    3  A    between atoms: C_8  and  C_9
REMARK    4  A    between atoms: C_14  and  C_15
REMARK    5  A    between atoms: C_15  and  C_16
REMARK    6  A    between atoms: N_18  and  C_19
REMARK                            x       y       z     vdW  Elec       q    Type
REMARK                         _______ _______ _______ _____ _____    ______ ____
ROOT
ATOM      9  C   UNL     1       5.898  -2.036   0.000  0.00  0.00    +0.024 C 
ATOM     10  C   UNL     1       6.234  -1.282   0.000  0.00  0.00    +0.089 C 
ATOM     11  N   UNL     1       7.054  -1.196   0.000  0.00  0.00    -0.218 NA
ATOM     12  C   UNL     1       7.539  -1.863   0.000  0.00  0.00    +0.089 C 
ATOM     13  C   UNL     1       7.203  -2.617   0.000  0.00  0.00    +0.019 C 
ATOM     14  C   UNL     1       6.383  -2.703   0.000  0.00  0.00    +0.012 C 
ENDROOT
BRANCH   9   8
ATOM      8  C   UNL     1       5.077  -2.122   0.000  0.00  0.00    +0.051 C 
BRANCH   8   7
ATOM      5  C   UNL     1       4.180  -0.185   0.000  0.00  0.00    +0.153 A 
ATOM      6  C   UNL     1       4.848  -0.670   0.000  0.00  0.00    +0.054 A 
ATOM      7  C   UNL     1       4.593  -1.454   0.000  0.00  0.00    +0.100 A 
ATOM     25  N   UNL     1       3.768  -1.454   0.000  0.00  0.00    -0.082 NA
ATOM     26  O   UNL     1       3.513  -0.670   0.000  0.00  0.00    -0.358 OA
BRANCH   5   2
ATOM      1  C   UNL     1       4.180   1.465   0.000  0.00  0.00    +0.008 C 
ATOM      2  C   UNL     1       4.180   0.640   0.000  0.00  0.00    +0.054 C 
ATOM      3  C   UNL     1       3.355   0.640   0.000  0.00  0.00    +0.008 C 
ATOM      4  C   UNL     1       5.005   0.640   0.000  0.00  0.00    +0.008 C 
ENDBRANCH   5   2
ENDBRANCH   8   7
ENDBRANCH   9   8
BRANCH  14  15
ATOM     15  C   UNL     1       6.047  -3.457   0.000  0.00  0.00    +0.087 C 
BRANCH  15  16
ATOM     16  C   UNL     1       5.227  -3.543   0.000  0.00  0.00    +0.241 C 
ATOM     17  O   UNL     1       4.742  -2.876   0.000  0.00  0.00    -0.273 OA
ATOM     18  N   UNL     1       4.891  -4.297   0.000  0.00  0.00    -0.207 NA
BRANCH  18  19
ATOM     19  C   UNL     1       4.071  -4.383   0.000  0.00  0.00    +0.095 C 
ATOM     20  C   UNL     1       3.735  -5.136   0.000  0.00  0.00    +0.022 C 
ATOM     21  C   UNL     1       2.915  -5.223   0.000  0.00  0.00    +0.002 C 
ATOM     22  C   UNL     1       2.430  -4.555   0.000  0.00  0.00    +0.000 C 
ATOM     23  C   UNL     1       2.765  -3.802   0.000  0.00  0.00    +0.002 C 
ATOM     24  C   UNL     1       3.586  -3.715   0.000  0.00  0.00    +0.022 C 
ENDBRANCH  18  19
ENDBRANCH  15  16
ENDBRANCH  14  15
TORSDOF 6
