REMARK  Name = 
REMARK  5 active torsions:
REMARK  status: ('A' for Active; 'I' for Inactive)
REMARK    1  A    between atoms: O_2  and  C_3
REMARK    2  A    between atoms: C_6  and  C_9
REMARK    3  A    between atoms: C_15  and  C_18
REMARK    4  A    between atoms: C_21  and  C_23
REMARK    5  A    between atoms: N_27  and  C_28
REMARK                            x       y       z     vdW  Elec       q    Type
REMARK                         _______ _______ _______ _____ _____    ______ ____
ROOT
ATOM      9  C   UNL     1      -0.871   0.290   0.000  0.00  0.00    +0.270 C 
ATOM     10  O   UNL     1      -0.051   0.204   0.000  0.00  0.00    -0.268 OA
ATOM     11  N   UNL     1      -1.207   1.044   0.000  0.00  0.00    -0.157 NA
ATOM     12  C   UNL     1      -0.722   1.712   0.000  0.00  0.00    +0.155 A 
ATOM     13  N   UNL     1      -1.058   2.465   0.000  0.00  0.00    -0.227 NA
ATOM     14  C   UNL     1      -0.573   3.133   0.000  0.00  0.00    +0.103 A 
ATOM     15  C   UNL     1       0.248   3.046   0.000  0.00  0.00    +0.058 A 
ATOM     16  C   UNL     1       0.583   2.293   0.000  0.00  0.00    +0.008 A 
ATOM     17  C   UNL     1       0.098   1.625   0.000  0.00  0.00    +0.036 A 
ENDROOT
BRANCH   9   6
ATOM      3  C   UNL     1      -2.326  -1.712   0.000  0.00  0.00    +0.139 A 
ATOM      4  C   UNL     1      -2.662  -0.958   0.000  0.00  0.00    +0.037 A 
ATOM      5  C   UNL     1      -2.177  -0.291   0.000  0.00  0.00    +0.008 A 
ATOM      6  C   UNL     1      -1.356  -0.377   0.000  0.00  0.00    +0.056 A 
ATOM      7  C   UNL     1      -1.021  -1.131   0.000  0.00  0.00    +0.008 A 
ATOM      8  C   UNL     1      -1.506  -1.798   0.000  0.00  0.00    +0.037 A 
BRANCH   3   2
ATOM      1  C   UNL     1      -2.476  -3.133   0.000  0.00  0.00    +0.252 C 
ATOM      2  O   UNL     1      -2.811  -2.379   0.000  0.00  0.00    -0.471 OA
ENDBRANCH   3   2
ENDBRANCH   9   6
BRANCH  15  18
ATOM     18  C   UNL     1       0.733   3.714   0.000  0.00  0.00    +0.205 A 
ATOM     19  N   UNL     1       0.478   4.498   0.000  0.00  0.00    -0.056 NA
ATOM     20  O   UNL     1       1.145   4.983   0.000  0.00  0.00    -0.336 OA
ATOM     21  C   UNL     1       1.813   4.498   0.000  0.00  0.00    +0.251 A 
ATOM     22  N   UNL     1       1.558   3.714   0.000  0.00  0.00    -0.190 NA
BRANCH  21  23
ATOM     23  C   UNL     1       2.597   4.753   0.000  0.00  0.00    +0.138 C 
ATOM     24  C   UNL     1       2.852   5.538   0.000  0.00  0.00    +0.027 C 
ATOM     25  C   UNL     1       3.677   5.538   0.000  0.00  0.00    +0.019 C 
ATOM     26  C   UNL     1       3.932   4.753   0.000  0.00  0.00    +0.072 C 
ATOM     27  N   UNL     1       3.265   4.269   0.000  0.00  0.00    -0.268 NA
BRANCH  27  28
ATOM     28  C   UNL     1       3.265   3.443   0.000  0.00  0.00    +0.058 C 
ATOM     29  C   UNL     1       3.848   2.860   0.000  0.00  0.00    +0.016 C 
ATOM     30  C   UNL     1       3.265   2.277   0.000  0.00  0.00    +0.003 C 
ATOM     31  C   UNL     1       2.681   2.860   0.000  0.00  0.00    +0.016 C 
ENDBRANCH  27  28
ENDBRANCH  21  23
ENDBRANCH  15  18
TORSDOF 5
