MODEL 1
REMARK VINA RESULT:     -12.2      0.000      0.000
REMARK  Name = 
REMARK  7 active torsions:
REMARK  status: ('A' for Active; 'I' for Inactive)
REMARK    1  A    between atoms: N_2  and  C_4
REMARK    2  A    between atoms: C_7  and  C_10
REMARK    3  A    between atoms: N_14  and  C_15
REMARK    4  A    between atoms: C_19  and  O_23
REMARK    5  A    between atoms: O_23  and  C_24
REMARK    6  A    between atoms: N_26  and  C_27
REMARK    7  A    between atoms: C_29  and  C_33
REMARK                            x       y       z     vdW  Elec       q    Type
REMARK                         _______ _______ _______ _____ _____    ______ ____
ROOT
ATOM     15  C   UNL     1      -0.980   3.210  25.461  0.00  0.00    +0.167 C 
ATOM     16  C   UNL     1      -1.132   2.914  26.215  0.00  0.00    +0.169 C 
ATOM     17  O   UNL     1      -0.959   2.108  26.212  0.00  0.00    -0.348 OA
ATOM     18  C   UNL     1      -0.701   1.905  25.456  0.00  0.00    +0.187 C 
ATOM     19  C   UNL     1      -0.434   1.281  24.986  0.00  0.00    +0.229 C 
ATOM     20  C   UNL     1      -0.282   1.577  24.231  0.00  0.00    +0.188 C 
ATOM     21  O   UNL     1      -0.454   2.383  24.235  0.00  0.00    -0.348 OA
ATOM     22  C   UNL     1      -0.713   2.586  24.992  0.00  0.00    +0.171 C 
ENDROOT
BRANCH  15  14
ATOM     10  C   UNL     1      -1.797   4.374  25.090  0.00  0.00    +0.184 A 
ATOM     11  N   UNL     1      -1.636   5.148  24.853  0.00  0.00    -0.108 NA
ATOM     12  N   UNL     1      -0.817   5.245  24.835  0.00  0.00    -0.023 NA
ATOM     13  N   UNL     1      -0.471   4.530  25.060  0.00  0.00    -0.043 NA
ATOM     14  N   UNL     1      -1.077   3.993  25.218  0.00  0.00    -0.210 N 
BRANCH  10   7
ATOM      4  C   UNL     1      -4.043   3.375  25.366  0.00  0.00    +0.048 A 
ATOM      5  C   UNL     1      -3.683   3.380  24.624  0.00  0.00    +0.015 A 
ATOM      6  C   UNL     1      -2.934   3.714  24.531  0.00  0.00    +0.004 A 
ATOM      7  C   UNL     1      -2.546   4.041  25.182  0.00  0.00    +0.037 A 
ATOM      8  C   UNL     1      -2.906   4.035  25.923  0.00  0.00    +0.004 A 
ATOM      9  C   UNL     1      -3.655   3.702  26.016  0.00  0.00    +0.015 A 
BRANCH   4   2
ATOM      1  C   UNL     1      -5.431   3.516  25.674  0.00  0.00    +0.112 C 
ATOM      2  N   UNL     1      -4.793   3.041  25.459  0.00  0.00    -0.304 N 
ATOM      3  C   UNL     1      -4.902   2.232  25.335  0.00  0.00    +0.112 C 
ENDBRANCH   4   2
ENDBRANCH  10   7
ENDBRANCH  15  14
BRANCH  19  23
ATOM     23  O   UNL     1      -0.336   0.499  25.229  0.00  0.00    -0.432 OA
BRANCH  23  24
ATOM     24  C   UNL     1      -0.790  -0.100  24.886  0.00  0.00    +0.425 C 
ATOM     25  O   UNL     1      -0.742  -0.239  24.075  0.00  0.00    -0.224 OA
ATOM     26  N   UNL     1      -1.290  -0.558  25.354  0.00  0.00    -0.142 NA
BRANCH  26  27
ATOM     27  C   UNL     1      -1.743  -1.157  25.012  0.00  0.00    +0.077 A 
ATOM     28  C   UNL     1      -2.534  -1.019  24.824  0.00  0.00    +0.027 A 
ATOM     29  C   UNL     1      -2.987  -1.617  24.481  0.00  0.00    +0.070 A 
ATOM     30  C   UNL     1      -2.649  -2.354  24.326  0.00  0.00    +0.010 A 
ATOM     31  C   UNL     1      -1.857  -2.491  24.514  0.00  0.00    +0.002 A 
ATOM     32  C   UNL     1      -1.404  -1.893  24.857  0.00  0.00    +0.017 A 
BRANCH  29  33
ATOM     33  C   UNL     1      -3.779  -1.479  24.294  0.00  0.00    +0.100 C 
ATOM     34  N   UNL     1      -4.569  -1.341  24.106  0.00  0.00    -0.191 NA
ENDBRANCH  29  33
ENDBRANCH  26  27
ENDBRANCH  23  24
ENDBRANCH  19  23
TORSDOF 7
ENDMDL
MODEL 2
REMARK VINA RESULT:     -11.4      1.312      4.675
REMARK  Name = 
REMARK  7 active torsions:
REMARK  status: ('A' for Active; 'I' for Inactive)
REMARK    1  A    between atoms: N_2  and  C_4
REMARK    2  A    between atoms: C_7  and  C_10
REMARK    3  A    between atoms: N_14  and  C_15
REMARK    4  A    between atoms: C_19  and  O_23
REMARK    5  A    between atoms: O_23  and  C_24
REMARK    6  A    between atoms: N_26  and  C_27
REMARK    7  A    between atoms: C_29  and  C_33
REMARK                            x       y       z     vdW  Elec       q    Type
REMARK                         _______ _______ _______ _____ _____    ______ ____
ROOT
ATOM     15  C   UNL     1      -1.430  -0.761  25.018  0.00  0.00    +0.167 C 
ATOM     16  C   UNL     1      -1.427  -0.462  25.787  0.00  0.00    +0.169 C 
ATOM     17  O   UNL     1      -0.983   0.233  25.788  0.00  0.00    -0.348 OA
ATOM     18  C   UNL     1      -0.711   0.364  25.021  0.00  0.00    +0.187 C 
ATOM     19  C   UNL     1      -0.268   0.873  24.546  0.00  0.00    +0.229 C 
ATOM     20  C   UNL     1      -0.271   0.574  23.777  0.00  0.00    +0.188 C 
ATOM     21  O   UNL     1      -0.715  -0.121  23.777  0.00  0.00    -0.348 OA
ATOM     22  C   UNL     1      -0.987  -0.251  24.545  0.00  0.00    +0.171 C 
ENDROOT
BRANCH  15  14
ATOM     10  C   UNL     1      -2.616  -1.533  24.622  0.00  0.00    +0.184 A 
ATOM     11  N   UNL     1      -2.754  -2.311  24.383  0.00  0.00    -0.108 NA
ATOM     12  N   UNL     1      -2.030  -2.708  24.380  0.00  0.00    -0.023 NA
ATOM     13  N   UNL     1      -1.446  -2.176  24.618  0.00  0.00    -0.043 NA
ATOM     14  N   UNL     1      -1.809  -1.450  24.767  0.00  0.00    -0.210 N 
BRANCH  10   7
ATOM      4  C   UNL     1      -4.328   0.238  24.862  0.00  0.00    +0.048 A 
ATOM      5  C   UNL     1      -3.999   0.080  24.122  0.00  0.00    +0.015 A 
ATOM      6  C   UNL     1      -3.428  -0.510  24.042  0.00  0.00    +0.004 A 
ATOM      7  C   UNL     1      -3.187  -0.942  24.702  0.00  0.00    +0.037 A 
ATOM      8  C   UNL     1      -3.516  -0.785  25.441  0.00  0.00    +0.004 A 
ATOM      9  C   UNL     1      -4.087  -0.195  25.521  0.00  0.00    +0.015 A 
BRANCH   4   2
ATOM      1  C   UNL     1      -5.605   0.669  25.337  0.00  0.00    +0.112 C 
ATOM      2  N   UNL     1      -4.899   0.829  24.942  0.00  0.00    -0.304 N 
ATOM      3  C   UNL     1      -4.763   1.579  24.626  0.00  0.00    +0.112 C 
ENDBRANCH   4   2
ENDBRANCH  10   7
ENDBRANCH  15  14
BRANCH  19  23
ATOM     23  O   UNL     1       0.111   1.562  24.797  0.00  0.00    -0.432 OA
BRANCH  23  24
ATOM     24  C   UNL     1      -0.267   2.292  24.722  0.00  0.00    +0.425 C 
ATOM     25  O   UNL     1      -0.571   2.526  23.992  0.00  0.00    -0.224 OA
ATOM     26  N   UNL     1      -0.341   2.787  25.377  0.00  0.00    -0.142 NA
BRANCH  26  27
ATOM     27  C   UNL     1      -0.719   3.517  25.303  0.00  0.00    +0.077 A 
ATOM     28  C   UNL     1      -1.483   3.618  25.596  0.00  0.00    +0.027 A 
ATOM     29  C   UNL     1      -1.860   4.346  25.522  0.00  0.00    +0.070 A 
ATOM     30  C   UNL     1      -1.474   4.976  25.154  0.00  0.00    +0.010 A 
ATOM     31  C   UNL     1      -0.709   4.876  24.861  0.00  0.00    +0.002 A 
ATOM     32  C   UNL     1      -0.332   4.146  24.936  0.00  0.00    +0.017 A 
BRANCH  29  33
ATOM     33  C   UNL     1      -2.625   4.447  25.815  0.00  0.00    +0.100 C 
ATOM     34  N   UNL     1      -3.389   4.548  26.108  0.00  0.00    -0.191 NA
ENDBRANCH  29  33
ENDBRANCH  26  27
ENDBRANCH  23  24
ENDBRANCH  19  23
TORSDOF 7
ENDMDL
MODEL 3
REMARK VINA RESULT:     -10.8      1.694      3.297
REMARK  Name = 
REMARK  7 active torsions:
REMARK  status: ('A' for Active; 'I' for Inactive)
REMARK    1  A    between atoms: N_2  and  C_4
REMARK    2  A    between atoms: C_7  and  C_10
REMARK    3  A    between atoms: N_14  and  C_15
REMARK    4  A    between atoms: C_19  and  O_23
REMARK    5  A    between atoms: O_23  and  C_24
REMARK    6  A    between atoms: N_26  and  C_27
REMARK    7  A    between atoms: C_29  and  C_33
REMARK                            x       y       z     vdW  Elec       q    Type
REMARK                         _______ _______ _______ _____ _____    ______ ____
ROOT
ATOM     15  C   UNL     1      -3.764   3.003  24.804  0.00  0.00    +0.167 C 
ATOM     16  C   UNL     1      -3.444   2.880  24.054  0.00  0.00    +0.169 C 
ATOM     17  O   UNL     1      -3.672   2.130  23.799  0.00  0.00    -0.348 OA
ATOM     18  C   UNL     1      -4.132   1.788  24.391  0.00  0.00    +0.187 C 
ATOM     19  C   UNL     1      -4.559   1.114  24.601  0.00  0.00    +0.229 C 
ATOM     20  C   UNL     1      -4.878   1.236  25.352  0.00  0.00    +0.188 C 
ATOM     21  O   UNL     1      -4.650   1.987  25.606  0.00  0.00    -0.348 OA
ATOM     22  C   UNL     1      -4.189   2.328  25.013  0.00  0.00    +0.171 C 
ENDROOT
BRANCH  15  14
ATOM     10  C   UNL     1      -2.969   3.951  25.598  0.00  0.00    +0.184 A 
ATOM     11  N   UNL     1      -3.132   4.646  26.012  0.00  0.00    -0.108 NA
ATOM     12  N   UNL     1      -3.938   4.806  25.934  0.00  0.00    -0.023 NA
ATOM     13  N   UNL     1      -4.273   4.210  25.472  0.00  0.00    -0.043 NA
ATOM     14  N   UNL     1      -3.673   3.682  25.264  0.00  0.00    -0.210 N 
BRANCH  10   7
ATOM      4  C   UNL     1      -0.754   2.867  25.392  0.00  0.00    +0.048 A 
ATOM      5  C   UNL     1      -1.243   2.688  26.033  0.00  0.00    +0.015 A 
ATOM      6  C   UNL     1      -1.982   3.049  26.101  0.00  0.00    +0.004 A 
ATOM      7  C   UNL     1      -2.230   3.589  25.529  0.00  0.00    +0.037 A 
ATOM      8  C   UNL     1      -1.742   3.768  24.890  0.00  0.00    +0.004 A 
ATOM      9  C   UNL     1      -1.003   3.407  24.821  0.00  0.00    +0.015 A 
BRANCH   4   2
ATOM      1  C   UNL     1       0.474   2.438  25.984  0.00  0.00    +0.112 C 
ATOM      2  N   UNL     1      -0.015   2.505  25.324  0.00  0.00    -0.304 N 
ATOM      3  C   UNL     1       0.233   2.211  24.594  0.00  0.00    +0.112 C 
ENDBRANCH   4   2
ENDBRANCH  10   7
ENDBRANCH  15  14
BRANCH  19  23
ATOM     23  O   UNL     1      -4.649   0.435  24.141  0.00  0.00    -0.432 OA
BRANCH  23  24
ATOM     24  C   UNL     1      -4.321  -0.280  24.390  0.00  0.00    +0.425 C 
ATOM     25  O   UNL     1      -4.379  -0.506  25.181  0.00  0.00    -0.224 OA
ATOM     26  N   UNL     1      -3.935  -0.768  23.849  0.00  0.00    -0.142 NA
BRANCH  26  27
ATOM     27  C   UNL     1      -3.607  -1.483  24.099  0.00  0.00    +0.077 A 
ATOM     28  C   UNL     1      -2.812  -1.519  24.317  0.00  0.00    +0.027 A 
ATOM     29  C   UNL     1      -2.485  -2.233  24.566  0.00  0.00    +0.070 A 
ATOM     30  C   UNL     1      -2.952  -2.913  24.597  0.00  0.00    +0.010 A 
ATOM     31  C   UNL     1      -3.747  -2.877  24.379  0.00  0.00    +0.002 A 
ATOM     32  C   UNL     1      -4.074  -2.162  24.130  0.00  0.00    +0.017 A 
BRANCH  29  33
ATOM     33  C   UNL     1      -1.689  -2.269  24.784  0.00  0.00    +0.100 C 
ATOM     34  N   UNL     1      -0.895  -2.305  25.002  0.00  0.00    -0.191 NA
ENDBRANCH  29  33
ENDBRANCH  26  27
ENDBRANCH  23  24
ENDBRANCH  19  23
TORSDOF 7
ENDMDL
MODEL 4
REMARK VINA RESULT:     -10.3      1.466      4.528
REMARK  Name = 
REMARK  7 active torsions:
REMARK  status: ('A' for Active; 'I' for Inactive)
REMARK    1  A    between atoms: N_2  and  C_4
REMARK    2  A    between atoms: C_7  and  C_10
REMARK    3  A    between atoms: N_14  and  C_15
REMARK    4  A    between atoms: C_19  and  O_23
REMARK    5  A    between atoms: O_23  and  C_24
REMARK    6  A    between atoms: N_26  and  C_27
REMARK    7  A    between atoms: C_29  and  C_33
REMARK                            x       y       z     vdW  Elec       q    Type
REMARK                         _______ _______ _______ _____ _____    ______ ____
ROOT
ATOM     15  C   UNL     1      -0.530   1.059  24.632  0.00  0.00    +0.167 C 
ATOM     16  C   UNL     1      -0.581   1.089  25.455  0.00  0.00    +0.169 C 
ATOM     17  O   UNL     1      -1.020   1.757  25.658  0.00  0.00    -0.348 OA
ATOM     18  C   UNL     1      -1.241   2.139  24.962  0.00  0.00    +0.187 C 
ATOM     19  C   UNL     1      -1.648   2.788  24.656  0.00  0.00    +0.229 C 
ATOM     20  C   UNL     1      -1.598   2.757  23.833  0.00  0.00    +0.188 C 
ATOM     21  O   UNL     1      -1.159   2.090  23.630  0.00  0.00    -0.348 OA
ATOM     22  C   UNL     1      -0.938   1.707  24.328  0.00  0.00    +0.171 C 
ENDROOT
BRANCH  15  14
ATOM     10  C   UNL     1      -0.383  -0.303  24.097  0.00  0.00    +0.184 A 
ATOM     11  N   UNL     1       0.169  -0.684  23.615  0.00  0.00    -0.108 NA
ATOM     12  N   UNL     1       0.752  -0.136  23.413  0.00  0.00    -0.023 NA
ATOM     13  N   UNL     1       0.561   0.583  23.769  0.00  0.00    -0.043 NA
ATOM     14  N   UNL     1      -0.140   0.480  24.192  0.00  0.00    -0.210 N 
BRANCH  10   7
ATOM      4  C   UNL     1      -2.407  -1.328  25.083  0.00  0.00    +0.048 A 
ATOM      5  C   UNL     1      -1.696  -1.334  25.502  0.00  0.00    +0.015 A 
ATOM      6  C   UNL     1      -1.021  -0.992  25.174  0.00  0.00    +0.004 A 
ATOM      7  C   UNL     1      -1.058  -0.645  24.426  0.00  0.00    +0.037 A 
ATOM      8  C   UNL     1      -1.768  -0.639  24.008  0.00  0.00    +0.004 A 
ATOM      9  C   UNL     1      -2.443  -0.981  24.337  0.00  0.00    +0.015 A 
BRANCH   4   2
ATOM      1  C   UNL     1      -3.583  -1.220  25.887  0.00  0.00    +0.112 C 
ATOM      2  N   UNL     1      -3.082  -1.671  25.413  0.00  0.00    -0.304 N 
ATOM      3  C   UNL     1      -3.256  -2.464  25.266  0.00  0.00    +0.112 C 
ENDBRANCH   4   2
ENDBRANCH  10   7
ENDBRANCH  15  14
BRANCH  19  23
ATOM     23  O   UNL     1      -2.039   3.367  25.096  0.00  0.00    -0.432 OA
BRANCH  23  24
ATOM     24  C   UNL     1      -2.857   3.454  25.031  0.00  0.00    +0.425 C 
ATOM     25  O   UNL     1      -3.182   3.790  24.352  0.00  0.00    -0.224 OA
ATOM     26  N   UNL     1      -3.348   3.205  25.644  0.00  0.00    -0.142 NA
BRANCH  26  27
ATOM     27  C   UNL     1      -4.166   3.292  25.579  0.00  0.00    +0.077 A 
ATOM     28  C   UNL     1      -4.637   2.642  25.390  0.00  0.00    +0.027 A 
ATOM     29  C   UNL     1      -5.454   2.728  25.325  0.00  0.00    +0.070 A 
ATOM     30  C   UNL     1      -5.802   3.466  25.449  0.00  0.00    +0.010 A 
ATOM     31  C   UNL     1      -5.331   4.117  25.639  0.00  0.00    +0.002 A 
ATOM     32  C   UNL     1      -4.513   4.030  25.704  0.00  0.00    +0.017 A 
BRANCH  29  33
ATOM     33  C   UNL     1      -5.924   2.077  25.135  0.00  0.00    +0.100 C 
ATOM     34  N   UNL     1      -6.394   1.427  24.946  0.00  0.00    -0.191 NA
ENDBRANCH  29  33
ENDBRANCH  26  27
ENDBRANCH  23  24
ENDBRANCH  19  23
TORSDOF 7
ENDMDL
MODEL 5
REMARK VINA RESULT:      -9.6      1.803      5.375
REMARK  Name = 
REMARK  7 active torsions:
REMARK  status: ('A' for Active; 'I' for Inactive)
REMARK    1  A    between atoms: N_2  and  C_4
REMARK    2  A    between atoms: C_7  and  C_10
REMARK    3  A    between atoms: N_14  and  C_15
REMARK    4  A    between atoms: C_19  and  O_23
REMARK    5  A    between atoms: O_23  and  C_24
REMARK    6  A    between atoms: N_26  and  C_27
REMARK    7  A    between atoms: C_29  and  C_33
REMARK                            x       y       z     vdW  Elec       q    Type
REMARK                         _______ _______ _______ _____ _____    ______ ____
ROOT
ATOM     15  C   UNL     1      -2.930  -1.255  25.084  0.00  0.00    +0.167 C 
ATOM     16  C   UNL     1      -3.019  -1.067  25.882  0.00  0.00    +0.169 C 
ATOM     17  O   UNL     1      -3.669  -0.565  25.954  0.00  0.00    -0.348 OA
ATOM     18  C   UNL     1      -3.982  -0.441  25.202  0.00  0.00    +0.187 C 
ATOM     19  C   UNL     1      -4.576  -0.055  24.780  0.00  0.00    +0.229 C 
ATOM     20  C   UNL     1      -4.487  -0.242  23.981  0.00  0.00    +0.188 C 
ATOM     21  O   UNL     1      -3.837  -0.745  23.910  0.00  0.00    -0.348 OA
ATOM     22  C   UNL     1      -3.524  -0.868  24.664  0.00  0.00    +0.171 C 
ENDROOT
BRANCH  15  14
ATOM     10  C   UNL     1      -1.566  -1.529  24.608  0.00  0.00    +0.184 A 
ATOM     11  N   UNL     1      -1.180  -2.186  24.290  0.00  0.00    -0.108 NA
ATOM     12  N   UNL     1      -1.723  -2.806  24.249  0.00  0.00    -0.023 NA
ATOM     13  N   UNL     1      -2.445  -2.532  24.541  0.00  0.00    -0.043 NA
ATOM     14  N   UNL     1      -2.348  -1.743  24.763  0.00  0.00    -0.210 N 
BRANCH  10   7
ATOM      4  C   UNL     1      -0.557   0.691  25.024  0.00  0.00    +0.048 A 
ATOM      5  C   UNL     1      -0.794   0.482  24.261  0.00  0.00    +0.015 A 
ATOM      6  C   UNL     1      -1.130  -0.258  24.123  0.00  0.00    +0.004 A 
ATOM      7  C   UNL     1      -1.230  -0.789  24.747  0.00  0.00    +0.037 A 
ATOM      8  C   UNL     1      -0.993  -0.580  25.508  0.00  0.00    +0.004 A 
ATOM      9  C   UNL     1      -0.657   0.161  25.647  0.00  0.00    +0.015 A 
BRANCH   4   2
ATOM      1  C   UNL     1       0.292   1.763  24.607  0.00  0.00    +0.112 C 
ATOM      2  N   UNL     1      -0.220   1.432  25.162  0.00  0.00    -0.304 N 
ATOM      3  C   UNL     1      -0.396   1.842  25.857  0.00  0.00    +0.112 C 
ENDBRANCH   4   2
ENDBRANCH  10   7
ENDBRANCH  15  14
BRANCH  19  23
ATOM     23  O   UNL     1      -5.158   0.434  25.101  0.00  0.00    -0.432 OA
BRANCH  23  24
ATOM     24  C   UNL     1      -5.111   1.252  25.002  0.00  0.00    +0.425 C 
ATOM     25  O   UNL     1      -5.259   1.587  24.263  0.00  0.00    -0.224 OA
ATOM     26  N   UNL     1      -4.918   1.734  25.642  0.00  0.00    -0.142 NA
BRANCH  26  27
ATOM     27  C   UNL     1      -4.871   2.552  25.543  0.00  0.00    +0.077 A 
ATOM     28  C   UNL     1      -4.137   2.914  25.439  0.00  0.00    +0.027 A 
ATOM     29  C   UNL     1      -4.090   3.731  25.340  0.00  0.00    +0.070 A 
ATOM     30  C   UNL     1      -4.778   4.188  25.346  0.00  0.00    +0.010 A 
ATOM     31  C   UNL     1      -5.512   3.826  25.451  0.00  0.00    +0.002 A 
ATOM     32  C   UNL     1      -5.558   3.008  25.550  0.00  0.00    +0.017 A 
BRANCH  29  33
ATOM     33  C   UNL     1      -3.356   4.093  25.236  0.00  0.00    +0.100 C 
ATOM     34  N   UNL     1      -2.622   4.454  25.131  0.00  0.00    -0.191 NA
ENDBRANCH  29  33
ENDBRANCH  26  27
ENDBRANCH  23  24
ENDBRANCH  19  23
TORSDOF 7
ENDMDL
MODEL 6
REMARK VINA RESULT:      -9.5      1.713      3.965
REMARK  Name = 
REMARK  7 active torsions:
REMARK  status: ('A' for Active; 'I' for Inactive)
REMARK    1  A    between atoms: N_2  and  C_4
REMARK    2  A    between atoms: C_7  and  C_10
REMARK    3  A    between atoms: N_14  and  C_15
REMARK    4  A    between atoms: C_19  and  O_23
REMARK    5  A    between atoms: O_23  and  C_24
REMARK    6  A    between atoms: N_26  and  C_27
REMARK    7  A    between atoms: C_29  and  C_33
REMARK                            x       y       z     vdW  Elec       q    Type
REMARK                         _______ _______ _______ _____ _____    ______ ____
ROOT
ATOM     15  C   UNL     1      -1.062   1.080  23.825  0.00  0.00    +0.167 C 
ATOM     16  C   UNL     1      -1.518   1.458  23.251  0.00  0.00    +0.169 C 
ATOM     17  O   UNL     1      -2.299   1.212  23.344  0.00  0.00    -0.348 OA
ATOM     18  C   UNL     1      -2.327   0.682  23.974  0.00  0.00    +0.187 C 
ATOM     19  C   UNL     1      -2.827   0.201  24.422  0.00  0.00    +0.229 C 
ATOM     20  C   UNL     1      -2.371  -0.177  24.996  0.00  0.00    +0.188 C 
ATOM     21  O   UNL     1      -1.590   0.069  24.904  0.00  0.00    -0.348 OA
ATOM     22  C   UNL     1      -1.562   0.600  24.272  0.00  0.00    +0.171 C 
ENDROOT
BRANCH  15  14
ATOM     10  C   UNL     1       0.131   1.832  24.240  0.00  0.00    +0.184 A 
ATOM     11  N   UNL     1       0.942   1.680  24.250  0.00  0.00    -0.108 NA
ATOM     12  N   UNL     1       1.063   0.921  23.950  0.00  0.00    -0.023 NA
ATOM     13  N   UNL     1       0.327   0.604  23.755  0.00  0.00    -0.043 NA
ATOM     14  N   UNL     1      -0.249   1.167  23.934  0.00  0.00    -0.210 N 
BRANCH  10   7
ATOM      4  C   UNL     1      -0.967   3.916  24.995  0.00  0.00    +0.048 A 
ATOM      5  C   UNL     1      -0.795   3.807  24.195  0.00  0.00    +0.015 A 
ATOM      6  C   UNL     1      -0.429   3.112  23.943  0.00  0.00    +0.004 A 
ATOM      7  C   UNL     1      -0.235   2.527  24.492  0.00  0.00    +0.037 A 
ATOM      8  C   UNL     1      -0.407   2.636  25.290  0.00  0.00    +0.004 A 
ATOM      9  C   UNL     1      -0.773   3.331  25.542  0.00  0.00    +0.015 A 
BRANCH   4   2
ATOM      1  C   UNL     1      -1.988   4.575  25.747  0.00  0.00    +0.112 C 
ATOM      2  N   UNL     1      -1.334   4.612  25.247  0.00  0.00    -0.304 N 
ATOM      3  C   UNL     1      -1.044   5.344  24.998  0.00  0.00    +0.112 C 
ENDBRANCH   4   2
ENDBRANCH  10   7
ENDBRANCH  15  14
BRANCH  19  23
ATOM     23  O   UNL     1      -3.640   0.114  24.314  0.00  0.00    -0.432 OA
BRANCH  23  24
ATOM     24  C   UNL     1      -4.167   0.521  24.801  0.00  0.00    +0.425 C 
ATOM     25  O   UNL     1      -4.224   0.327  25.600  0.00  0.00    -0.224 OA
ATOM     26  N   UNL     1      -4.637   1.123  24.488  0.00  0.00    -0.142 NA
BRANCH  26  27
ATOM     27  C   UNL     1      -5.165   1.530  24.975  0.00  0.00    +0.077 A 
ATOM     28  C   UNL     1      -5.092   2.346  25.071  0.00  0.00    +0.027 A 
ATOM     29  C   UNL     1      -5.619   2.753  25.558  0.00  0.00    +0.070 A 
ATOM     30  C   UNL     1      -6.219   2.344  25.949  0.00  0.00    +0.010 A 
ATOM     31  C   UNL     1      -6.292   1.527  25.854  0.00  0.00    +0.002 A 
ATOM     32  C   UNL     1      -5.765   1.121  25.367  0.00  0.00    +0.017 A 
BRANCH  29  33
ATOM     33  C   UNL     1      -5.546   3.569  25.653  0.00  0.00    +0.100 C 
ATOM     34  N   UNL     1      -5.473   4.385  25.749  0.00  0.00    -0.191 NA
ENDBRANCH  29  33
ENDBRANCH  26  27
ENDBRANCH  23  24
ENDBRANCH  19  23
TORSDOF 7
ENDMDL
