MODEL 1
REMARK VINA RESULT:     -15.1      0.000      0.000
REMARK  Name = 
REMARK  4 active torsions:
REMARK  status: ('A' for Active; 'I' for Inactive)
REMARK    1  A    between atoms: N_4  and  C_5
REMARK    2  A    between atoms: C_8  and  C_11
REMARK    3  A    between atoms: N_19  and  S_21
REMARK    4  A    between atoms: S_21  and  C_24
REMARK                            x       y       z     vdW  Elec       q    Type
REMARK                         _______ _______ _______ _____ _____    ______ ____
ROOT
ATOM     11  C   UNL     1      -2.355   1.885  24.672  0.00  0.00    +0.056 A 
ATOM     12  C   UNL     1      -1.532   1.824  24.640  0.00  0.00    +0.006 A 
ATOM     13  C   UNL     1      -1.064   2.491  24.764  0.00  0.00    +0.013 A 
ATOM     14  C   UNL     1      -1.418   3.220  24.919  0.00  0.00    +0.041 A 
ATOM     15  C   UNL     1      -1.201   4.097  25.090  0.00  0.00    +0.056 C 
ATOM     16  C   UNL     1      -0.648   4.523  25.163  0.00  0.00    +0.011 C 
ATOM     17  C   UNL     1      -1.460   4.579  25.194  0.00  0.00    +0.041 C 
ATOM     18  C   UNL     1      -2.408   4.847  25.270  0.00  0.00    +0.098 C 
ATOM     19  N   UNL     1      -2.774   4.109  25.130  0.00  0.00    -0.155 NA
ATOM     20  C   UNL     1      -2.113   4.371  25.167  0.00  0.00    +0.102 C 
ATOM     30  C   UNL     1      -1.696   3.666  25.015  0.00  0.00    +0.110 C 
ATOM     31  N   UNL     1      -2.240   3.281  24.950  0.00  0.00    -0.299 N 
ATOM     32  C   UNL     1      -2.709   2.613  24.827  0.00  0.00    +0.261 A 
ATOM     33  O   UNL     1      -3.531   2.674  24.858  0.00  0.00    -0.267 OA
ENDROOT
BRANCH  11   8
ATOM      5  C   UNL     1      -3.757  -0.120  24.303  0.00  0.00    +0.073 A 
ATOM      6  C   UNL     1      -3.540   0.354  23.663  0.00  0.00    +0.017 A 
ATOM      7  C   UNL     1      -3.072   1.023  23.787  0.00  0.00    +0.001 A 
ATOM      8  C   UNL     1      -2.822   1.217  24.548  0.00  0.00    +0.005 A 
ATOM      9  C   UNL     1      -3.040   0.742  25.187  0.00  0.00    +0.001 A 
ATOM     10  C   UNL     1      -3.507   0.074  25.064  0.00  0.00    +0.017 A 
BRANCH   5   4
ATOM      1  C   UNL     1      -4.340  -2.198  23.976  0.00  0.00    +0.097 C 
ATOM      2  C   UNL     1      -3.872  -1.529  24.099  0.00  0.00    +0.246 C 
ATOM      3  O   UNL     1      -3.051  -1.603  24.141  0.00  0.00    -0.273 OA
ATOM      4  N   UNL     1      -4.226  -0.789  24.180  0.00  0.00    -0.179 NA
ENDBRANCH   5   4
ENDBRANCH  11   8
BRANCH  19  21
ATOM     21  S   UNL     1      -3.379   3.556  25.032  0.00  0.00    +0.063 S 
ATOM     22  O   UNL     1      -3.395   3.716  24.223  0.00  0.00    -0.153 OA
ATOM     23  O   UNL     1      -3.363   3.396  25.842  0.00  0.00    -0.153 OA
BRANCH  21  24
ATOM     24  C   UNL     1      -3.983   3.002  24.935  0.00  0.00    +0.122 A 
ATOM     25  C   UNL     1      -4.289   2.854  24.184  0.00  0.00    +0.020 A 
ATOM     26  C   UNL     1      -4.894   2.301  24.086  0.00  0.00    +0.001 A 
ATOM     27  C   UNL     1      -5.192   1.897  24.741  0.00  0.00    +0.000 A 
ATOM     28  C   UNL     1      -4.886   2.045  25.492  0.00  0.00    +0.001 A 
ATOM     29  C   UNL     1      -4.281   2.599  25.589  0.00  0.00    +0.020 A 
ENDBRANCH  21  24
ENDBRANCH  19  21
TORSDOF 4
ENDMDL
MODEL 2
REMARK VINA RESULT:     -14.8      1.419      2.599
REMARK  Name = 
REMARK  4 active torsions:
REMARK  status: ('A' for Active; 'I' for Inactive)
REMARK    1  A    between atoms: N_4  and  C_5
REMARK    2  A    between atoms: C_8  and  C_11
REMARK    3  A    between atoms: N_19  and  S_21
REMARK    4  A    between atoms: S_21  and  C_24
REMARK                            x       y       z     vdW  Elec       q    Type
REMARK                         _______ _______ _______ _____ _____    ______ ____
ROOT
ATOM     11  C   UNL     1      -4.384   1.013  24.994  0.00  0.00    +0.056 A 
ATOM     12  C   UNL     1      -5.155   1.014  25.287  0.00  0.00    +0.006 A 
ATOM     13  C   UNL     1      -5.532   1.729  25.455  0.00  0.00    +0.013 A 
ATOM     14  C   UNL     1      -5.138   2.442  25.329  0.00  0.00    +0.041 A 
ATOM     15  C   UNL     1      -5.262   3.349  25.407  0.00  0.00    +0.056 C 
ATOM     16  C   UNL     1      -5.739   3.825  25.604  0.00  0.00    +0.011 C 
ATOM     17  C   UNL     1      -4.978   3.820  25.315  0.00  0.00    +0.041 C 
ATOM     18  C   UNL     1      -4.071   4.020  24.977  0.00  0.00    +0.098 C 
ATOM     19  N   UNL     1      -3.796   3.242  24.847  0.00  0.00    -0.155 NA
ATOM     20  C   UNL     1      -4.388   3.558  25.082  0.00  0.00    +0.102 C 
ATOM     30  C   UNL     1      -4.839   2.874  25.230  0.00  0.00    +0.110 C 
ATOM     31  N   UNL     1      -4.366   2.441  25.036  0.00  0.00    -0.299 N 
ATOM     32  C   UNL     1      -3.989   1.727  24.869  0.00  0.00    +0.261 A 
ATOM     33  O   UNL     1      -3.218   1.726  24.576  0.00  0.00    -0.267 OA
ENDROOT
BRANCH  11   8
ATOM      5  C   UNL     1      -3.254  -1.131  24.495  0.00  0.00    +0.073 A 
ATOM      6  C   UNL     1      -3.697  -0.753  23.911  0.00  0.00    +0.017 A 
ATOM      7  C   UNL     1      -4.074  -0.038  24.077  0.00  0.00    +0.001 A 
ATOM      8  C   UNL     1      -4.007   0.299  24.828  0.00  0.00    +0.005 A 
ATOM      9  C   UNL     1      -3.564  -0.080  25.412  0.00  0.00    +0.001 A 
ATOM     10  C   UNL     1      -3.187  -0.794  25.245  0.00  0.00    +0.017 A 
BRANCH   5   4
ATOM      1  C   UNL     1      -2.884  -3.275  24.315  0.00  0.00    +0.097 C 
ATOM      2  C   UNL     1      -3.261  -2.559  24.482  0.00  0.00    +0.246 C 
ATOM      3  O   UNL     1      -4.022  -2.559  24.802  0.00  0.00    -0.273 OA
ATOM      4  N   UNL     1      -2.877  -1.847  24.329  0.00  0.00    -0.179 NA
ENDBRANCH   5   4
ENDBRANCH  11   8
BRANCH  19  21
ATOM     21  S   UNL     1      -3.281   2.633  24.631  0.00  0.00    +0.063 S 
ATOM     22  O   UNL     1      -2.984   2.611  25.401  0.00  0.00    -0.153 OA
ATOM     23  O   UNL     1      -3.579   2.655  23.861  0.00  0.00    -0.153 OA
BRANCH  21  24
ATOM     24  C   UNL     1      -2.767   2.025  24.415  0.00  0.00    +0.122 A 
ATOM     25  C   UNL     1      -2.258   1.698  24.975  0.00  0.00    +0.020 A 
ATOM     26  C   UNL     1      -1.743   1.089  24.759  0.00  0.00    +0.001 A 
ATOM     27  C   UNL     1      -1.740   0.808  23.984  0.00  0.00    +0.000 A 
ATOM     28  C   UNL     1      -2.249   1.135  23.424  0.00  0.00    +0.001 A 
ATOM     29  C   UNL     1      -2.764   1.744  23.640  0.00  0.00    +0.020 A 
ENDBRANCH  21  24
ENDBRANCH  19  21
TORSDOF 4
ENDMDL
MODEL 3
REMARK VINA RESULT:     -14.4      1.391      4.240
REMARK  Name = 
REMARK  4 active torsions:
REMARK  status: ('A' for Active; 'I' for Inactive)
REMARK    1  A    between atoms: N_4  and  C_5
REMARK    2  A    between atoms: C_8  and  C_11
REMARK    3  A    between atoms: N_19  and  S_21
REMARK    4  A    between atoms: S_21  and  C_24
REMARK                            x       y       z     vdW  Elec       q    Type
REMARK                         _______ _______ _______ _____ _____    ______ ____
ROOT
ATOM     11  C   UNL     1      -2.147   0.722  24.917  0.00  0.00    +0.056 A 
ATOM     12  C   UNL     1      -1.522   0.230  25.137  0.00  0.00    +0.006 A 
ATOM     13  C   UNL     1      -1.630  -0.588  25.164  0.00  0.00    +0.013 A 
ATOM     14  C   UNL     1      -2.363  -0.913  24.972  0.00  0.00    +0.041 A 
ATOM     15  C   UNL     1      -2.788  -1.725  24.906  0.00  0.00    +0.056 C 
ATOM     16  C   UNL     1      -2.677  -2.413  24.988  0.00  0.00    +0.011 C 
ATOM     17  C   UNL     1      -3.292  -1.924  24.772  0.00  0.00    +0.041 C 
ATOM     18  C   UNL     1      -4.143  -1.508  24.491  0.00  0.00    +0.098 C 
ATOM     19  N   UNL     1      -3.915  -0.704  24.500  0.00  0.00    -0.155 NA
ATOM     20  C   UNL     1      -3.618  -1.337  24.633  0.00  0.00    +0.102 C 
ATOM     30  C   UNL     1      -2.856  -1.071  24.838  0.00  0.00    +0.110 C 
ATOM     31  N   UNL     1      -2.988  -0.421  24.752  0.00  0.00    -0.299 N 
ATOM     32  C   UNL     1      -2.880   0.397  24.725  0.00  0.00    +0.261 A 
ATOM     33  O   UNL     1      -3.505   0.889  24.505  0.00  0.00    -0.267 OA
ENDROOT
BRANCH  11   8
ATOM      5  C   UNL     1      -1.819   3.173  24.834  0.00  0.00    +0.073 A 
ATOM      6  C   UNL     1      -2.088   2.817  25.528  0.00  0.00    +0.017 A 
ATOM      7  C   UNL     1      -2.198   1.999  25.555  0.00  0.00    +0.001 A 
ATOM      8  C   UNL     1      -2.038   1.539  24.890  0.00  0.00    +0.005 A 
ATOM      9  C   UNL     1      -1.768   1.896  24.196  0.00  0.00    +0.001 A 
ATOM     10  C   UNL     1      -1.659   2.713  24.168  0.00  0.00    +0.017 A 
BRANCH   5   4
ATOM      1  C   UNL     1      -0.878   5.136  25.006  0.00  0.00    +0.097 C 
ATOM      2  C   UNL     1      -0.988   4.317  25.033  0.00  0.00    +0.246 C 
ATOM      3  O   UNL     1      -0.374   3.828  25.289  0.00  0.00    -0.273 OA
ATOM      4  N   UNL     1      -1.709   3.991  24.806  0.00  0.00    -0.179 NA
ENDBRANCH   5   4
ENDBRANCH  11   8
BRANCH  19  21
ATOM     21  S   UNL     1      -3.979   0.115  24.421  0.00  0.00    +0.063 S 
ATOM     22  O   UNL     1      -3.741   0.058  23.633  0.00  0.00    -0.153 OA
ATOM     23  O   UNL     1      -4.217   0.172  25.210  0.00  0.00    -0.153 OA
BRANCH  21  24
ATOM     24  C   UNL     1      -4.043   0.934  24.343  0.00  0.00    +0.122 A 
ATOM     25  C   UNL     1      -3.842   1.297  23.631  0.00  0.00    +0.020 A 
ATOM     26  C   UNL     1      -3.906   2.116  23.552  0.00  0.00    +0.001 A 
ATOM     27  C   UNL     1      -4.172   2.571  24.187  0.00  0.00    +0.000 A 
ATOM     28  C   UNL     1      -4.373   2.208  24.899  0.00  0.00    +0.001 A 
ATOM     29  C   UNL     1      -4.309   1.389  24.978  0.00  0.00    +0.020 A 
ENDBRANCH  21  24
ENDBRANCH  19  21
TORSDOF 4
ENDMDL
MODEL 4
REMARK VINA RESULT:     -14.3      1.484      4.897
REMARK  Name = 
REMARK  4 active torsions:
REMARK  status: ('A' for Active; 'I' for Inactive)
REMARK    1  A    between atoms: N_4  and  C_5
REMARK    2  A    between atoms: C_8  and  C_11
REMARK    3  A    between atoms: N_19  and  S_21
REMARK    4  A    between atoms: S_21  and  C_24
REMARK                            x       y       z     vdW  Elec       q    Type
REMARK                         _______ _______ _______ _____ _____    ______ ____
ROOT
ATOM     11  C   UNL     1      -3.110   0.428  24.389  0.00  0.00    +0.056 A 
ATOM     12  C   UNL     1      -3.894   0.379  24.137  0.00  0.00    +0.006 A 
ATOM     13  C   UNL     1      -4.248  -0.359  24.032  0.00  0.00    +0.013 A 
ATOM     14  C   UNL     1      -3.818  -1.047  24.179  0.00  0.00    +0.041 A 
ATOM     15  C   UNL     1      -3.907  -1.962  24.161  0.00  0.00    +0.056 C 
ATOM     16  C   UNL     1      -4.372  -2.467  24.017  0.00  0.00    +0.011 C 
ATOM     17  C   UNL     1      -3.598  -2.414  24.265  0.00  0.00    +0.041 C 
ATOM     18  C   UNL     1      -2.668  -2.557  24.567  0.00  0.00    +0.098 C 
ATOM     19  N   UNL     1      -2.421  -1.762  24.637  0.00  0.00    -0.155 NA
ATOM     20  C   UNL     1      -3.010  -2.116  24.451  0.00  0.00    +0.102 C 
ATOM     30  C   UNL     1      -3.496  -1.460  24.287  0.00  0.00    +0.110 C 
ATOM     31  N   UNL     1      -3.034  -0.998  24.431  0.00  0.00    -0.299 N 
ATOM     32  C   UNL     1      -2.680  -0.260  24.536  0.00  0.00    +0.261 A 
ATOM     33  O   UNL     1      -1.896  -0.210  24.788  0.00  0.00    -0.267 OA
ENDROOT
BRANCH  11   8
ATOM      5  C   UNL     1      -2.052   2.642  24.707  0.00  0.00    +0.073 A 
ATOM      6  C   UNL     1      -2.026   2.276  23.968  0.00  0.00    +0.017 A 
ATOM      7  C   UNL     1      -2.380   1.537  23.862  0.00  0.00    +0.001 A 
ATOM      8  C   UNL     1      -2.757   1.166  24.495  0.00  0.00    +0.005 A 
ATOM      9  C   UNL     1      -2.782   1.533  25.233  0.00  0.00    +0.001 A 
ATOM     10  C   UNL     1      -2.430   2.271  25.339  0.00  0.00    +0.017 A 
BRANCH   5   4
ATOM      1  C   UNL     1      -1.815   4.790  25.017  0.00  0.00    +0.097 C 
ATOM      2  C   UNL     1      -2.168   4.051  24.912  0.00  0.00    +0.246 C 
ATOM      3  O   UNL     1      -2.991   3.985  24.905  0.00  0.00    -0.273 OA
ATOM      4  N   UNL     1      -1.698   3.381  24.813  0.00  0.00    -0.179 NA
ENDBRANCH   5   4
ENDBRANCH  11   8
BRANCH  19  21
ATOM     21  S   UNL     1      -1.923  -1.121  24.790  0.00  0.00    +0.063 S 
ATOM     22  O   UNL     1      -1.661  -1.138  24.008  0.00  0.00    -0.153 OA
ATOM     23  O   UNL     1      -2.185  -1.104  25.573  0.00  0.00    -0.153 OA
BRANCH  21  24
ATOM     24  C   UNL     1      -1.426  -0.481  24.943  0.00  0.00    +0.122 A 
ATOM     25  C   UNL     1      -1.399  -0.150  25.698  0.00  0.00    +0.020 A 
ATOM     26  C   UNL     1      -0.901   0.490  25.851  0.00  0.00    +0.001 A 
ATOM     27  C   UNL     1      -0.431   0.800  25.248  0.00  0.00    +0.000 A 
ATOM     28  C   UNL     1      -0.458   0.469  24.493  0.00  0.00    +0.001 A 
ATOM     29  C   UNL     1      -0.955  -0.171  24.340  0.00  0.00    +0.020 A 
ENDBRANCH  21  24
ENDBRANCH  19  21
TORSDOF 4
ENDMDL
MODEL 5
REMARK VINA RESULT:     -14.2      1.267      2.319
REMARK  Name = 
REMARK  4 active torsions:
REMARK  status: ('A' for Active; 'I' for Inactive)
REMARK    1  A    between atoms: N_4  and  C_5
REMARK    2  A    between atoms: C_8  and  C_11
REMARK    3  A    between atoms: N_19  and  S_21
REMARK    4  A    between atoms: S_21  and  C_24
REMARK                            x       y       z     vdW  Elec       q    Type
REMARK                         _______ _______ _______ _____ _____    ______ ____
ROOT
ATOM     11  C   UNL     1      -2.820   1.856  24.819  0.00  0.00    +0.056 A 
ATOM     12  C   UNL     1      -3.460   2.375  24.862  0.00  0.00    +0.006 A 
ATOM     13  C   UNL     1      -3.333   3.178  25.001  0.00  0.00    +0.013 A 
ATOM     14  C   UNL     1      -2.564   3.462  25.097  0.00  0.00    +0.041 A 
ATOM     15  C   UNL     1      -2.108   4.244  25.255  0.00  0.00    +0.056 C 
ATOM     16  C   UNL     1      -2.211   4.931  25.360  0.00  0.00    +0.011 C 
ATOM     17  C   UNL     1      -1.581   4.416  25.317  0.00  0.00    +0.041 C 
ATOM     18  C   UNL     1      -0.704   3.961  25.300  0.00  0.00    +0.098 C 
ATOM     19  N   UNL     1      -0.955   3.177  25.156  0.00  0.00    -0.155 NA
ATOM     20  C   UNL     1      -1.253   3.819  25.241  0.00  0.00    +0.102 C 
ATOM     30  C   UNL     1      -2.049   3.594  25.152  0.00  0.00    +0.110 C 
ATOM     31  N   UNL     1      -1.924   2.944  25.055  0.00  0.00    -0.299 N 
ATOM     32  C   UNL     1      -2.051   2.141  24.916  0.00  0.00    +0.261 A 
ATOM     33  O   UNL     1      -1.411   1.623  24.873  0.00  0.00    -0.267 OA
ENDROOT
BRANCH  11   8
ATOM      5  C   UNL     1      -3.205  -0.552  24.404  0.00  0.00    +0.073 A 
ATOM      6  C   UNL     1      -3.094  -0.038  23.769  0.00  0.00    +0.017 A 
ATOM      7  C   UNL     1      -2.965   0.766  23.907  0.00  0.00    +0.001 A 
ATOM      8  C   UNL     1      -2.948   1.054  24.680  0.00  0.00    +0.005 A 
ATOM      9  C   UNL     1      -3.059   0.538  25.315  0.00  0.00    +0.001 A 
ATOM     10  C   UNL     1      -3.188  -0.265  25.177  0.00  0.00    +0.017 A 
BRANCH   5   4
ATOM      1  C   UNL     1      -4.221  -2.431  23.953  0.00  0.00    +0.097 C 
ATOM      2  C   UNL     1      -4.092  -1.627  24.092  0.00  0.00    +0.246 C 
ATOM      3  O   UNL     1      -4.723  -1.097  24.056  0.00  0.00    -0.273 OA
ATOM      4  N   UNL     1      -3.334  -1.356  24.265  0.00  0.00    -0.179 NA
ENDBRANCH   5   4
ENDBRANCH  11   8
BRANCH  19  21
ATOM     21  S   UNL     1      -0.904   2.364  25.027  0.00  0.00    +0.063 S 
ATOM     22  O   UNL     1      -0.956   2.231  25.840  0.00  0.00    -0.153 OA
ATOM     23  O   UNL     1      -0.851   2.496  24.214  0.00  0.00    -0.153 OA
BRANCH  21  24
ATOM     24  C   UNL     1      -0.852   1.550  24.898  0.00  0.00    +0.122 A 
ATOM     25  C   UNL     1      -0.885   1.029  25.536  0.00  0.00    +0.020 A 
ATOM     26  C   UNL     1      -0.834   0.215  25.407  0.00  0.00    +0.001 A 
ATOM     27  C   UNL     1      -0.749  -0.076  24.640  0.00  0.00    +0.000 A 
ATOM     28  C   UNL     1      -0.716   0.446  24.002  0.00  0.00    +0.001 A 
ATOM     29  C   UNL     1      -0.767   1.259  24.131  0.00  0.00    +0.020 A 
ENDBRANCH  21  24
ENDBRANCH  19  21
TORSDOF 4
ENDMDL
MODEL 6
REMARK VINA RESULT:     -14.2      1.492      3.377
REMARK  Name = 
REMARK  4 active torsions:
REMARK  status: ('A' for Active; 'I' for Inactive)
REMARK    1  A    between atoms: N_4  and  C_5
REMARK    2  A    between atoms: C_8  and  C_11
REMARK    3  A    between atoms: N_19  and  S_21
REMARK    4  A    between atoms: S_21  and  C_24
REMARK                            x       y       z     vdW  Elec       q    Type
REMARK                         _______ _______ _______ _____ _____    ______ ____
ROOT
ATOM     11  C   UNL     1      -3.192   1.811  24.710  0.00  0.00    +0.056 A 
ATOM     12  C   UNL     1      -3.602   1.117  24.532  0.00  0.00    +0.006 A 
ATOM     13  C   UNL     1      -4.419   1.081  24.641  0.00  0.00    +0.013 A 
ATOM     14  C   UNL     1      -4.825   1.739  24.927  0.00  0.00    +0.041 A 
ATOM     15  C   UNL     1      -5.675   2.013  25.147  0.00  0.00    +0.056 C 
ATOM     16  C   UNL     1      -6.338   1.785  25.168  0.00  0.00    +0.011 C 
ATOM     17  C   UNL     1      -5.931   2.469  25.342  0.00  0.00    +0.041 C 
ATOM     18  C   UNL     1      -5.622   3.370  25.605  0.00  0.00    +0.098 C 
ATOM     19  N   UNL     1      -4.804   3.287  25.455  0.00  0.00    -0.155 NA
ATOM     20  C   UNL     1      -5.392   2.888  25.405  0.00  0.00    +0.102 C 
ATOM     30  C   UNL     1      -5.040   2.192  25.114  0.00  0.00    +0.110 C 
ATOM     31  N   UNL     1      -4.416   2.433  25.105  0.00  0.00    -0.299 N 
ATOM     32  C   UNL     1      -3.599   2.469  24.996  0.00  0.00    +0.261 A 
ATOM     33  O   UNL     1      -3.189   3.163  25.173  0.00  0.00    -0.267 OA
ENDROOT
BRANCH  11   8
ATOM      5  C   UNL     1      -0.741   1.916  24.384  0.00  0.00    +0.073 A 
ATOM      6  C   UNL     1      -1.248   2.133  23.770  0.00  0.00    +0.017 A 
ATOM      7  C   UNL     1      -2.065   2.098  23.879  0.00  0.00    +0.001 A 
ATOM      8  C   UNL     1      -2.375   1.846  24.600  0.00  0.00    +0.005 A 
ATOM      9  C   UNL     1      -1.868   1.629  25.214  0.00  0.00    +0.001 A 
ATOM     10  C   UNL     1      -1.051   1.664  25.105  0.00  0.00    +0.017 A 
BRANCH   5   4
ATOM      1  C   UNL     1       1.294   1.344  23.836  0.00  0.00    +0.097 C 
ATOM      2  C   UNL     1       0.476   1.309  23.945  0.00  0.00    +0.246 C 
ATOM      3  O   UNL     1       0.059   0.632  23.722  0.00  0.00    -0.273 OA
ATOM      4  N   UNL     1       0.077   1.950  24.275  0.00  0.00    -0.179 NA
ENDBRANCH   5   4
ENDBRANCH  11   8
BRANCH  19  21
ATOM     21  S   UNL     1      -4.006   3.491  25.407  0.00  0.00    +0.063 S 
ATOM     22  O   UNL     1      -3.894   3.236  26.184  0.00  0.00    -0.153 OA
ATOM     23  O   UNL     1      -4.118   3.746  24.630  0.00  0.00    -0.153 OA
BRANCH  21  24
ATOM     24  C   UNL     1      -3.208   3.695  25.358  0.00  0.00    +0.122 A 
ATOM     25  C   UNL     1      -2.907   4.023  24.664  0.00  0.00    +0.020 A 
ATOM     26  C   UNL     1      -2.109   4.227  24.615  0.00  0.00    +0.001 A 
ATOM     27  C   UNL     1      -1.612   4.103  25.262  0.00  0.00    +0.000 A 
ATOM     28  C   UNL     1      -1.912   3.775  25.956  0.00  0.00    +0.001 A 
ATOM     29  C   UNL     1      -2.711   3.571  26.005  0.00  0.00    +0.020 A 
ENDBRANCH  21  24
ENDBRANCH  19  21
TORSDOF 4
ENDMDL
MODEL 7
REMARK VINA RESULT:     -14.0      1.810      3.205
REMARK  Name = 
REMARK  4 active torsions:
REMARK  status: ('A' for Active; 'I' for Inactive)
REMARK    1  A    between atoms: N_4  and  C_5
REMARK    2  A    between atoms: C_8  and  C_11
REMARK    3  A    between atoms: N_19  and  S_21
REMARK    4  A    between atoms: S_21  and  C_24
REMARK                            x       y       z     vdW  Elec       q    Type
REMARK                         _______ _______ _______ _____ _____    ______ ____
ROOT
ATOM     11  C   UNL     1      -3.056   1.849  24.800  0.00  0.00    +0.056 A 
ATOM     12  C   UNL     1      -2.916   2.656  24.892  0.00  0.00    +0.006 A 
ATOM     13  C   UNL     1      -3.536   3.162  25.095  0.00  0.00    +0.013 A 
ATOM     14  C   UNL     1      -4.295   2.859  25.206  0.00  0.00    +0.041 A 
ATOM     15  C   UNL     1      -5.146   3.130  25.421  0.00  0.00    +0.056 C 
ATOM     16  C   UNL     1      -5.518   3.703  25.583  0.00  0.00    +0.011 C 
ATOM     17  C   UNL     1      -5.652   2.905  25.491  0.00  0.00    +0.041 C 
ATOM     18  C   UNL     1      -6.010   1.986  25.427  0.00  0.00    +0.098 C 
ATOM     19  N   UNL     1      -5.310   1.578  25.222  0.00  0.00    -0.155 NA
ATOM     20  C   UNL     1      -5.507   2.247  25.363  0.00  0.00    +0.102 C 
ATOM     30  C   UNL     1      -4.766   2.613  25.265  0.00  0.00    +0.110 C 
ATOM     31  N   UNL     1      -4.435   2.051  25.113  0.00  0.00    -0.299 N 
ATOM     32  C   UNL     1      -3.815   1.546  24.910  0.00  0.00    +0.261 A 
ATOM     33  O   UNL     1      -3.955   0.738  24.818  0.00  0.00    -0.267 OA
ENDROOT
BRANCH  11   8
ATOM      5  C   UNL     1      -1.196   0.335  24.189  0.00  0.00    +0.073 A 
ATOM      6  C   UNL     1      -1.360   0.485  24.983  0.00  0.00    +0.017 A 
ATOM      7  C   UNL     1      -1.981   0.991  25.187  0.00  0.00    +0.001 A 
ATOM      8  C   UNL     1      -2.436   1.344  24.597  0.00  0.00    +0.005 A 
ATOM      9  C   UNL     1      -2.271   1.193  23.803  0.00  0.00    +0.001 A 
ATOM     10  C   UNL     1      -1.651   0.688  23.599  0.00  0.00    +0.017 A 
BRANCH   5   4
ATOM      1  C   UNL     1       0.771  -0.362  23.548  0.00  0.00    +0.097 C 
ATOM      2  C   UNL     1       0.150   0.143  23.752  0.00  0.00    +0.246 C 
ATOM      3  O   UNL     1       0.257   0.961  23.721  0.00  0.00    -0.273 OA
ATOM      4  N   UNL     1      -0.575  -0.170  23.985  0.00  0.00    -0.179 NA
ENDBRANCH   5   4
ENDBRANCH  11   8
BRANCH  19  21
ATOM     21  S   UNL     1      -4.818   0.945  25.026  0.00  0.00    +0.063 S 
ATOM     22  O   UNL     1      -4.960   1.082  24.225  0.00  0.00    -0.153 OA
ATOM     23  O   UNL     1      -4.675   0.808  25.827  0.00  0.00    -0.153 OA
BRANCH  21  24
ATOM     24  C   UNL     1      -4.325   0.312  24.830  0.00  0.00    +0.122 A 
ATOM     25  C   UNL     1      -4.215   0.105  24.040  0.00  0.00    +0.020 A 
ATOM     26  C   UNL     1      -3.722  -0.528  23.844  0.00  0.00    +0.001 A 
ATOM     27  C   UNL     1      -3.340  -0.952  24.439  0.00  0.00    +0.000 A 
ATOM     28  C   UNL     1      -3.450  -0.744  25.229  0.00  0.00    +0.001 A 
ATOM     29  C   UNL     1      -3.943  -0.112  25.425  0.00  0.00    +0.020 A 
ENDBRANCH  21  24
ENDBRANCH  19  21
TORSDOF 4
ENDMDL
