MODEL 1
REMARK VINA RESULT:     -13.3      0.000      0.000
REMARK  Name = 
REMARK  3 active torsions:
REMARK  status: ('A' for Active; 'I' for Inactive)
REMARK    1  A    between atoms: C_7  and  C_9
REMARK    2  A    between atoms: N_12  and  C_13
REMARK    3  A    between atoms: C_13  and  C_14
REMARK                            x       y       z     vdW  Elec       q    Type
REMARK                         _______ _______ _______ _____ _____    ______ ____
ROOT
ATOM      9  C   UNL     1      -4.452   0.918  24.770  0.00  0.00    +0.094 C 
ATOM     10  C   UNL     1      -5.107   1.247  25.148  0.00  0.00    +0.028 C 
ATOM     11  C   UNL     1      -5.071   2.066  25.057  0.00  0.00    +0.073 C 
ATOM     12  N   UNL     1      -4.393   2.244  24.623  0.00  0.00    -0.268 NA
ATOM     22  C   UNL     1      -4.010   1.535  24.445  0.00  0.00    +0.082 C 
ENDROOT
BRANCH   9   7
ATOM      1  F   UNL     1      -3.163  -3.170  25.279  0.00  0.00    -0.204 F 
ATOM      2  C   UNL     1      -3.497  -2.493  24.947  0.00  0.00    +0.142 A 
ATOM      3  C   UNL     1      -3.478  -1.779  25.358  0.00  0.00    +0.052 A 
ATOM      4  C   UNL     1      -3.812  -1.102  25.026  0.00  0.00    +0.121 A 
ATOM      5  C   UNL     1      -4.167  -1.140  24.282  0.00  0.00    +0.165 A 
ATOM      6  O   UNL     1      -4.449  -0.388  24.096  0.00  0.00    -0.438 OA
ATOM      7  C   UNL     1      -4.270   0.115  24.724  0.00  0.00    +0.207 A 
ATOM      8  N   UNL     1      -3.876  -0.327  25.298  0.00  0.00    -0.212 NA
ATOM     23  C   UNL     1      -4.187  -1.855  23.870  0.00  0.00    +0.041 A 
ATOM     24  C   UNL     1      -3.852  -2.531  24.203  0.00  0.00    +0.033 A 
ENDBRANCH   9   7
BRANCH  12  13
ATOM     13  C   UNL     1      -4.141   2.998  24.404  0.00  0.00    +0.099 C 
BRANCH  13  14
ATOM     14  C   UNL     1      -3.509   3.354  24.799  0.00  0.00    -0.004 A 
ATOM     15  C   UNL     1      -3.631   3.720  25.528  0.00  0.00    +0.029 A 
ATOM     16  C   UNL     1      -2.999   4.075  25.922  0.00  0.00    +0.167 A 
ATOM     17  F   UNL     1      -3.122   4.442  26.651  0.00  0.00    -0.202 F 
ATOM     18  C   UNL     1      -2.246   4.064  25.587  0.00  0.00    +0.167 A 
ATOM     19  F   UNL     1      -1.614   4.419  25.981  0.00  0.00    -0.202 F 
ATOM     20  C   UNL     1      -2.123   3.697  24.858  0.00  0.00    +0.032 A 
ATOM     21  C   UNL     1      -2.755   3.342  24.463  0.00  0.00    -0.000 A 
ENDBRANCH  13  14
ENDBRANCH  12  13
TORSDOF 3
ENDMDL
MODEL 2
REMARK VINA RESULT:     -13.2      1.360      5.354
REMARK  Name = 
REMARK  3 active torsions:
REMARK  status: ('A' for Active; 'I' for Inactive)
REMARK    1  A    between atoms: C_7  and  C_9
REMARK    2  A    between atoms: N_12  and  C_13
REMARK    3  A    between atoms: C_13  and  C_14
REMARK                            x       y       z     vdW  Elec       q    Type
REMARK                         _______ _______ _______ _____ _____    ______ ____
ROOT
ATOM      9  C   UNL     1      -3.054   1.780  24.363  0.00  0.00    +0.094 C 
ATOM     10  C   UNL     1      -3.159   1.454  23.613  0.00  0.00    +0.028 C 
ATOM     11  C   UNL     1      -3.647   0.793  23.686  0.00  0.00    +0.073 C 
ATOM     12  N   UNL     1      -3.844   0.710  24.482  0.00  0.00    -0.268 NA
ATOM     22  C   UNL     1      -3.478   1.320  24.901  0.00  0.00    +0.082 C 
ENDROOT
BRANCH   9   7
ATOM      1  F   UNL     1      -1.439   5.649  25.389  0.00  0.00    -0.204 F 
ATOM      2  C   UNL     1      -1.482   4.852  25.184  0.00  0.00    +0.142 A 
ATOM      3  C   UNL     1      -2.216   4.493  25.076  0.00  0.00    +0.052 A 
ATOM      4  C   UNL     1      -2.260   3.695  24.871  0.00  0.00    +0.121 A 
ATOM      5  C   UNL     1      -1.568   3.256  24.775  0.00  0.00    +0.165 A 
ATOM      6  O   UNL     1      -1.782   2.485  24.573  0.00  0.00    -0.438 OA
ATOM      7  C   UNL     1      -2.605   2.448  24.544  0.00  0.00    +0.207 A 
ATOM      8  N   UNL     1      -2.900   3.195  24.728  0.00  0.00    -0.212 NA
ATOM     23  C   UNL     1      -0.833   3.615  24.883  0.00  0.00    +0.041 A 
ATOM     24  C   UNL     1      -0.790   4.412  25.088  0.00  0.00    +0.033 A 
ENDBRANCH   9   7
BRANCH  12  13
ATOM     13  C   UNL     1      -4.323   0.121  24.804  0.00  0.00    +0.099 C 
BRANCH  13  14
ATOM     14  C   UNL     1      -4.056  -0.659  24.833  0.00  0.00    -0.004 A 
ATOM     15  C   UNL     1      -4.214  -1.173  24.206  0.00  0.00    +0.029 A 
ATOM     16  C   UNL     1      -3.947  -1.952  24.236  0.00  0.00    +0.167 A 
ATOM     17  F   UNL     1      -4.105  -2.466  23.609  0.00  0.00    -0.202 F 
ATOM     18  C   UNL     1      -3.522  -2.219  24.890  0.00  0.00    +0.167 A 
ATOM     19  F   UNL     1      -3.256  -2.999  24.919  0.00  0.00    -0.202 F 
ATOM     20  C   UNL     1      -3.364  -1.706  25.517  0.00  0.00    +0.032 A 
ATOM     21  C   UNL     1      -3.631  -0.925  25.488  0.00  0.00    -0.000 A 
ENDBRANCH  13  14
ENDBRANCH  12  13
TORSDOF 3
ENDMDL
MODEL 3
REMARK VINA RESULT:     -12.4      1.767      2.371
REMARK  Name = 
REMARK  3 active torsions:
REMARK  status: ('A' for Active; 'I' for Inactive)
REMARK    1  A    between atoms: C_7  and  C_9
REMARK    2  A    between atoms: N_12  and  C_13
REMARK    3  A    between atoms: C_13  and  C_14
REMARK                            x       y       z     vdW  Elec       q    Type
REMARK                         _______ _______ _______ _____ _____    ______ ____
ROOT
ATOM      9  C   UNL     1      -1.640   0.752  24.793  0.00  0.00    +0.094 C 
ATOM     10  C   UNL     1      -0.993   0.936  24.316  0.00  0.00    +0.028 C 
ATOM     11  C   UNL     1      -0.617   1.596  24.637  0.00  0.00    +0.073 C 
ATOM     12  N   UNL     1      -1.031   1.820  25.314  0.00  0.00    -0.268 NA
ATOM     22  C   UNL     1      -1.664   1.299  25.410  0.00  0.00    +0.082 C 
ENDROOT
BRANCH   9   7
ATOM      1  F   UNL     1      -3.826  -2.960  24.527  0.00  0.00    -0.204 F 
ATOM      2  C   UNL     1      -3.635  -2.161  24.458  0.00  0.00    +0.142 A 
ATOM      3  C   UNL     1      -2.908  -1.886  24.732  0.00  0.00    +0.052 A 
ATOM      4  C   UNL     1      -2.717  -1.086  24.664  0.00  0.00    +0.121 A 
ATOM      5  C   UNL     1      -3.254  -0.562  24.320  0.00  0.00    +0.165 A 
ATOM      6  O   UNL     1      -2.916   0.190  24.327  0.00  0.00    -0.438 OA
ATOM      7  C   UNL     1      -2.170   0.132  24.674  0.00  0.00    +0.207 A 
ATOM      8  N   UNL     1      -2.048  -0.657  24.882  0.00  0.00    -0.212 NA
ATOM     23  C   UNL     1      -3.982  -0.838  24.046  0.00  0.00    +0.041 A 
ATOM     24  C   UNL     1      -4.172  -1.637  24.115  0.00  0.00    +0.033 A 
ENDBRANCH   9   7
BRANCH  12  13
ATOM     13  C   UNL     1      -0.846   2.454  25.808  0.00  0.00    +0.099 C 
BRANCH  13  14
ATOM     14  C   UNL     1      -1.107   3.215  25.620  0.00  0.00    -0.004 A 
ATOM     15  C   UNL     1      -0.621   3.722  25.186  0.00  0.00    +0.029 A 
ATOM     16  C   UNL     1      -0.882   4.481  24.999  0.00  0.00    +0.167 A 
ATOM     17  F   UNL     1      -0.396   4.989  24.565  0.00  0.00    -0.202 F 
ATOM     18  C   UNL     1      -1.628   4.734  25.243  0.00  0.00    +0.167 A 
ATOM     19  F   UNL     1      -1.888   5.494  25.055  0.00  0.00    -0.202 F 
ATOM     20  C   UNL     1      -2.114   4.227  25.677  0.00  0.00    +0.032 A 
ATOM     21  C   UNL     1      -1.853   3.467  25.865  0.00  0.00    -0.000 A 
ENDBRANCH  13  14
ENDBRANCH  12  13
TORSDOF 3
ENDMDL
