MODEL 1
REMARK VINA RESULT:     -12.4      0.000      0.000
REMARK  Name = 
REMARK  6 active torsions:
REMARK  status: ('A' for Active; 'I' for Inactive)
REMARK    1  A    between atoms: C_5  and  C_6
REMARK    2  A    between atoms: C_6  and  N_7
REMARK    3  A    between atoms: C_11  and  C_12
REMARK    4  A    between atoms: C_14  and  C_17
REMARK    5  A    between atoms: C_20  and  O_21
REMARK    6  A    between atoms: O_21  and  C_22
REMARK                            x       y       z     vdW  Elec       q    Type
REMARK                         _______ _______ _______ _____ _____    ______ ____
ROOT
ATOM     12  C   UNL     1      -0.899   2.760  24.741  0.00  0.00    +0.251 A 
ATOM     13  N   UNL     1      -1.234   2.048  24.987  0.00  0.00    -0.190 NA
ATOM     14  C   UNL     1      -0.763   1.432  24.706  0.00  0.00    +0.205 A 
ATOM     15  N   UNL     1      -0.135   1.764  24.286  0.00  0.00    -0.056 NA
ATOM     16  O   UNL     1      -0.219   2.584  24.307  0.00  0.00    -0.336 OA
ENDROOT
BRANCH  14  17
ATOM     17  C   UNL     1      -0.895   0.626  24.824  0.00  0.00    +0.058 A 
ATOM     18  C   UNL     1      -1.118   0.350  25.569  0.00  0.00    +0.010 A 
ATOM     19  C   UNL     1      -1.250  -0.455  25.689  0.00  0.00    +0.058 A 
ATOM     20  C   UNL     1      -1.160  -0.985  25.063  0.00  0.00    +0.225 A 
ATOM     28  N   UNL     1      -0.937  -0.709  24.318  0.00  0.00    -0.210 NA
ATOM     29  C   UNL     1      -0.805   0.097  24.199  0.00  0.00    +0.105 A 
BRANCH  20  21
ATOM     21  O   UNL     1      -1.292  -1.791  25.182  0.00  0.00    -0.464 OA
BRANCH  21  22
ATOM     22  C   UNL     1      -2.020  -2.123  24.982  0.00  0.00    +0.168 C 
ATOM     23  C   UNL     1      -2.092  -2.574  24.294  0.00  0.00    +0.044 C 
ATOM     24  C   UNL     1      -2.820  -2.907  24.094  0.00  0.00    +0.004 C 
ATOM     25  C   UNL     1      -3.476  -2.788  24.582  0.00  0.00    +0.000 C 
ATOM     26  C   UNL     1      -3.403  -2.337  25.269  0.00  0.00    +0.004 C 
ATOM     27  C   UNL     1      -2.675  -2.005  25.469  0.00  0.00    +0.044 C 
ENDBRANCH  21  22
ENDBRANCH  20  21
ENDBRANCH  14  17
BRANCH  12  11
ATOM      7  N   UNL     1      -1.981   3.748  24.860  0.00  0.00    -0.263 NA
ATOM      8  C   UNL     1      -2.020   4.547  25.061  0.00  0.00    +0.073 C 
ATOM      9  C   UNL     1      -1.254   4.807  25.225  0.00  0.00    +0.019 C 
ATOM     10  C   UNL     1      -0.741   4.169  25.125  0.00  0.00    +0.027 C 
ATOM     11  C   UNL     1      -1.190   3.514  24.899  0.00  0.00    +0.138 C 
BRANCH   7   6
ATOM      6  C   UNL     1      -2.618   3.268  24.655  0.00  0.00    +0.099 C 
BRANCH   6   5
ATOM      1  F   UNL     1      -5.682   4.131  25.521  0.00  0.00    -0.204 F 
ATOM      2  C   UNL     1      -4.917   3.915  25.305  0.00  0.00    +0.140 A 
ATOM      3  C   UNL     1      -4.655   4.042  24.533  0.00  0.00    +0.029 A 
ATOM      4  C   UNL     1      -3.889   3.826  24.316  0.00  0.00    -0.001 A 
ATOM      5  C   UNL     1      -3.384   3.484  24.872  0.00  0.00    -0.006 A 
ATOM     30  C   UNL     1      -3.646   3.357  25.644  0.00  0.00    -0.001 A 
ATOM     31  C   UNL     1      -4.412   3.573  25.860  0.00  0.00    +0.029 A 
ENDBRANCH   6   5
ENDBRANCH   7   6
ENDBRANCH  12  11
TORSDOF 6
ENDMDL
MODEL 2
REMARK VINA RESULT:     -11.9      2.207      3.046
REMARK  Name = 
REMARK  6 active torsions:
REMARK  status: ('A' for Active; 'I' for Inactive)
REMARK    1  A    between atoms: C_5  and  C_6
REMARK    2  A    between atoms: C_6  and  N_7
REMARK    3  A    between atoms: C_11  and  C_12
REMARK    4  A    between atoms: C_14  and  C_17
REMARK    5  A    between atoms: C_20  and  O_21
REMARK    6  A    between atoms: O_21  and  C_22
REMARK                            x       y       z     vdW  Elec       q    Type
REMARK                         _______ _______ _______ _____ _____    ______ ____
ROOT
ATOM     12  C   UNL     1      -4.161   2.787  25.173  0.00  0.00    +0.251 A 
ATOM     13  N   UNL     1      -3.891   2.007  25.165  0.00  0.00    -0.190 NA
ATOM     14  C   UNL     1      -4.306   1.599  24.582  0.00  0.00    +0.205 A 
ATOM     15  N   UNL     1      -4.834   2.125  24.228  0.00  0.00    -0.056 NA
ATOM     16  O   UNL     1      -4.744   2.860  24.594  0.00  0.00    -0.336 OA
ENDROOT
BRANCH  14  17
ATOM     17  C   UNL     1      -4.211   0.803  24.385  0.00  0.00    +0.058 A 
ATOM     18  C   UNL     1      -4.685   0.231  24.744  0.00  0.00    +0.010 A 
ATOM     19  C   UNL     1      -4.591  -0.565  24.548  0.00  0.00    +0.058 A 
ATOM     20  C   UNL     1      -4.023  -0.789  23.993  0.00  0.00    +0.225 A 
ATOM     28  N   UNL     1      -3.549  -0.217  23.633  0.00  0.00    -0.210 NA
ATOM     29  C   UNL     1      -3.643   0.579  23.830  0.00  0.00    +0.105 A 
BRANCH  20  21
ATOM     21  O   UNL     1      -3.929  -1.585  23.796  0.00  0.00    -0.464 OA
BRANCH  21  22
ATOM     22  C   UNL     1      -3.398  -2.054  24.219  0.00  0.00    +0.168 C 
ATOM     23  C   UNL     1      -2.596  -2.046  24.025  0.00  0.00    +0.044 C 
ATOM     24  C   UNL     1      -2.065  -2.515  24.448  0.00  0.00    +0.004 C 
ATOM     25  C   UNL     1      -2.337  -2.992  25.065  0.00  0.00    +0.000 C 
ATOM     26  C   UNL     1      -3.139  -3.000  25.258  0.00  0.00    +0.004 C 
ATOM     27  C   UNL     1      -3.670  -2.530  24.836  0.00  0.00    +0.044 C 
ENDBRANCH  21  22
ENDBRANCH  20  21
ENDBRANCH  14  17
BRANCH  12  11
ATOM      7  N   UNL     1      -3.240   3.872  25.543  0.00  0.00    -0.263 NA
ATOM      8  C   UNL     1      -3.180   4.393  26.178  0.00  0.00    +0.073 C 
ATOM      9  C   UNL     1      -3.798   4.232  26.701  0.00  0.00    +0.019 C 
ATOM     10  C   UNL     1      -4.241   3.610  26.387  0.00  0.00    +0.027 C 
ATOM     11  C   UNL     1      -3.896   3.387  25.671  0.00  0.00    +0.138 C 
BRANCH   7   6
ATOM      6  C   UNL     1      -2.735   3.840  24.893  0.00  0.00    +0.099 C 
BRANCH   6   5
ATOM      1  F   UNL     1       0.128   5.480  24.944  0.00  0.00    -0.204 F 
ATOM      2  C   UNL     1      -0.587   5.070  24.931  0.00  0.00    +0.140 A 
ATOM      3  C   UNL     1      -1.295   5.478  24.814  0.00  0.00    +0.029 A 
ATOM      4  C   UNL     1      -2.011   5.068  24.801  0.00  0.00    -0.001 A 
ATOM      5  C   UNL     1      -2.019   4.249  24.906  0.00  0.00    -0.006 A 
ATOM     30  C   UNL     1      -1.311   3.841  25.022  0.00  0.00    -0.001 A 
ATOM     31  C   UNL     1      -0.596   4.252  25.035  0.00  0.00    +0.029 A 
ENDBRANCH   6   5
ENDBRANCH   7   6
ENDBRANCH  12  11
TORSDOF 6
ENDMDL
MODEL 3
REMARK VINA RESULT:     -11.2      3.247      5.181
REMARK  Name = 
REMARK  6 active torsions:
REMARK  status: ('A' for Active; 'I' for Inactive)
REMARK    1  A    between atoms: C_5  and  C_6
REMARK    2  A    between atoms: C_6  and  N_7
REMARK    3  A    between atoms: C_11  and  C_12
REMARK    4  A    between atoms: C_14  and  C_17
REMARK    5  A    between atoms: C_20  and  O_21
REMARK    6  A    between atoms: O_21  and  C_22
REMARK                            x       y       z     vdW  Elec       q    Type
REMARK                         _______ _______ _______ _____ _____    ______ ____
ROOT
ATOM     12  C   UNL     1      -1.090   0.932  24.161  0.00  0.00    +0.251 A 
ATOM     13  N   UNL     1      -0.525   0.707  23.604  0.00  0.00    -0.190 NA
ATOM     14  C   UNL     1       0.220   0.884  23.908  0.00  0.00    +0.205 A 
ATOM     15  N   UNL     1       0.116   1.220  24.655  0.00  0.00    -0.056 NA
ATOM     16  O   UNL     1      -0.693   1.250  24.811  0.00  0.00    -0.336 OA
ENDROOT
BRANCH  14  17
ATOM     17  C   UNL     1       0.942   0.750  23.534  0.00  0.00    +0.058 A 
ATOM     18  C   UNL     1       1.056   0.064  23.090  0.00  0.00    +0.010 A 
ATOM     19  C   UNL     1       1.777  -0.071  22.715  0.00  0.00    +0.058 A 
ATOM     20  C   UNL     1       2.387   0.480  22.784  0.00  0.00    +0.225 A 
ATOM     28  N   UNL     1       2.275   1.167  23.227  0.00  0.00    -0.210 NA
ATOM     29  C   UNL     1       1.552   1.302  23.602  0.00  0.00    +0.105 A 
BRANCH  20  21
ATOM     21  O   UNL     1       3.110   0.345  22.408  0.00  0.00    -0.464 OA
BRANCH  21  22
ATOM     22  C   UNL     1       3.785   0.193  22.857  0.00  0.00    +0.168 C 
ATOM     23  C   UNL     1       3.888  -0.545  23.212  0.00  0.00    +0.044 C 
ATOM     24  C   UNL     1       4.563  -0.697  23.660  0.00  0.00    +0.004 C 
ATOM     25  C   UNL     1       5.136  -0.110  23.754  0.00  0.00    +0.000 C 
ATOM     26  C   UNL     1       5.034   0.628  23.399  0.00  0.00    +0.004 C 
ATOM     27  C   UNL     1       4.358   0.780  22.950  0.00  0.00    +0.044 C 
ENDBRANCH  21  22
ENDBRANCH  20  21
ENDBRANCH  14  17
BRANCH  12  11
ATOM      7  N   UNL     1      -2.374   0.264  24.421  0.00  0.00    -0.263 NA
ATOM      8  C   UNL     1      -3.156   0.399  24.200  0.00  0.00    +0.073 C 
ATOM      9  C   UNL     1      -3.175   1.075  23.726  0.00  0.00    +0.019 C 
ATOM     10  C   UNL     1      -2.403   1.357  23.654  0.00  0.00    +0.027 C 
ATOM     11  C   UNL     1      -1.907   0.855  24.083  0.00  0.00    +0.138 C 
BRANCH   7   6
ATOM      6  C   UNL     1      -2.104  -0.354  24.895  0.00  0.00    +0.099 C 
BRANCH   6   5
ATOM      1  F   UNL     1      -3.852  -3.143  25.127  0.00  0.00    -0.204 F 
ATOM      2  C   UNL     1      -3.415  -2.446  25.069  0.00  0.00    +0.140 A 
ATOM      3  C   UNL     1      -3.549  -1.830  25.601  0.00  0.00    +0.029 A 
ATOM      4  C   UNL     1      -3.112  -1.132  25.543  0.00  0.00    -0.001 A 
ATOM      5  C   UNL     1      -2.541  -1.052  24.952  0.00  0.00    -0.006 A 
ATOM     30  C   UNL     1      -2.407  -1.668  24.421  0.00  0.00    -0.001 A 
ATOM     31  C   UNL     1      -2.844  -2.365  24.479  0.00  0.00    +0.029 A 
ENDBRANCH   6   5
ENDBRANCH   7   6
ENDBRANCH  12  11
TORSDOF 6
ENDMDL
MODEL 4
REMARK VINA RESULT:     -11.1      1.677      2.321
REMARK  Name = 
REMARK  6 active torsions:
REMARK  status: ('A' for Active; 'I' for Inactive)
REMARK    1  A    between atoms: C_5  and  C_6
REMARK    2  A    between atoms: C_6  and  N_7
REMARK    3  A    between atoms: C_11  and  C_12
REMARK    4  A    between atoms: C_14  and  C_17
REMARK    5  A    between atoms: C_20  and  O_21
REMARK    6  A    between atoms: O_21  and  C_22
REMARK                            x       y       z     vdW  Elec       q    Type
REMARK                         _______ _______ _______ _____ _____    ______ ____
ROOT
ATOM     12  C   UNL     1      -0.429   1.491  25.539  0.00  0.00    +0.251 A 
ATOM     13  N   UNL     1      -1.076   1.046  25.793  0.00  0.00    -0.190 NA
ATOM     14  C   UNL     1      -1.192   0.432  25.256  0.00  0.00    +0.205 A 
ATOM     15  N   UNL     1      -0.616   0.496  24.668  0.00  0.00    -0.056 NA
ATOM     16  O   UNL     1      -0.145   1.150  24.843  0.00  0.00    -0.336 OA
ENDROOT
BRANCH  14  17
ATOM     17  C   UNL     1      -1.780  -0.146  25.298  0.00  0.00    +0.058 A 
ATOM     18  C   UNL     1      -2.574   0.070  25.246  0.00  0.00    +0.010 A 
ATOM     19  C   UNL     1      -3.162  -0.506  25.288  0.00  0.00    +0.058 A 
ATOM     20  C   UNL     1      -2.956  -1.299  25.381  0.00  0.00    +0.225 A 
ATOM     28  N   UNL     1      -2.162  -1.516  25.432  0.00  0.00    -0.210 NA
ATOM     29  C   UNL     1      -1.574  -0.939  25.391  0.00  0.00    +0.105 A 
BRANCH  20  21
ATOM     21  O   UNL     1      -3.545  -1.876  25.422  0.00  0.00    -0.464 OA
BRANCH  21  22
ATOM     22  C   UNL     1      -3.790  -2.265  24.737  0.00  0.00    +0.168 C 
ATOM     23  C   UNL     1      -3.522  -3.029  24.578  0.00  0.00    +0.044 C 
ATOM     24  C   UNL     1      -3.767  -3.418  23.893  0.00  0.00    +0.004 C 
ATOM     25  C   UNL     1      -4.280  -3.043  23.367  0.00  0.00    +0.000 C 
ATOM     26  C   UNL     1      -4.549  -2.279  23.527  0.00  0.00    +0.004 C 
ATOM     27  C   UNL     1      -4.304  -1.890  24.211  0.00  0.00    +0.044 C 
ENDBRANCH  21  22
ENDBRANCH  20  21
ENDBRANCH  14  17
BRANCH  12  11
ATOM      7  N   UNL     1      -0.273   2.943  25.709  0.00  0.00    -0.263 NA
ATOM      8  C   UNL     1       0.149   3.426  26.227  0.00  0.00    +0.073 C 
ATOM      9  C   UNL     1       0.562   2.940  26.751  0.00  0.00    +0.019 C 
ATOM     10  C   UNL     1       0.396   2.156  26.556  0.00  0.00    +0.027 C 
ATOM     11  C   UNL     1      -0.121   2.157  25.913  0.00  0.00    +0.138 C 
BRANCH   7   6
ATOM      6  C   UNL     1      -0.761   3.198  25.097  0.00  0.00    +0.099 C 
BRANCH   6   5
ATOM      1  F   UNL     1      -1.902   6.294  25.075  0.00  0.00    -0.204 F 
ATOM      2  C   UNL     1      -1.617   5.520  25.081  0.00  0.00    +0.140 A 
ATOM      3  C   UNL     1      -2.066   4.918  25.420  0.00  0.00    +0.029 A 
ATOM      4  C   UNL     1      -1.781   4.143  25.425  0.00  0.00    -0.001 A 
ATOM      5  C   UNL     1      -1.046   3.972  25.091  0.00  0.00    -0.006 A 
ATOM     30  C   UNL     1      -0.596   4.575  24.752  0.00  0.00    -0.001 A 
ATOM     31  C   UNL     1      -0.882   5.349  24.747  0.00  0.00    +0.029 A 
ENDBRANCH   6   5
ENDBRANCH   7   6
ENDBRANCH  12  11
TORSDOF 6
ENDMDL
MODEL 5
REMARK VINA RESULT:     -11.1      1.867      5.365
REMARK  Name = 
REMARK  6 active torsions:
REMARK  status: ('A' for Active; 'I' for Inactive)
REMARK    1  A    between atoms: C_5  and  C_6
REMARK    2  A    between atoms: C_6  and  N_7
REMARK    3  A    between atoms: C_11  and  C_12
REMARK    4  A    between atoms: C_14  and  C_17
REMARK    5  A    between atoms: C_20  and  O_21
REMARK    6  A    between atoms: O_21  and  C_22
REMARK                            x       y       z     vdW  Elec       q    Type
REMARK                         _______ _______ _______ _____ _____    ______ ____
ROOT
ATOM     12  C   UNL     1      -0.517  -0.502  24.519  0.00  0.00    +0.251 A 
ATOM     13  N   UNL     1      -0.661   0.197  24.932  0.00  0.00    -0.190 NA
ATOM     14  C   UNL     1      -0.334   0.820  24.504  0.00  0.00    +0.205 A 
ATOM     15  N   UNL     1       0.014   0.507  23.824  0.00  0.00    -0.056 NA
ATOM     16  O   UNL     1      -0.099  -0.310  23.833  0.00  0.00    -0.336 OA
ENDROOT
BRANCH  14  17
ATOM     17  C   UNL     1      -0.350   1.618  24.715  0.00  0.00    +0.058 A 
ATOM     18  C   UNL     1      -0.231   1.837  25.502  0.00  0.00    +0.010 A 
ATOM     19  C   UNL     1      -0.247   2.634  25.715  0.00  0.00    +0.058 A 
ATOM     20  C   UNL     1      -0.382   3.211  25.141  0.00  0.00    +0.225 A 
ATOM     28  N   UNL     1      -0.502   2.992  24.355  0.00  0.00    -0.210 NA
ATOM     29  C   UNL     1      -0.486   2.195  24.142  0.00  0.00    +0.105 A 
BRANCH  20  21
ATOM     21  O   UNL     1      -0.398   4.008  25.354  0.00  0.00    -0.464 OA
BRANCH  21  22
ATOM     22  C   UNL     1      -1.115   4.417  25.369  0.00  0.00    +0.168 C 
ATOM     23  C   UNL     1      -1.753   4.116  25.797  0.00  0.00    +0.044 C 
ATOM     24  C   UNL     1      -2.469   4.524  25.812  0.00  0.00    +0.004 C 
ATOM     25  C   UNL     1      -2.548   5.234  25.399  0.00  0.00    +0.000 C 
ATOM     26  C   UNL     1      -1.910   5.535  24.970  0.00  0.00    +0.004 C 
ATOM     27  C   UNL     1      -1.193   5.127  24.956  0.00  0.00    +0.044 C 
ENDBRANCH  21  22
ENDBRANCH  20  21
ENDBRANCH  14  17
BRANCH  12  11
ATOM      7  N   UNL     1      -1.524  -1.525  24.833  0.00  0.00    -0.263 NA
ATOM      8  C   UNL     1      -1.499  -2.314  25.072  0.00  0.00    +0.073 C 
ATOM      9  C   UNL     1      -0.706  -2.536  25.135  0.00  0.00    +0.019 C 
ATOM     10  C   UNL     1      -0.242  -1.884  24.936  0.00  0.00    +0.027 C 
ATOM     11  C   UNL     1      -0.748  -1.259  24.749  0.00  0.00    +0.138 C 
BRANCH   7   6
ATOM      6  C   UNL     1      -2.206  -1.081  24.701  0.00  0.00    +0.099 C 
BRANCH   6   5
ATOM      1  F   UNL     1      -5.013  -2.578  23.830  0.00  0.00    -0.204 F 
ATOM      2  C   UNL     1      -4.312  -2.204  24.048  0.00  0.00    +0.140 A 
ATOM      3  C   UNL     1      -3.952  -1.670  23.532  0.00  0.00    +0.029 A 
ATOM      4  C   UNL     1      -3.250  -1.295  23.750  0.00  0.00    -0.001 A 
ATOM      5  C   UNL     1      -2.908  -1.456  24.484  0.00  0.00    -0.006 A 
ATOM     30  C   UNL     1      -3.268  -1.990  24.999  0.00  0.00    -0.001 A 
ATOM     31  C   UNL     1      -3.970  -2.364  24.781  0.00  0.00    +0.029 A 
ENDBRANCH   6   5
ENDBRANCH   7   6
ENDBRANCH  12  11
TORSDOF 6
ENDMDL
MODEL 6
REMARK VINA RESULT:     -10.9      2.907      4.354
REMARK  Name = 
REMARK  6 active torsions:
REMARK  status: ('A' for Active; 'I' for Inactive)
REMARK    1  A    between atoms: C_5  and  C_6
REMARK    2  A    between atoms: C_6  and  N_7
REMARK    3  A    between atoms: C_11  and  C_12
REMARK    4  A    between atoms: C_14  and  C_17
REMARK    5  A    between atoms: C_20  and  O_21
REMARK    6  A    between atoms: O_21  and  C_22
REMARK                            x       y       z     vdW  Elec       q    Type
REMARK                         _______ _______ _______ _____ _____    ______ ____
ROOT
ATOM     12  C   UNL     1      -1.256   0.993  24.223  0.00  0.00    +0.251 A 
ATOM     13  N   UNL     1      -0.638   1.085  23.684  0.00  0.00    -0.190 NA
ATOM     14  C   UNL     1      -0.045   0.547  23.881  0.00  0.00    +0.205 A 
ATOM     15  N   UNL     1      -0.296   0.121  24.542  0.00  0.00    -0.056 NA
ATOM     16  O   UNL     1      -1.045   0.397  24.753  0.00  0.00    -0.336 OA
ENDROOT
BRANCH  14  17
ATOM     17  C   UNL     1       0.673   0.449  23.487  0.00  0.00    +0.058 A 
ATOM     18  C   UNL     1       0.808  -0.229  23.037  0.00  0.00    +0.010 A 
ATOM     19  C   UNL     1       1.526  -0.327  22.643  0.00  0.00    +0.058 A 
ATOM     20  C   UNL     1       2.109   0.253  22.698  0.00  0.00    +0.225 A 
ATOM     28  N   UNL     1       1.975   0.932  23.148  0.00  0.00    -0.210 NA
ATOM     29  C   UNL     1       1.257   1.030  23.542  0.00  0.00    +0.105 A 
BRANCH  20  21
ATOM     21  O   UNL     1       2.828   0.155  22.304  0.00  0.00    -0.464 OA
BRANCH  21  22
ATOM     22  C   UNL     1       3.533   0.138  22.731  0.00  0.00    +0.168 C 
ATOM     23  C   UNL     1       4.013   0.809  22.762  0.00  0.00    +0.044 C 
ATOM     24  C   UNL     1       4.719   0.791  23.189  0.00  0.00    +0.004 C 
ATOM     25  C   UNL     1       4.945   0.103  23.584  0.00  0.00    +0.000 C 
ATOM     26  C   UNL     1       4.465  -0.568  23.553  0.00  0.00    +0.004 C 
ATOM     27  C   UNL     1       3.759  -0.550  23.126  0.00  0.00    +0.044 C 
ENDBRANCH  21  22
ENDBRANCH  20  21
ENDBRANCH  14  17
BRANCH  12  11
ATOM      7  N   UNL     1      -2.104   2.113  24.656  0.00  0.00    -0.263 NA
ATOM      8  C   UNL     1      -2.878   2.351  24.503  0.00  0.00    +0.073 C 
ATOM      9  C   UNL     1      -3.215   1.805  23.983  0.00  0.00    +0.019 C 
ATOM     10  C   UNL     1      -2.647   1.230  23.815  0.00  0.00    +0.027 C 
ATOM     11  C   UNL     1      -1.960   1.420  24.231  0.00  0.00    +0.138 C 
BRANCH   7   6
ATOM      6  C   UNL     1      -1.567   2.499  25.148  0.00  0.00    +0.099 C 
BRANCH   6   5
ATOM      1  F   UNL     1      -1.610   5.790  25.378  0.00  0.00    -0.204 F 
ATOM      2  C   UNL     1      -1.599   4.968  25.320  0.00  0.00    +0.140 A 
ATOM      3  C   UNL     1      -2.158   4.519  25.727  0.00  0.00    +0.029 A 
ATOM      4  C   UNL     1      -2.148   3.696  25.670  0.00  0.00    -0.001 A 
ATOM      5  C   UNL     1      -1.577   3.322  25.205  0.00  0.00    -0.006 A 
ATOM     30  C   UNL     1      -1.017   3.772  24.798  0.00  0.00    -0.001 A 
ATOM     31  C   UNL     1      -1.029   4.595  24.856  0.00  0.00    +0.029 A 
ENDBRANCH   6   5
ENDBRANCH   7   6
ENDBRANCH  12  11
TORSDOF 6
ENDMDL
MODEL 7
REMARK VINA RESULT:     -10.9      2.079      5.033
REMARK  Name = 
REMARK  6 active torsions:
REMARK  status: ('A' for Active; 'I' for Inactive)
REMARK    1  A    between atoms: C_5  and  C_6
REMARK    2  A    between atoms: C_6  and  N_7
REMARK    3  A    between atoms: C_11  and  C_12
REMARK    4  A    between atoms: C_14  and  C_17
REMARK    5  A    between atoms: C_20  and  O_21
REMARK    6  A    between atoms: O_21  and  C_22
REMARK                            x       y       z     vdW  Elec       q    Type
REMARK                         _______ _______ _______ _____ _____    ______ ____
ROOT
ATOM     12  C   UNL     1      -0.442   1.412  24.022  0.00  0.00    +0.251 A 
ATOM     13  N   UNL     1      -1.263   1.490  24.041  0.00  0.00    -0.190 NA
ATOM     14  C   UNL     1      -1.443   2.244  24.320  0.00  0.00    +0.205 A 
ATOM     15  N   UNL     1      -0.732   2.634  24.474  0.00  0.00    -0.056 NA
ATOM     16  O   UNL     1      -0.114   2.120  24.290  0.00  0.00    -0.336 OA
ENDROOT
BRANCH  14  17
ATOM     17  C   UNL     1      -2.199   2.556  24.426  0.00  0.00    +0.058 A 
ATOM     18  C   UNL     1      -2.740   2.548  23.803  0.00  0.00    +0.010 A 
ATOM     19  C   UNL     1      -3.496   2.859  23.908  0.00  0.00    +0.058 A 
ATOM     20  C   UNL     1      -3.713   3.178  24.637  0.00  0.00    +0.225 A 
ATOM     28  N   UNL     1      -3.173   3.187  25.261  0.00  0.00    -0.210 NA
ATOM     29  C   UNL     1      -2.416   2.875  25.155  0.00  0.00    +0.105 A 
BRANCH  20  21
ATOM     21  O   UNL     1      -4.470   3.490  24.743  0.00  0.00    -0.464 OA
BRANCH  21  22
ATOM     22  C   UNL     1      -5.063   3.027  25.081  0.00  0.00    +0.168 C 
ATOM     23  C   UNL     1      -5.431   2.438  24.635  0.00  0.00    +0.044 C 
ATOM     24  C   UNL     1      -6.024   1.975  24.973  0.00  0.00    +0.004 C 
ATOM     25  C   UNL     1      -6.249   2.100  25.757  0.00  0.00    +0.000 C 
ATOM     26  C   UNL     1      -5.880   2.689  26.203  0.00  0.00    +0.004 C 
ATOM     27  C   UNL     1      -5.287   3.152  25.865  0.00  0.00    +0.044 C 
ENDBRANCH  21  22
ENDBRANCH  20  21
ENDBRANCH  14  17
BRANCH  12  11
ATOM      7  N   UNL     1      -0.086  -0.012  24.100  0.00  0.00    -0.263 NA
ATOM      8  C   UNL     1       0.432  -0.506  23.690  0.00  0.00    +0.073 C 
ATOM      9  C   UNL     1       0.816  -0.054  23.116  0.00  0.00    +0.019 C 
ATOM     10  C   UNL     1       0.535   0.720  23.171  0.00  0.00    +0.027 C 
ATOM     11  C   UNL     1      -0.023   0.746  23.779  0.00  0.00    +0.138 C 
BRANCH   7   6
ATOM      6  C   UNL     1      -0.580  -0.236  24.720  0.00  0.00    +0.099 C 
BRANCH   6   5
ATOM      1  F   UNL     1      -1.781  -3.306  24.852  0.00  0.00    -0.204 F 
ATOM      2  C   UNL     1      -1.481  -2.539  24.819  0.00  0.00    +0.140 A 
ATOM      3  C   UNL     1      -0.782  -2.352  25.215  0.00  0.00    +0.029 A 
ATOM      4  C   UNL     1      -0.481  -1.584  25.182  0.00  0.00    -0.001 A 
ATOM      5  C   UNL     1      -0.881  -1.003  24.753  0.00  0.00    -0.006 A 
ATOM     30  C   UNL     1      -1.580  -1.190  24.356  0.00  0.00    -0.001 A 
ATOM     31  C   UNL     1      -1.879  -1.958  24.390  0.00  0.00    +0.029 A 
ENDBRANCH   6   5
ENDBRANCH   7   6
ENDBRANCH  12  11
TORSDOF 6
ENDMDL
MODEL 8
REMARK VINA RESULT:     -10.7      2.343      5.945
REMARK  Name = 
REMARK  6 active torsions:
REMARK  status: ('A' for Active; 'I' for Inactive)
REMARK    1  A    between atoms: C_5  and  C_6
REMARK    2  A    between atoms: C_6  and  N_7
REMARK    3  A    between atoms: C_11  and  C_12
REMARK    4  A    between atoms: C_14  and  C_17
REMARK    5  A    between atoms: C_20  and  O_21
REMARK    6  A    between atoms: O_21  and  C_22
REMARK                            x       y       z     vdW  Elec       q    Type
REMARK                         _______ _______ _______ _____ _____    ______ ____
ROOT
ATOM     12  C   UNL     1      -4.249  -0.253  24.565  0.00  0.00    +0.251 A 
ATOM     13  N   UNL     1      -3.797   0.416  24.394  0.00  0.00    -0.190 NA
ATOM     14  C   UNL     1      -4.196   1.076  24.684  0.00  0.00    +0.205 A 
ATOM     15  N   UNL     1      -4.896   0.817  25.035  0.00  0.00    -0.056 NA
ATOM     16  O   UNL     1      -4.929  -0.005  24.962  0.00  0.00    -0.336 OA
ENDROOT
BRANCH  14  17
ATOM     17  C   UNL     1      -3.941   1.859  24.632  0.00  0.00    +0.058 A 
ATOM     18  C   UNL     1      -3.757   2.185  23.897  0.00  0.00    +0.010 A 
ATOM     19  C   UNL     1      -3.502   2.967  23.844  0.00  0.00    +0.058 A 
ATOM     20  C   UNL     1      -3.432   3.425  24.527  0.00  0.00    +0.225 A 
ATOM     28  N   UNL     1      -3.616   3.100  25.262  0.00  0.00    -0.210 NA
ATOM     29  C   UNL     1      -3.871   2.317  25.315  0.00  0.00    +0.105 A 
BRANCH  20  21
ATOM     21  O   UNL     1      -3.177   4.208  24.474  0.00  0.00    -0.464 OA
BRANCH  21  22
ATOM     22  C   UNL     1      -2.398   4.402  24.662  0.00  0.00    +0.168 C 
ATOM     23  C   UNL     1      -1.774   4.035  24.264  0.00  0.00    +0.044 C 
ATOM     24  C   UNL     1      -0.995   4.229  24.451  0.00  0.00    +0.004 C 
ATOM     25  C   UNL     1      -0.838   4.789  25.036  0.00  0.00    +0.000 C 
ATOM     26  C   UNL     1      -1.462   5.156  25.434  0.00  0.00    +0.004 C 
ATOM     27  C   UNL     1      -2.241   4.962  25.247  0.00  0.00    +0.044 C 
ENDBRANCH  21  22
ENDBRANCH  20  21
ENDBRANCH  14  17
BRANCH  12  11
ATOM      7  N   UNL     1      -3.451  -1.479  24.713  0.00  0.00    -0.263 NA
ATOM      8  C   UNL     1      -3.457  -2.224  24.359  0.00  0.00    +0.073 C 
ATOM      9  C   UNL     1      -4.066  -2.237  23.803  0.00  0.00    +0.019 C 
ATOM     10  C   UNL     1      -4.437  -1.500  23.813  0.00  0.00    +0.027 C 
ATOM     11  C   UNL     1      -4.056  -1.031  24.375  0.00  0.00    +0.138 C 
BRANCH   7   6
ATOM      6  C   UNL     1      -2.931  -1.225  25.300  0.00  0.00    +0.099 C 
BRANCH   6   5
ATOM      1  F   UNL     1       0.272  -1.996  25.117  0.00  0.00    -0.204 F 
ATOM      2  C   UNL     1      -0.529  -1.803  25.163  0.00  0.00    +0.140 A 
ATOM      3  C   UNL     1      -1.086  -2.391  25.318  0.00  0.00    +0.029 A 
ATOM      4  C   UNL     1      -1.887  -2.199  25.364  0.00  0.00    -0.001 A 
ATOM      5  C   UNL     1      -2.130  -1.417  25.254  0.00  0.00    -0.006 A 
ATOM     30  C   UNL     1      -1.573  -0.829  25.099  0.00  0.00    -0.001 A 
ATOM     31  C   UNL     1      -0.772  -1.023  25.053  0.00  0.00    +0.029 A 
ENDBRANCH   6   5
ENDBRANCH   7   6
ENDBRANCH  12  11
TORSDOF 6
ENDMDL
MODEL 9
REMARK VINA RESULT:     -10.7      2.664      3.813
REMARK  Name = 
REMARK  6 active torsions:
REMARK  status: ('A' for Active; 'I' for Inactive)
REMARK    1  A    between atoms: C_5  and  C_6
REMARK    2  A    between atoms: C_6  and  N_7
REMARK    3  A    between atoms: C_11  and  C_12
REMARK    4  A    between atoms: C_14  and  C_17
REMARK    5  A    between atoms: C_20  and  O_21
REMARK    6  A    between atoms: O_21  and  C_22
REMARK                            x       y       z     vdW  Elec       q    Type
REMARK                         _______ _______ _______ _____ _____    ______ ____
ROOT
ATOM     12  C   UNL     1      -1.190   1.788  25.067  0.00  0.00    +0.251 A 
ATOM     13  N   UNL     1      -0.616   1.799  24.475  0.00  0.00    -0.190 NA
ATOM     14  C   UNL     1      -0.244   1.065  24.464  0.00  0.00    +0.205 A 
ATOM     15  N   UNL     1      -0.587   0.597  25.052  0.00  0.00    -0.056 NA
ATOM     16  O   UNL     1      -1.172   1.044  25.424  0.00  0.00    -0.336 OA
ENDROOT
BRANCH  14  17
ATOM     17  C   UNL     1       0.366   0.835  23.957  0.00  0.00    +0.058 A 
ATOM     18  C   UNL     1       0.360   0.082  23.621  0.00  0.00    +0.010 A 
ATOM     19  C   UNL     1       0.968  -0.148  23.114  0.00  0.00    +0.058 A 
ATOM     20  C   UNL     1       1.582   0.375  22.943  0.00  0.00    +0.225 A 
ATOM     28  N   UNL     1       1.589   1.129  23.279  0.00  0.00    -0.210 NA
ATOM     29  C   UNL     1       0.980   1.359  23.786  0.00  0.00    +0.105 A 
BRANCH  20  21
ATOM     21  O   UNL     1       2.191   0.145  22.435  0.00  0.00    -0.464 OA
BRANCH  21  22
ATOM     22  C   UNL     1       2.975   0.178  22.690  0.00  0.00    +0.168 C 
ATOM     23  C   UNL     1       3.305  -0.462  23.093  0.00  0.00    +0.044 C 
ATOM     24  C   UNL     1       4.089  -0.430  23.348  0.00  0.00    +0.004 C 
ATOM     25  C   UNL     1       4.543   0.243  23.200  0.00  0.00    +0.000 C 
ATOM     26  C   UNL     1       4.213   0.883  22.797  0.00  0.00    +0.004 C 
ATOM     27  C   UNL     1       3.429   0.851  22.542  0.00  0.00    +0.044 C 
ENDBRANCH  21  22
ENDBRANCH  20  21
ENDBRANCH  14  17
BRANCH  12  11
ATOM      7  N   UNL     1      -2.497   2.462  25.085  0.00  0.00    -0.263 NA
ATOM      8  C   UNL     1      -2.781   3.172  25.393  0.00  0.00    +0.073 C 
ATOM      9  C   UNL     1      -2.155   3.558  25.766  0.00  0.00    +0.019 C 
ATOM     10  C   UNL     1      -1.482   3.086  25.689  0.00  0.00    +0.027 C 
ATOM     11  C   UNL     1      -1.693   2.408  25.269  0.00  0.00    +0.138 C 
BRANCH   7   6
ATOM      6  C   UNL     1      -2.936   1.903  24.669  0.00  0.00    +0.099 C 
BRANCH   6   5
ATOM      1  F   UNL     1      -6.232   1.965  24.798  0.00  0.00    -0.204 F 
ATOM      2  C   UNL     1      -5.409   1.949  24.766  0.00  0.00    +0.140 A 
ATOM      3  C   UNL     1      -5.006   2.465  24.263  0.00  0.00    +0.029 A 
ATOM      4  C   UNL     1      -4.182   2.450  24.230  0.00  0.00    -0.001 A 
ATOM      5  C   UNL     1      -3.760   1.918  24.701  0.00  0.00    -0.006 A 
ATOM     30  C   UNL     1      -4.163   1.403  25.204  0.00  0.00    -0.001 A 
ATOM     31  C   UNL     1      -4.988   1.419  25.236  0.00  0.00    +0.029 A 
ENDBRANCH   6   5
ENDBRANCH   7   6
ENDBRANCH  12  11
TORSDOF 6
ENDMDL
