MODEL 1
REMARK VINA RESULT:     -12.8      0.000      0.000
REMARK  Name = 
REMARK  3 active torsions:
REMARK  status: ('A' for Active; 'I' for Inactive)
REMARK    1  A    between atoms: C_4  and  C_5
REMARK    2  A    between atoms: C_5  and  N_6
REMARK    3  A    between atoms: C_9  and  C_11
REMARK                            x       y       z     vdW  Elec       q    Type
REMARK                         _______ _______ _______ _____ _____    ______ ____
ROOT
ATOM      6  N   UNL     1      -4.244   2.227  24.594  0.00  0.00    -0.268 NA
ATOM      7  C   UNL     1      -4.964   2.063  24.962  0.00  0.00    +0.073 C 
ATOM      8  C   UNL     1      -5.026   1.244  25.047  0.00  0.00    +0.028 C 
ATOM      9  C   UNL     1      -4.345   0.902  24.731  0.00  0.00    +0.094 C 
ATOM     10  C   UNL     1      -3.862   1.509  24.451  0.00  0.00    +0.082 C 
ENDROOT
BRANCH   9  11
ATOM     11  C   UNL     1      -4.177   0.095  24.700  0.00  0.00    +0.207 A 
ATOM     12  N   UNL     1      -3.765  -0.336  25.269  0.00  0.00    -0.212 NA
ATOM     13  C   UNL     1      -3.725  -1.120  25.016  0.00  0.00    +0.119 A 
ATOM     14  C   UNL     1      -4.112  -1.173  24.289  0.00  0.00    +0.164 A 
ATOM     15  O   UNL     1      -4.391  -0.422  24.094  0.00  0.00    -0.438 OA
ATOM     16  C   UNL     1      -4.160  -1.899  23.900  0.00  0.00    +0.039 A 
ATOM     17  C   UNL     1      -3.821  -2.571  24.236  0.00  0.00    +0.003 A 
ATOM     18  C   UNL     1      -3.434  -2.518  24.963  0.00  0.00    +0.002 A 
ATOM     19  C   UNL     1      -3.385  -1.793  25.353  0.00  0.00    +0.022 A 
ENDBRANCH   9  11
BRANCH   6   5
ATOM      5  C   UNL     1      -3.957   2.976  24.402  0.00  0.00    +0.099 C 
BRANCH   5   4
ATOM      1 CL   UNL     1      -1.334   3.844  25.133  0.00  0.00    -0.082 Cl
ATOM      2  C   UNL     1      -2.144   3.806  25.289  0.00  0.00    +0.057 A 
ATOM      3  C   UNL     1      -2.645   3.410  24.767  0.00  0.00    +0.008 A 
ATOM      4  C   UNL     1      -3.455   3.372  24.923  0.00  0.00    -0.005 A 
ATOM     20  C   UNL     1      -3.762   3.729  25.600  0.00  0.00    -0.003 A 
ATOM     21  C   UNL     1      -3.260   4.125  26.122  0.00  0.00    +0.001 A 
ATOM     22  C   UNL     1      -2.451   4.163  25.966  0.00  0.00    +0.011 A 
ENDBRANCH   5   4
ENDBRANCH   6   5
TORSDOF 3
ENDMDL
MODEL 2
REMARK VINA RESULT:     -12.3      1.993      4.943
REMARK  Name = 
REMARK  3 active torsions:
REMARK  status: ('A' for Active; 'I' for Inactive)
REMARK    1  A    between atoms: C_4  and  C_5
REMARK    2  A    between atoms: C_5  and  N_6
REMARK    3  A    between atoms: C_9  and  C_11
REMARK                            x       y       z     vdW  Elec       q    Type
REMARK                         _______ _______ _______ _____ _____    ______ ____
ROOT
ATOM      6  N   UNL     1      -3.799   0.744  24.357  0.00  0.00    -0.268 NA
ATOM      7  C   UNL     1      -3.501   0.793  23.589  0.00  0.00    +0.073 C 
ATOM      8  C   UNL     1      -3.010   1.455  23.548  0.00  0.00    +0.028 C 
ATOM      9  C   UNL     1      -3.005   1.815  24.291  0.00  0.00    +0.094 C 
ATOM     10  C   UNL     1      -3.493   1.376  24.790  0.00  0.00    +0.082 C 
ENDROOT
BRANCH   9  11
ATOM     11  C   UNL     1      -2.586   2.495  24.497  0.00  0.00    +0.207 A 
ATOM     12  N   UNL     1      -1.771   2.601  24.431  0.00  0.00    -0.212 NA
ATOM     13  C   UNL     1      -1.590   3.359  24.698  0.00  0.00    +0.119 A 
ATOM     14  C   UNL     1      -2.293   3.723  24.930  0.00  0.00    +0.164 A 
ATOM     15  O   UNL     1      -2.909   3.189  24.806  0.00  0.00    -0.438 OA
ATOM     16  C   UNL     1      -2.281   4.494  25.224  0.00  0.00    +0.039 A 
ATOM     17  C   UNL     1      -1.567   4.901  25.287  0.00  0.00    +0.003 A 
ATOM     18  C   UNL     1      -0.863   4.537  25.055  0.00  0.00    +0.002 A 
ATOM     19  C   UNL     1      -0.874   3.767  24.761  0.00  0.00    +0.022 A 
ENDBRANCH   9  11
BRANCH   6   5
ATOM      5  C   UNL     1      -4.314   0.165  24.641  0.00  0.00    +0.099 C 
BRANCH   5   4
ATOM      1 CL   UNL     1      -3.996  -2.561  23.843  0.00  0.00    -0.082 Cl
ATOM      2  C   UNL     1      -3.876  -1.959  24.395  0.00  0.00    +0.057 A 
ATOM      3  C   UNL     1      -4.155  -1.198  24.242  0.00  0.00    +0.008 A 
ATOM      4  C   UNL     1      -4.035  -0.596  24.795  0.00  0.00    -0.005 A 
ATOM     20  C   UNL     1      -3.636  -0.755  25.499  0.00  0.00    -0.003 A 
ATOM     21  C   UNL     1      -3.357  -1.517  25.651  0.00  0.00    +0.001 A 
ATOM     22  C   UNL     1      -3.477  -2.118  25.099  0.00  0.00    +0.011 A 
ENDBRANCH   5   4
ENDBRANCH   6   5
TORSDOF 3
ENDMDL
MODEL 3
REMARK VINA RESULT:     -11.6      1.758      2.321
REMARK  Name = 
REMARK  3 active torsions:
REMARK  status: ('A' for Active; 'I' for Inactive)
REMARK    1  A    between atoms: C_4  and  C_5
REMARK    2  A    between atoms: C_5  and  N_6
REMARK    3  A    between atoms: C_9  and  C_11
REMARK                            x       y       z     vdW  Elec       q    Type
REMARK                         _______ _______ _______ _____ _____    ______ ____
ROOT
ATOM      6  N   UNL     1      -0.998   1.719  25.276  0.00  0.00    -0.268 NA
ATOM      7  C   UNL     1      -0.594   1.496  24.592  0.00  0.00    +0.073 C 
ATOM      8  C   UNL     1      -0.975   0.835  24.275  0.00  0.00    +0.028 C 
ATOM      9  C   UNL     1      -1.613   0.651  24.764  0.00  0.00    +0.094 C 
ATOM     10  C   UNL     1      -1.628   1.197  25.382  0.00  0.00    +0.082 C 
ENDROOT
BRANCH   9  11
ATOM     11  C   UNL     1      -2.144   0.029  24.654  0.00  0.00    +0.207 A 
ATOM     12  N   UNL     1      -2.019  -0.759  24.864  0.00  0.00    -0.212 NA
ATOM     13  C   UNL     1      -2.691  -1.189  24.654  0.00  0.00    +0.119 A 
ATOM     14  C   UNL     1      -3.232  -0.667  24.315  0.00  0.00    +0.164 A 
ATOM     15  O   UNL     1      -2.894   0.086  24.315  0.00  0.00    -0.438 OA
ATOM     16  C   UNL     1      -3.962  -0.945  24.050  0.00  0.00    +0.039 A 
ATOM     17  C   UNL     1      -4.151  -1.744  24.124  0.00  0.00    +0.003 A 
ATOM     18  C   UNL     1      -3.610  -2.266  24.463  0.00  0.00    +0.002 A 
ATOM     19  C   UNL     1      -2.880  -1.989  24.729  0.00  0.00    +0.022 A 
ENDBRANCH   9  11
BRANCH   6   5
ATOM      5  C   UNL     1      -0.806   2.353  25.767  0.00  0.00    +0.099 C 
BRANCH   5   4
ATOM      1 CL   UNL     1      -2.840   4.343  26.032  0.00  0.00    -0.082 Cl
ATOM      2  C   UNL     1      -2.110   4.103  25.730  0.00  0.00    +0.057 A 
ATOM      3  C   UNL     1      -1.823   3.348  25.899  0.00  0.00    +0.008 A 
ATOM      4  C   UNL     1      -1.093   3.108  25.598  0.00  0.00    -0.005 A 
ATOM     20  C   UNL     1      -0.651   3.622  25.129  0.00  0.00    -0.003 A 
ATOM     21  C   UNL     1      -0.939   4.377  24.960  0.00  0.00    +0.001 A 
ATOM     22  C   UNL     1      -1.668   4.617  25.261  0.00  0.00    +0.011 A 
ENDBRANCH   5   4
ENDBRANCH   6   5
TORSDOF 3
ENDMDL
