MODEL 1
REMARK VINA RESULT:     -10.9      0.000      0.000
REMARK  Name = 
REMARK  8 active torsions:
REMARK  status: ('A' for Active; 'I' for Inactive)
REMARK    1  A    between atoms: N_2  and  C_3
REMARK    2  A    between atoms: N_2  and  C_11
REMARK    3  A    between atoms: C_3  and  C_4
REMARK    4  A    between atoms: C_4  and  C_5
REMARK    5  A    between atoms: C_12  and  C_13
REMARK    6  A    between atoms: C_13  and  N_14
REMARK    7  A    between atoms: N_17  and  C_18
REMARK    8  A    between atoms: C_27  and  C_28
REMARK                            x       y       z     vdW  Elec       q    Type
REMARK                         _______ _______ _______ _____ _____    ______ ____
ROOT
ATOM     11  C   UNL     1      -3.943   2.884  24.720  0.00  0.00    +0.120 C 
ATOM     12  C   UNL     1      -4.331   2.162  24.805  0.00  0.00    +0.154 C 
ATOM     26  O   UNL     1      -5.051   2.302  25.185  0.00  0.00    -0.350 OA
ATOM     27  C   UNL     1      -5.107   3.112  25.334  0.00  0.00    +0.180 C 
ATOM     30  C   UNL     1      -4.422   3.472  25.046  0.00  0.00    +0.198 C 
ATOM     31  O   UNL     1      -4.248   4.278  25.079  0.00  0.00    -0.219 OA
ENDROOT
BRANCH  11   2
ATOM      1  C   UNL     1      -3.154   3.187  23.567  0.00  0.00    +0.090 C 
ATOM      2  N   UNL     1      -3.206   3.000  24.369  0.00  0.00    -0.268 NA
BRANCH   2   3
ATOM      3  C   UNL     1      -2.518   2.928  24.821  0.00  0.00    +0.079 C 
BRANCH   3   4
ATOM      4  C   UNL     1      -1.782   3.069  24.477  0.00  0.00    +0.063 C 
BRANCH   4   5
ATOM      5  C   UNL     1      -1.093   2.834  24.864  0.00  0.00    +0.060 A 
ATOM      6  N   UNL     1      -0.620   2.241  24.540  0.00  0.00    -0.248 NA
ATOM      7  C   UNL     1       0.069   2.006  24.928  0.00  0.00    +0.098 A 
ATOM      8  C   UNL     1       0.285   2.363  25.640  0.00  0.00    +0.021 A 
ATOM      9  C   UNL     1      -0.189   2.955  25.963  0.00  0.00    +0.003 A 
ATOM     10  C   UNL     1      -0.878   3.191  25.576  0.00  0.00    +0.015 A 
ENDBRANCH   4   5
ENDBRANCH   3   4
ENDBRANCH   2   3
ENDBRANCH  11   2
BRANCH  27  28
ATOM     28  C   UNL     1      -5.737   3.494  25.705  0.00  0.00    +0.214 C 
ATOM     29  O   UNL     1      -6.153   3.111  26.306  0.00  0.00    -0.218 OA
ENDBRANCH  27  28
BRANCH  12  13
ATOM     13  C   UNL     1      -4.050   1.427  24.556  0.00  0.00    +0.148 C 
BRANCH  13  14
ATOM     14  N   UNL     1      -4.244   0.746  24.979  0.00  0.00    -0.184 NA
ATOM     15  C   UNL     1      -4.029   0.005  24.687  0.00  0.00    +0.344 C 
ATOM     16  O   UNL     1      -3.621  -0.055  23.974  0.00  0.00    -0.249 OA
ATOM     17  N   UNL     1      -4.223  -0.677  25.110  0.00  0.00    -0.159 NA
BRANCH  17  18
ATOM     18  C   UNL     1      -4.008  -1.418  24.818  0.00  0.00    +0.102 A 
ATOM     19  C   UNL     1      -4.232  -1.641  24.056  0.00  0.00    +0.021 A 
ATOM     20  C   UNL     1      -4.017  -2.382  23.764  0.00  0.00    +0.031 A 
ATOM     21  C   UNL     1      -3.580  -2.899  24.233  0.00  0.00    +0.142 A 
ATOM     22  F   UNL     1      -3.365  -3.641  23.940  0.00  0.00    -0.204 F 
ATOM     23  C   UNL     1      -3.356  -2.676  24.995  0.00  0.00    +0.061 A 
ATOM     24  C   UNL     1      -3.571  -1.935  25.288  0.00  0.00    +0.158 A 
ATOM     25  F   UNL     1      -3.347  -1.712  26.050  0.00  0.00    -0.203 F 
ENDBRANCH  17  18
ENDBRANCH  13  14
ENDBRANCH  12  13
TORSDOF 8
ENDMDL
MODEL 2
REMARK VINA RESULT:     -10.7      1.742      3.384
REMARK  Name = 
REMARK  8 active torsions:
REMARK  status: ('A' for Active; 'I' for Inactive)
REMARK    1  A    between atoms: N_2  and  C_3
REMARK    2  A    between atoms: N_2  and  C_11
REMARK    3  A    between atoms: C_3  and  C_4
REMARK    4  A    between atoms: C_4  and  C_5
REMARK    5  A    between atoms: C_12  and  C_13
REMARK    6  A    between atoms: C_13  and  N_14
REMARK    7  A    between atoms: N_17  and  C_18
REMARK    8  A    between atoms: C_27  and  C_28
REMARK                            x       y       z     vdW  Elec       q    Type
REMARK                         _______ _______ _______ _____ _____    ______ ____
ROOT
ATOM     11  C   UNL     1      -1.594   2.639  24.984  0.00  0.00    +0.120 C 
ATOM     12  C   UNL     1      -1.363   1.854  25.080  0.00  0.00    +0.154 C 
ATOM     26  O   UNL     1      -0.670   1.844  25.528  0.00  0.00    -0.350 OA
ATOM     27  C   UNL     1      -0.473   2.625  25.708  0.00  0.00    +0.180 C 
ATOM     30  C   UNL     1      -1.043   3.116  25.372  0.00  0.00    +0.198 C 
ATOM     31  O   UNL     1      -1.061   3.940  25.417  0.00  0.00    -0.219 OA
ENDROOT
BRANCH  11   2
ATOM      1  C   UNL     1      -2.200   3.090  23.770  0.00  0.00    +0.090 C 
ATOM      2  N   UNL     1      -2.258   2.903  24.572  0.00  0.00    -0.268 NA
BRANCH   2   3
ATOM      3  C   UNL     1      -2.982   2.980  24.962  0.00  0.00    +0.079 C 
BRANCH   3   4
ATOM      4  C   UNL     1      -3.659   3.186  24.537  0.00  0.00    +0.063 C 
BRANCH   4   5
ATOM      5  C   UNL     1      -4.402   3.117  24.887  0.00  0.00    +0.060 A 
ATOM      6  N   UNL     1      -4.654   3.682  25.433  0.00  0.00    -0.248 NA
ATOM      7  C   UNL     1      -5.398   3.612  25.783  0.00  0.00    +0.098 A 
ATOM      8  C   UNL     1      -5.889   2.979  25.588  0.00  0.00    +0.021 A 
ATOM      9  C   UNL     1      -5.636   2.415  25.043  0.00  0.00    +0.003 A 
ATOM     10  C   UNL     1      -4.892   2.483  24.692  0.00  0.00    +0.015 A 
ENDBRANCH   4   5
ENDBRANCH   3   4
ENDBRANCH   2   3
ENDBRANCH  11   2
BRANCH  27  28
ATOM     28  C   UNL     1       0.181   2.869  26.148  0.00  0.00    +0.214 C 
ATOM     29  O   UNL     1       0.560   2.337  26.653  0.00  0.00    -0.218 OA
ENDBRANCH  27  28
BRANCH  12  13
ATOM     13  C   UNL     1      -1.757   1.192  24.781  0.00  0.00    +0.148 C 
BRANCH  13  14
ATOM     14  N   UNL     1      -1.617   0.447  25.106  0.00  0.00    -0.184 NA
ATOM     15  C   UNL     1      -2.086  -0.193  24.884  0.00  0.00    +0.344 C 
ATOM     16  O   UNL     1      -2.694  -0.090  24.338  0.00  0.00    -0.249 OA
ATOM     17  N   UNL     1      -1.947  -0.939  25.210  0.00  0.00    -0.159 NA
BRANCH  17  18
ATOM     18  C   UNL     1      -2.416  -1.580  24.988  0.00  0.00    +0.102 A 
ATOM     19  C   UNL     1      -3.235  -1.546  25.092  0.00  0.00    +0.021 A 
ATOM     20  C   UNL     1      -3.705  -2.187  24.870  0.00  0.00    +0.031 A 
ATOM     21  C   UNL     1      -3.357  -2.860  24.545  0.00  0.00    +0.142 A 
ATOM     22  F   UNL     1      -3.828  -3.501  24.323  0.00  0.00    -0.204 F 
ATOM     23  C   UNL     1      -2.540  -2.894  24.442  0.00  0.00    +0.061 A 
ATOM     24  C   UNL     1      -2.069  -2.253  24.664  0.00  0.00    +0.158 A 
ATOM     25  F   UNL     1      -1.251  -2.287  24.561  0.00  0.00    -0.203 F 
ENDBRANCH  17  18
ENDBRANCH  13  14
ENDBRANCH  12  13
TORSDOF 8
ENDMDL
MODEL 3
REMARK VINA RESULT:     -10.1      2.459      5.539
REMARK  Name = 
REMARK  8 active torsions:
REMARK  status: ('A' for Active; 'I' for Inactive)
REMARK    1  A    between atoms: N_2  and  C_3
REMARK    2  A    between atoms: N_2  and  C_11
REMARK    3  A    between atoms: C_3  and  C_4
REMARK    4  A    between atoms: C_4  and  C_5
REMARK    5  A    between atoms: C_12  and  C_13
REMARK    6  A    between atoms: C_13  and  N_14
REMARK    7  A    between atoms: N_17  and  C_18
REMARK    8  A    between atoms: C_27  and  C_28
REMARK                            x       y       z     vdW  Elec       q    Type
REMARK                         _______ _______ _______ _____ _____    ______ ____
ROOT
ATOM     11  C   UNL     1      -0.840  -0.137  24.569  0.00  0.00    +0.120 C 
ATOM     12  C   UNL     1      -1.022   0.667  24.573  0.00  0.00    +0.154 C 
ATOM     26  O   UNL     1      -0.446   1.061  24.131  0.00  0.00    -0.350 OA
ATOM     27  C   UNL     1       0.091   0.499  23.855  0.00  0.00    +0.180 C 
ATOM     30  C   UNL     1      -0.152  -0.241  24.126  0.00  0.00    +0.198 C 
ATOM     31  O   UNL     1       0.226  -0.960  23.978  0.00  0.00    -0.219 OA
ENDROOT
BRANCH  11   2
ATOM      1  C   UNL     1      -1.081  -0.957  25.715  0.00  0.00    +0.090 C 
ATOM      2  N   UNL     1      -1.271  -0.733  24.944  0.00  0.00    -0.268 NA
BRANCH   2   3
ATOM      3  C   UNL     1      -1.891  -1.106  24.546  0.00  0.00    +0.079 C 
BRANCH   3   4
ATOM      4  C   UNL     1      -2.364  -1.654  24.942  0.00  0.00    +0.063 C 
BRANCH   4   5
ATOM      5  C   UNL     1      -3.032  -1.965  24.573  0.00  0.00    +0.060 A 
ATOM      6  N   UNL     1      -3.619  -1.459  24.289  0.00  0.00    -0.248 NA
ATOM      7  C   UNL     1      -4.288  -1.770  23.919  0.00  0.00    +0.098 A 
ATOM      8  C   UNL     1      -4.370  -2.587  23.834  0.00  0.00    +0.021 A 
ATOM      9  C   UNL     1      -3.783  -3.092  24.118  0.00  0.00    +0.003 A 
ATOM     10  C   UNL     1      -3.114  -2.781  24.488  0.00  0.00    +0.015 A 
ENDBRANCH   4   5
ENDBRANCH   3   4
ENDBRANCH   2   3
ENDBRANCH  11   2
BRANCH  27  28
ATOM     28  C   UNL     1       0.755   0.651  23.390  0.00  0.00    +0.214 C 
ATOM     29  O   UNL     1       1.203   1.331  23.523  0.00  0.00    -0.218 OA
ENDBRANCH  27  28
BRANCH  12  13
ATOM     13  C   UNL     1      -1.667   1.018  24.951  0.00  0.00    +0.148 C 
BRANCH  13  14
ATOM     14  N   UNL     1      -1.846   1.810  24.810  0.00  0.00    -0.184 NA
ATOM     15  C   UNL     1      -2.594   2.103  24.999  0.00  0.00    +0.344 C 
ATOM     16  O   UNL     1      -3.161   1.603  25.328  0.00  0.00    -0.249 OA
ATOM     17  N   UNL     1      -2.774   2.896  24.858  0.00  0.00    -0.159 NA
BRANCH  17  18
ATOM     18  C   UNL     1      -3.522   3.188  25.047  0.00  0.00    +0.102 A 
ATOM     19  C   UNL     1      -4.194   2.848  24.710  0.00  0.00    +0.021 A 
ATOM     20  C   UNL     1      -4.942   3.140  24.898  0.00  0.00    +0.031 A 
ATOM     21  C   UNL     1      -5.018   3.771  25.423  0.00  0.00    +0.142 A 
ATOM     22  F   UNL     1      -5.767   4.064  25.612  0.00  0.00    -0.204 F 
ATOM     23  C   UNL     1      -4.347   4.111  25.760  0.00  0.00    +0.061 A 
ATOM     24  C   UNL     1      -3.598   3.819  25.572  0.00  0.00    +0.158 A 
ATOM     25  F   UNL     1      -2.926   4.159  25.909  0.00  0.00    -0.203 F 
ENDBRANCH  17  18
ENDBRANCH  13  14
ENDBRANCH  12  13
TORSDOF 8
ENDMDL
MODEL 4
REMARK VINA RESULT:      -9.8      2.236      4.669
REMARK  Name = 
REMARK  8 active torsions:
REMARK  status: ('A' for Active; 'I' for Inactive)
REMARK    1  A    between atoms: N_2  and  C_3
REMARK    2  A    between atoms: N_2  and  C_11
REMARK    3  A    between atoms: C_3  and  C_4
REMARK    4  A    between atoms: C_4  and  C_5
REMARK    5  A    between atoms: C_12  and  C_13
REMARK    6  A    between atoms: C_13  and  N_14
REMARK    7  A    between atoms: N_17  and  C_18
REMARK    8  A    between atoms: C_27  and  C_28
REMARK                            x       y       z     vdW  Elec       q    Type
REMARK                         _______ _______ _______ _____ _____    ______ ____
ROOT
ATOM     11  C   UNL     1      -2.610  -1.376  24.845  0.00  0.00    +0.120 C 
ATOM     12  C   UNL     1      -3.320  -0.961  24.780  0.00  0.00    +0.154 C 
ATOM     26  O   UNL     1      -3.899  -1.485  24.512  0.00  0.00    -0.350 OA
ATOM     27  C   UNL     1      -3.546  -2.225  24.412  0.00  0.00    +0.180 C 
ATOM     30  C   UNL     1      -2.750  -2.157  24.617  0.00  0.00    +0.198 C 
ATOM     31  O   UNL     1      -2.191  -2.765  24.598  0.00  0.00    -0.219 OA
ENDROOT
BRANCH  11   2
ATOM      1  C   UNL     1      -1.681  -1.088  25.892  0.00  0.00    +0.090 C 
ATOM      2  N   UNL     1      -1.888  -1.066  25.093  0.00  0.00    -0.268 NA
BRANCH   2   3
ATOM      3  C   UNL     1      -1.370  -0.732  24.543  0.00  0.00    +0.079 C 
BRANCH   3   4
ATOM      4  C   UNL     1      -0.639  -0.441  24.788  0.00  0.00    +0.063 C 
BRANCH   4   5
ATOM      5  C   UNL     1      -0.144  -0.061  24.249  0.00  0.00    +0.060 A 
ATOM      6  N   UNL     1       0.289  -0.504  23.704  0.00  0.00    -0.248 NA
ATOM      7  C   UNL     1       0.784  -0.123  23.165  0.00  0.00    +0.098 A 
ATOM      8  C   UNL     1       0.846   0.700  23.170  0.00  0.00    +0.021 A 
ATOM      9  C   UNL     1       0.412   1.142  23.715  0.00  0.00    +0.003 A 
ATOM     10  C   UNL     1      -0.083   0.762  24.255  0.00  0.00    +0.015 A 
ENDBRANCH   4   5
ENDBRANCH   3   4
ENDBRANCH   2   3
ENDBRANCH  11   2
BRANCH  27  28
ATOM     28  C   UNL     1      -3.924  -2.910  24.151  0.00  0.00    +0.214 C 
ATOM     29  O   UNL     1      -4.488  -2.866  23.550  0.00  0.00    -0.218 OA
ENDBRANCH  27  28
BRANCH  12  13
ATOM     13  C   UNL     1      -3.432  -0.162  24.953  0.00  0.00    +0.148 C 
BRANCH  13  14
ATOM     14  N   UNL     1      -4.185   0.170  24.896  0.00  0.00    -0.184 NA
ATOM     15  C   UNL     1      -4.291   0.976  25.035  0.00  0.00    +0.344 C 
ATOM     16  O   UNL     1      -3.645   1.449  25.230  0.00  0.00    -0.249 OA
ATOM     17  N   UNL     1      -5.044   1.309  24.979  0.00  0.00    -0.159 NA
BRANCH  17  18
ATOM     18  C   UNL     1      -5.150   2.115  25.118  0.00  0.00    +0.102 A 
ATOM     19  C   UNL     1      -4.668   2.666  24.737  0.00  0.00    +0.021 A 
ATOM     20  C   UNL     1      -4.773   3.472  24.876  0.00  0.00    +0.031 A 
ATOM     21  C   UNL     1      -5.360   3.728  25.395  0.00  0.00    +0.142 A 
ATOM     22  F   UNL     1      -5.465   4.535  25.533  0.00  0.00    -0.204 F 
ATOM     23  C   UNL     1      -5.842   3.178  25.776  0.00  0.00    +0.061 A 
ATOM     24  C   UNL     1      -5.737   2.371  25.637  0.00  0.00    +0.158 A 
ATOM     25  F   UNL     1      -6.219   1.821  26.019  0.00  0.00    -0.203 F 
ENDBRANCH  17  18
ENDBRANCH  13  14
ENDBRANCH  12  13
TORSDOF 8
ENDMDL
MODEL 5
REMARK VINA RESULT:      -9.3      1.813      3.577
REMARK  Name = 
REMARK  8 active torsions:
REMARK  status: ('A' for Active; 'I' for Inactive)
REMARK    1  A    between atoms: N_2  and  C_3
REMARK    2  A    between atoms: N_2  and  C_11
REMARK    3  A    between atoms: C_3  and  C_4
REMARK    4  A    between atoms: C_4  and  C_5
REMARK    5  A    between atoms: C_12  and  C_13
REMARK    6  A    between atoms: C_13  and  N_14
REMARK    7  A    between atoms: N_17  and  C_18
REMARK    8  A    between atoms: C_27  and  C_28
REMARK                            x       y       z     vdW  Elec       q    Type
REMARK                         _______ _______ _______ _____ _____    ______ ____
ROOT
ATOM     11  C   UNL     1      -0.695   2.027  24.992  0.00  0.00    +0.120 C 
ATOM     12  C   UNL     1      -0.811   1.233  24.803  0.00  0.00    +0.154 C 
ATOM     26  O   UNL     1      -0.170   0.983  24.347  0.00  0.00    -0.350 OA
ATOM     27  C   UNL     1       0.342   1.624  24.254  0.00  0.00    +0.180 C 
ATOM     30  C   UNL     1       0.017   2.269  24.653  0.00  0.00    +0.198 C 
ATOM     31  O   UNL     1       0.348   3.024  24.703  0.00  0.00    -0.219 OA
ENDROOT
BRANCH  11   2
ATOM      1  C   UNL     1      -1.020   2.666  26.228  0.00  0.00    +0.090 C 
ATOM      2  N   UNL     1      -1.202   2.498  25.441  0.00  0.00    -0.268 NA
BRANCH   2   3
ATOM      3  C   UNL     1      -1.892   2.801  25.103  0.00  0.00    +0.079 C 
BRANCH   3   4
ATOM      4  C   UNL     1      -2.349   3.348  25.519  0.00  0.00    +0.063 C 
BRANCH   4   5
ATOM      5  C   UNL     1      -3.123   3.503  25.282  0.00  0.00    +0.060 A 
ATOM      6  N   UNL     1      -3.281   3.710  24.499  0.00  0.00    -0.248 NA
ATOM      7  C   UNL     1      -4.056   3.865  24.263  0.00  0.00    +0.098 A 
ATOM      8  C   UNL     1      -4.672   3.814  24.808  0.00  0.00    +0.021 A 
ATOM      9  C   UNL     1      -4.514   3.608  25.591  0.00  0.00    +0.003 A 
ATOM     10  C   UNL     1      -3.739   3.452  25.828  0.00  0.00    +0.015 A 
ENDBRANCH   4   5
ENDBRANCH   3   4
ENDBRANCH   2   3
ENDBRANCH  11   2
BRANCH  27  28
ATOM     28  C   UNL     1       1.052   1.619  23.835  0.00  0.00    +0.214 C 
ATOM     29  O   UNL     1       1.298   0.931  23.450  0.00  0.00    -0.218 OA
ENDBRANCH  27  28
BRANCH  12  13
ATOM     13  C   UNL     1      -1.455   0.769  25.031  0.00  0.00    +0.148 C 
BRANCH  13  14
ATOM     14  N   UNL     1      -1.443  -0.045  24.899  0.00  0.00    -0.184 NA
ATOM     15  C   UNL     1      -2.143  -0.444  24.723  0.00  0.00    +0.344 C 
ATOM     16  O   UNL     1      -2.854  -0.029  24.678  0.00  0.00    -0.249 OA
ATOM     17  N   UNL     1      -2.131  -1.259  24.590  0.00  0.00    -0.159 NA
BRANCH  17  18
ATOM     18  C   UNL     1      -2.832  -1.657  24.414  0.00  0.00    +0.102 A 
ATOM     19  C   UNL     1      -3.463  -1.249  24.072  0.00  0.00    +0.021 A 
ATOM     20  C   UNL     1      -4.163  -1.648  23.896  0.00  0.00    +0.031 A 
ATOM     21  C   UNL     1      -4.233  -2.452  24.061  0.00  0.00    +0.142 A 
ATOM     22  F   UNL     1      -4.934  -2.851  23.884  0.00  0.00    -0.204 F 
ATOM     23  C   UNL     1      -3.603  -2.860  24.402  0.00  0.00    +0.061 A 
ATOM     24  C   UNL     1      -2.901  -2.462  24.579  0.00  0.00    +0.158 A 
ATOM     25  F   UNL     1      -2.271  -2.869  24.920  0.00  0.00    -0.203 F 
ENDBRANCH  17  18
ENDBRANCH  13  14
ENDBRANCH  12  13
TORSDOF 8
ENDMDL
MODEL 6
REMARK VINA RESULT:      -9.1      2.588      5.604
REMARK  Name = 
REMARK  8 active torsions:
REMARK  status: ('A' for Active; 'I' for Inactive)
REMARK    1  A    between atoms: N_2  and  C_3
REMARK    2  A    between atoms: N_2  and  C_11
REMARK    3  A    between atoms: C_3  and  C_4
REMARK    4  A    between atoms: C_4  and  C_5
REMARK    5  A    between atoms: C_12  and  C_13
REMARK    6  A    between atoms: C_13  and  N_14
REMARK    7  A    between atoms: N_17  and  C_18
REMARK    8  A    between atoms: C_27  and  C_28
REMARK                            x       y       z     vdW  Elec       q    Type
REMARK                         _______ _______ _______ _____ _____    ______ ____
ROOT
ATOM     11  C   UNL     1      -2.703  -0.290  24.650  0.00  0.00    +0.120 C 
ATOM     12  C   UNL     1      -2.051   0.209  24.726  0.00  0.00    +0.154 C 
ATOM     26  O   UNL     1      -1.420  -0.237  25.016  0.00  0.00    -0.350 OA
ATOM     27  C   UNL     1      -1.684  -1.013  25.118  0.00  0.00    +0.180 C 
ATOM     30  C   UNL     1      -2.476  -1.045  24.892  0.00  0.00    +0.198 C 
ATOM     31  O   UNL     1      -2.957  -1.716  24.907  0.00  0.00    -0.219 OA
ENDROOT
BRANCH  11   2
ATOM      1  C   UNL     1      -3.679  -0.250  23.607  0.00  0.00    +0.090 C 
ATOM      2  N   UNL     1      -3.451  -0.072  24.379  0.00  0.00    -0.268 NA
BRANCH   2   3
ATOM      3  C   UNL     1      -3.973   0.325  24.882  0.00  0.00    +0.079 C 
BRANCH   3   4
ATOM      4  C   UNL     1      -4.721   0.543  24.611  0.00  0.00    +0.063 C 
BRANCH   4   5
ATOM      5  C   UNL     1      -5.154   1.118  25.013  0.00  0.00    +0.060 A 
ATOM      6  N   UNL     1      -5.464   0.953  25.760  0.00  0.00    -0.248 NA
ATOM      7  C   UNL     1      -5.897   1.528  26.162  0.00  0.00    +0.098 A 
ATOM      8  C   UNL     1      -6.020   2.268  25.819  0.00  0.00    +0.021 A 
ATOM      9  C   UNL     1      -5.710   2.433  25.073  0.00  0.00    +0.003 A 
ATOM     10  C   UNL     1      -5.276   1.858  24.670  0.00  0.00    +0.015 A 
ENDBRANCH   4   5
ENDBRANCH   3   4
ENDBRANCH   2   3
ENDBRANCH  11   2
BRANCH  27  28
ATOM     28  C   UNL     1      -1.232  -1.644  25.398  0.00  0.00    +0.214 C 
ATOM     29  O   UNL     1      -0.409  -1.586  25.414  0.00  0.00    -0.218 OA
ENDBRANCH  27  28
BRANCH  12  13
ATOM     13  C   UNL     1      -2.032   1.015  24.545  0.00  0.00    +0.148 C 
BRANCH  13  14
ATOM     14  N   UNL     1      -1.490   1.509  24.922  0.00  0.00    -0.184 NA
ATOM     15  C   UNL     1      -1.569   2.328  24.860  0.00  0.00    +0.344 C 
ATOM     16  O   UNL     1      -2.187   2.651  24.422  0.00  0.00    -0.249 OA
ATOM     17  N   UNL     1      -1.026   2.823  25.237  0.00  0.00    -0.159 NA
BRANCH  17  18
ATOM     18  C   UNL     1      -1.105   3.642  25.175  0.00  0.00    +0.102 A 
ATOM     19  C   UNL     1      -1.785   4.014  25.459  0.00  0.00    +0.021 A 
ATOM     20  C   UNL     1      -1.864   4.832  25.397  0.00  0.00    +0.031 A 
ATOM     21  C   UNL     1      -1.263   5.279  25.053  0.00  0.00    +0.142 A 
ATOM     22  F   UNL     1      -1.342   6.099  24.991  0.00  0.00    -0.204 F 
ATOM     23  C   UNL     1      -0.583   4.909  24.769  0.00  0.00    +0.061 A 
ATOM     24  C   UNL     1      -0.504   4.089  24.831  0.00  0.00    +0.158 A 
ATOM     25  F   UNL     1       0.176   3.718  24.547  0.00  0.00    -0.203 F 
ENDBRANCH  17  18
ENDBRANCH  13  14
ENDBRANCH  12  13
TORSDOF 8
ENDMDL
