REMARK  Name = 
REMARK  8 active torsions:
REMARK  status: ('A' for Active; 'I' for Inactive)
REMARK    1  A    between atoms: O_2  and  C_3
REMARK    2  A    between atoms: C_6  and  C_7
REMARK    3  A    between atoms: C_8  and  C_9
REMARK    4  A    between atoms: C_17  and  N_25
REMARK    5  A    between atoms: C_26  and  C_28
REMARK    6  A    between atoms: C_28  and  O_29
REMARK    7  A    between atoms: O_29  and  C_30
REMARK    8  A    between atoms: C_30  and  C_31
REMARK                            x       y       z     vdW  Elec       q    Type
REMARK                         _______ _______ _______ _____ _____    ______ ____
ROOT
ATOM      9  C   UNL     1      -5.529   4.256   0.000  0.00  0.00    +0.000 A 
ATOM     10  C   UNL     1      -5.298   5.048   0.000  0.00  0.00    +0.001 A 
ATOM     11  C   UNL     1      -4.497   5.244   0.000  0.00  0.00    +0.017 A 
ATOM     12  C   UNL     1      -3.926   4.647   0.000  0.00  0.00    +0.078 A 
ATOM     13  N   UNL     1      -3.163   4.960   0.000  0.00  0.00    -0.178 NA
ATOM     14  C   UNL     1      -2.443   4.559   0.000  0.00  0.00    +0.265 C 
ATOM     15  O   UNL     1      -1.768   5.033   0.000  0.00  0.00    -0.271 OA
ATOM     16  C   UNL     1      -2.307   3.745   0.000  0.00  0.00    +0.174 C 
ATOM     17  C   UNL     1      -1.554   3.409   0.000  0.00  0.00    +0.124 C 
ATOM     18  C   UNL     1      -1.640   2.589   0.000  0.00  0.00    +0.045 C 
ATOM     19  C   UNL     1      -2.447   2.417   0.000  0.00  0.00    +0.096 C 
ATOM     20  N   UNL     1      -2.860   3.132   0.000  0.00  0.00    -0.268 N 
ATOM     21  C   UNL     1      -3.683   3.181   0.000  0.00  0.00    +0.251 C 
ATOM     22  O   UNL     1      -4.085   2.460   0.000  0.00  0.00    -0.270 OA
ATOM     23  C   UNL     1      -4.158   3.856   0.000  0.00  0.00    +0.069 A 
ATOM     24  C   UNL     1      -4.959   3.660   0.000  0.00  0.00    +0.006 A 
ENDROOT
BRANCH  17  25
ATOM     25  N   UNL     1      -0.839   3.822   0.000  0.00  0.00    -0.203 NA
ATOM     26  C   UNL     1      -0.125   3.409   0.000  0.00  0.00    +0.272 C 
ATOM     27  O   UNL     1      -0.125   2.584   0.000  0.00  0.00    -0.271 OA
BRANCH  26  28
ATOM     28  C   UNL     1       0.590   3.822   0.000  0.00  0.00    +0.229 C 
BRANCH  28  29
ATOM     29  O   UNL     1       1.304   3.409   0.000  0.00  0.00    -0.333 OA
BRANCH  29  30
ATOM     30  C   UNL     1       2.019   3.822   0.000  0.00  0.00    +0.257 C 
BRANCH  30  31
ATOM     31  C   UNL     1       2.733   3.409   0.000  0.00  0.00    +0.394 C 
ATOM     32  O   UNL     1       3.447   3.822   0.000  0.00  0.00    -0.243 OA
ATOM     33  O   UNL     1       2.733   2.584   0.000  0.00  0.00    -0.243 OA
ENDBRANCH  30  31
ENDBRANCH  29  30
ENDBRANCH  28  29
ENDBRANCH  26  28
ENDBRANCH  17  25
BRANCH   9   8
ATOM      7  C   UNL     1      -6.901   4.657   0.000  0.00  0.00    +0.000 C 
ATOM      8  C   UNL     1      -6.331   4.061   0.000  0.00  0.00    +0.000 C 
BRANCH   7   6
ATOM      3  C   UNL     1      -9.306   4.070   0.000  0.00  0.00    +0.139 A 
ATOM      4  C   UNL     1      -9.074   4.862   0.000  0.00  0.00    +0.037 A 
ATOM      5  C   UNL     1      -8.273   5.058   0.000  0.00  0.00    +0.003 A 
ATOM      6  C   UNL     1      -7.703   4.461   0.000  0.00  0.00    +0.000 A 
ATOM     34  C   UNL     1      -7.934   3.670   0.000  0.00  0.00    +0.003 A 
ATOM     35  C   UNL     1      -8.735   3.474   0.000  0.00  0.00    +0.037 A 
BRANCH   3   2
ATOM      1  C   UNL     1     -10.338   3.083   0.000  0.00  0.00    +0.252 C 
ATOM      2  O   UNL     1     -10.107   3.875   0.000  0.00  0.00    -0.471 OA
ENDBRANCH   3   2
ENDBRANCH   7   6
ENDBRANCH   9   8
TORSDOF 8
