MODEL 1
REMARK VINA RESULT:     -10.7      0.000      0.000
REMARK  Name = 
REMARK  10 active torsions:
REMARK  status: ('A' for Active; 'I' for Inactive)
REMARK    1  A    between atoms: N_2  and  C_3
REMARK    2  A    between atoms: C_3  and  C_4
REMARK    3  A    between atoms: C_3  and  C_8
REMARK    4  A    between atoms: C_4  and  C_5
REMARK    5  A    between atoms: N_10  and  C_11
REMARK    6  A    between atoms: C_13  and  C_19
REMARK    7  A    between atoms: N_21  and  C_22
REMARK    8  A    between atoms: C_22  and  C_23
REMARK    9  A    between atoms: C_22  and  C_29
REMARK   10  A    between atoms: C_23  and  C_24
REMARK                            x       y       z     vdW  Elec       q    Type
REMARK                         _______ _______ _______ _____ _____    ______ ____
ROOT
ATOM     11  C   UNL     1      -4.199   1.091  24.984  0.00  0.00    +0.150 C 
ATOM     12  C   UNL     1      -3.611   1.664  24.899  0.00  0.00    -0.002 C 
ATOM     13  C   UNL     1      -3.819   2.456  24.797  0.00  0.00    +0.033 C 
ATOM     14  C   UNL     1      -4.614   2.676  24.782  0.00  0.00    +0.066 C 
ATOM     15  C   UNL     1      -5.202   2.102  24.867  0.00  0.00    +0.189 C 
ATOM     16  O   UNL     1      -5.998   2.322  24.852  0.00  0.00    -0.220 OA
ATOM     17  C   UNL     1      -4.994   1.311  24.969  0.00  0.00    +0.206 C 
ATOM     18  O   UNL     1      -5.582   0.737  25.054  0.00  0.00    -0.218 OA
ENDROOT
BRANCH  11  10
ATOM      8  C   UNL     1      -3.514  -0.076  24.527  0.00  0.00    +0.258 C 
ATOM      9  O   UNL     1      -3.245   0.340  23.868  0.00  0.00    -0.272 OA
ATOM     10  N   UNL     1      -3.991   0.299  25.086  0.00  0.00    -0.199 NA
BRANCH   8   3
ATOM      3  C   UNL     1      -3.306  -0.869  24.629  0.00  0.00    +0.150 C 
BRANCH   3   2
ATOM      1  C   UNL     1      -2.025  -0.968  25.253  0.00  0.00    +0.108 C 
ATOM      2  N   UNL     1      -2.514  -1.094  24.600  0.00  0.00    -0.209 NA
ENDBRANCH   3   2
BRANCH   3   4
ATOM      4  C   UNL     1      -3.892  -1.435  24.759  0.00  0.00    +0.027 C 
BRANCH   4   5
ATOM      5  C   UNL     1      -3.877  -2.147  24.342  0.00  0.00    +0.002 C 
ATOM      6  C   UNL     1      -3.486  -2.801  24.659  0.00  0.00    +0.000 C 
ATOM      7  C   UNL     1      -4.251  -2.205  23.610  0.00  0.00    +0.000 C 
ENDBRANCH   4   5
ENDBRANCH   3   4
ENDBRANCH   8   3
ENDBRANCH  11  10
BRANCH  13  19
ATOM     19  C   UNL     1      -3.231   3.028  24.712  0.00  0.00    +0.261 C 
ATOM     20  O   UNL     1      -3.246   3.541  24.064  0.00  0.00    -0.269 OA
ATOM     21  N   UNL     1      -2.629   3.088  25.271  0.00  0.00    -0.194 NA
BRANCH  21  22
ATOM     22  C   UNL     1      -2.041   3.661  25.185  0.00  0.00    +0.179 C 
BRANCH  22  29
ATOM     29  C   UNL     1      -2.140   4.407  25.524  0.00  0.00    +0.281 C 
ATOM     30  N   UNL     1      -1.877   5.080  25.123  0.00  0.00    -0.086 NA
ATOM     31  O   UNL     1      -2.500   4.481  26.261  0.00  0.00    -0.270 OA
ENDBRANCH  22  29
BRANCH  22  23
ATOM     23  C   UNL     1      -1.355   3.488  24.760  0.00  0.00    +0.064 C 
BRANCH  23  24
ATOM     24  C   UNL     1      -0.775   3.006  25.094  0.00  0.00    +0.010 A 
ATOM     25  C   UNL     1      -0.545   3.002  25.887  0.00  0.00    +0.003 A 
ATOM     26  C   UNL     1       0.049   2.437  25.977  0.00  0.00    +0.007 A 
ATOM     27  C   UNL     1       0.188   2.092  25.239  0.00  0.00    +0.035 A 
ATOM     28  S   UNL     1      -0.322   2.444  24.694  0.00  0.00    -0.091 S 
ENDBRANCH  23  24
ENDBRANCH  22  23
ENDBRANCH  21  22
ENDBRANCH  13  19
TORSDOF 10
ENDMDL
MODEL 2
REMARK VINA RESULT:     -10.4      1.309      4.568
REMARK  Name = 
REMARK  10 active torsions:
REMARK  status: ('A' for Active; 'I' for Inactive)
REMARK    1  A    between atoms: N_2  and  C_3
REMARK    2  A    between atoms: C_3  and  C_4
REMARK    3  A    between atoms: C_3  and  C_8
REMARK    4  A    between atoms: C_4  and  C_5
REMARK    5  A    between atoms: N_10  and  C_11
REMARK    6  A    between atoms: C_13  and  C_19
REMARK    7  A    between atoms: N_21  and  C_22
REMARK    8  A    between atoms: C_22  and  C_23
REMARK    9  A    between atoms: C_22  and  C_29
REMARK   10  A    between atoms: C_23  and  C_24
REMARK                            x       y       z     vdW  Elec       q    Type
REMARK                         _______ _______ _______ _____ _____    ______ ____
ROOT
ATOM     11  C   UNL     1      -3.504   2.142  24.560  0.00  0.00    +0.150 C 
ATOM     12  C   UNL     1      -3.367   1.348  24.737  0.00  0.00    -0.002 C 
ATOM     13  C   UNL     1      -4.003   0.840  24.872  0.00  0.00    +0.033 C 
ATOM     14  C   UNL     1      -4.776   1.126  24.829  0.00  0.00    +0.066 C 
ATOM     15  C   UNL     1      -4.912   1.920  24.652  0.00  0.00    +0.189 C 
ATOM     16  O   UNL     1      -5.686   2.206  24.609  0.00  0.00    -0.220 OA
ATOM     17  C   UNL     1      -4.277   2.428  24.518  0.00  0.00    +0.206 C 
ATOM     18  O   UNL     1      -4.413   3.222  24.340  0.00  0.00    -0.218 OA
ENDROOT
BRANCH  11  10
ATOM      8  C   UNL     1      -2.286   2.744  25.003  0.00  0.00    +0.258 C 
ATOM      9  O   UNL     1      -2.340   2.329  25.714  0.00  0.00    -0.272 OA
ATOM     10  N   UNL     1      -2.868   2.650  24.425  0.00  0.00    -0.199 NA
BRANCH   8   3
ATOM      3  C   UNL     1      -1.650   3.252  24.868  0.00  0.00    +0.150 C 
BRANCH   3   2
ATOM      1  C   UNL     1      -0.574   2.619  24.173  0.00  0.00    +0.108 C 
ATOM      2  N   UNL     1      -1.191   3.167  24.189  0.00  0.00    -0.209 NA
ENDBRANCH   3   2
BRANCH   3   4
ATOM      4  C   UNL     1      -1.473   3.845  25.414  0.00  0.00    +0.027 C 
BRANCH   4   5
ATOM      5  C   UNL     1      -1.332   4.616  25.154  0.00  0.00    +0.002 C 
ATOM      6  C   UNL     1      -0.613   4.804  24.796  0.00  0.00    +0.000 C 
ATOM      7  C   UNL     1      -1.908   5.196  25.254  0.00  0.00    +0.000 C 
ENDBRANCH   4   5
ENDBRANCH   3   4
ENDBRANCH   8   3
ENDBRANCH  11  10
BRANCH  13  19
ATOM     19  C   UNL     1      -3.866   0.046  25.049  0.00  0.00    +0.261 C 
ATOM     20  O   UNL     1      -4.240  -0.303  25.697  0.00  0.00    -0.269 OA
ATOM     21  N   UNL     1      -3.355  -0.399  24.579  0.00  0.00    -0.194 NA
BRANCH  21  22
ATOM     22  C   UNL     1      -3.218  -1.194  24.757  0.00  0.00    +0.179 C 
BRANCH  22  29
ATOM     29  C   UNL     1      -3.676  -1.780  24.401  0.00  0.00    +0.281 C 
ATOM     30  N   UNL     1      -3.918  -2.437  24.840  0.00  0.00    -0.086 NA
ATOM     31  O   UNL     1      -3.893  -1.711  23.610  0.00  0.00    -0.270 OA
ENDBRANCH  22  29
BRANCH  22  23
ATOM     23  C   UNL     1      -2.623  -1.401  25.289  0.00  0.00    +0.064 C 
BRANCH  23  24
ATOM     24  C   UNL     1      -1.834  -1.393  25.049  0.00  0.00    +0.010 A 
ATOM     25  C   UNL     1      -1.531  -1.751  24.370  0.00  0.00    +0.003 A 
ATOM     26  C   UNL     1      -0.719  -1.606  24.346  0.00  0.00    +0.007 A 
ATOM     27  C   UNL     1      -0.520  -1.158  25.011  0.00  0.00    +0.035 A 
ATOM     28  S   UNL     1      -1.209  -1.027  25.445  0.00  0.00    -0.091 S 
ENDBRANCH  23  24
ENDBRANCH  22  23
ENDBRANCH  21  22
ENDBRANCH  13  19
TORSDOF 10
ENDMDL
MODEL 3
REMARK VINA RESULT:     -10.0      1.754      3.322
REMARK  Name = 
REMARK  10 active torsions:
REMARK  status: ('A' for Active; 'I' for Inactive)
REMARK    1  A    between atoms: N_2  and  C_3
REMARK    2  A    between atoms: C_3  and  C_4
REMARK    3  A    between atoms: C_3  and  C_8
REMARK    4  A    between atoms: C_4  and  C_5
REMARK    5  A    between atoms: N_10  and  C_11
REMARK    6  A    between atoms: C_13  and  C_19
REMARK    7  A    between atoms: N_21  and  C_22
REMARK    8  A    between atoms: C_22  and  C_23
REMARK    9  A    between atoms: C_22  and  C_29
REMARK   10  A    between atoms: C_23  and  C_24
REMARK                            x       y       z     vdW  Elec       q    Type
REMARK                         _______ _______ _______ _____ _____    ______ ____
ROOT
ATOM     11  C   UNL     1      -1.505   0.409  24.347  0.00  0.00    +0.150 C 
ATOM     12  C   UNL     1      -2.032   0.997  24.582  0.00  0.00    -0.002 C 
ATOM     13  C   UNL     1      -1.767   1.773  24.682  0.00  0.00    +0.033 C 
ATOM     14  C   UNL     1      -0.974   1.958  24.547  0.00  0.00    +0.066 C 
ATOM     15  C   UNL     1      -0.448   1.368  24.311  0.00  0.00    +0.189 C 
ATOM     16  O   UNL     1       0.346   1.554  24.175  0.00  0.00    -0.220 OA
ATOM     17  C   UNL     1      -0.713   0.594  24.211  0.00  0.00    +0.206 C 
ATOM     18  O   UNL     1      -0.186   0.004  23.975  0.00  0.00    -0.218 OA
ENDROOT
BRANCH  11  10
ATOM      8  C   UNL     1      -2.135  -0.761  24.873  0.00  0.00    +0.258 C 
ATOM      9  O   UNL     1      -2.234  -0.381  25.599  0.00  0.00    -0.272 OA
ATOM     10  N   UNL     1      -1.771  -0.367  24.247  0.00  0.00    -0.199 NA
BRANCH   8   3
ATOM      3  C   UNL     1      -2.401  -1.536  24.773  0.00  0.00    +0.150 C 
BRANCH   3   2
ATOM      1  C   UNL     1      -1.442  -2.575  24.985  0.00  0.00    +0.108 C 
ATOM      2  N   UNL     1      -1.892  -2.111  24.471  0.00  0.00    -0.209 NA
ENDBRANCH   3   2
BRANCH   3   4
ATOM      4  C   UNL     1      -3.175  -1.735  24.975  0.00  0.00    +0.027 C 
BRANCH   4   5
ATOM      5  C   UNL     1      -3.658  -2.121  24.427  0.00  0.00    +0.002 C 
ATOM      6  C   UNL     1      -4.154  -1.683  23.935  0.00  0.00    +0.000 C 
ATOM      7  C   UNL     1      -3.644  -2.943  24.373  0.00  0.00    +0.000 C 
ENDBRANCH   4   5
ENDBRANCH   3   4
ENDBRANCH   8   3
ENDBRANCH  11  10
BRANCH  13  19
ATOM     19  C   UNL     1      -2.294   2.362  24.918  0.00  0.00    +0.261 C 
ATOM     20  O   UNL     1      -2.080   2.892  25.514  0.00  0.00    -0.269 OA
ATOM     21  N   UNL     1      -3.034   2.421  24.560  0.00  0.00    -0.194 NA
BRANCH  21  22
ATOM     22  C   UNL     1      -3.561   3.010  24.796  0.00  0.00    +0.179 C 
BRANCH  22  29
ATOM     29  C   UNL     1      -3.605   3.717  24.373  0.00  0.00    +0.281 C 
ATOM     30  N   UNL     1      -3.503   4.438  24.763  0.00  0.00    -0.086 NA
ATOM     31  O   UNL     1      -3.751   3.704  23.562  0.00  0.00    -0.270 OA
ENDBRANCH  22  29
BRANCH  22  23
ATOM     23  C   UNL     1      -4.044   2.892  25.455  0.00  0.00    +0.064 C 
BRANCH  23  24
ATOM     24  C   UNL     1      -4.781   2.533  25.367  0.00  0.00    +0.010 A 
ATOM     25  C   UNL     1      -4.938   1.851  24.929  0.00  0.00    +0.003 A 
ATOM     26  C   UNL     1      -5.745   1.689  24.992  0.00  0.00    +0.007 A 
ATOM     27  C   UNL     1      -6.086   2.271  25.469  0.00  0.00    +0.035 A 
ATOM     28  S   UNL     1      -5.490   2.792  25.700  0.00  0.00    -0.091 S 
ENDBRANCH  23  24
ENDBRANCH  22  23
ENDBRANCH  21  22
ENDBRANCH  13  19
TORSDOF 10
ENDMDL
MODEL 4
REMARK VINA RESULT:      -9.8      1.881      4.996
REMARK  Name = 
REMARK  10 active torsions:
REMARK  status: ('A' for Active; 'I' for Inactive)
REMARK    1  A    between atoms: N_2  and  C_3
REMARK    2  A    between atoms: C_3  and  C_4
REMARK    3  A    between atoms: C_3  and  C_8
REMARK    4  A    between atoms: C_4  and  C_5
REMARK    5  A    between atoms: N_10  and  C_11
REMARK    6  A    between atoms: C_13  and  C_19
REMARK    7  A    between atoms: N_21  and  C_22
REMARK    8  A    between atoms: C_22  and  C_23
REMARK    9  A    between atoms: C_22  and  C_29
REMARK   10  A    between atoms: C_23  and  C_24
REMARK                            x       y       z     vdW  Elec       q    Type
REMARK                         _______ _______ _______ _____ _____    ______ ____
ROOT
ATOM     11  C   UNL     1      -1.922   2.038  25.227  0.00  0.00    +0.150 C 
ATOM     12  C   UNL     1      -2.027   1.225  25.320  0.00  0.00    -0.002 C 
ATOM     13  C   UNL     1      -1.374   0.721  25.299  0.00  0.00    +0.033 C 
ATOM     14  C   UNL     1      -0.617   1.029  25.187  0.00  0.00    +0.066 C 
ATOM     15  C   UNL     1      -0.513   1.843  25.095  0.00  0.00    +0.189 C 
ATOM     16  O   UNL     1       0.244   2.152  24.982  0.00  0.00    -0.220 OA
ATOM     17  C   UNL     1      -1.165   2.347  25.115  0.00  0.00    +0.206 C 
ATOM     18  O   UNL     1      -1.062   3.160  25.023  0.00  0.00    -0.218 OA
ENDROOT
BRANCH  11  10
ATOM      8  C   UNL     1      -3.174   2.464  24.686  0.00  0.00    +0.258 C 
ATOM      9  O   UNL     1      -3.121   1.882  24.104  0.00  0.00    -0.272 OA
ATOM     10  N   UNL     1      -2.575   2.543  25.248  0.00  0.00    -0.199 NA
BRANCH   8   3
ATOM      3  C   UNL     1      -3.827   2.969  24.706  0.00  0.00    +0.150 C 
BRANCH   3   2
ATOM      1  C   UNL     1      -3.747   4.065  23.793  0.00  0.00    +0.108 C 
ATOM      2  N   UNL     1      -4.080   3.343  24.017  0.00  0.00    -0.209 NA
ENDBRANCH   3   2
BRANCH   3   4
ATOM      4  C   UNL     1      -4.226   3.098  25.417  0.00  0.00    +0.027 C 
BRANCH   4   5
ATOM      5  C   UNL     1      -5.049   3.044  25.443  0.00  0.00    +0.002 C 
ATOM      6  C   UNL     1      -5.502   3.722  25.569  0.00  0.00    +0.000 C 
ATOM      7  C   UNL     1      -5.418   2.314  25.343  0.00  0.00    +0.000 C 
ENDBRANCH   4   5
ENDBRANCH   3   4
ENDBRANCH   8   3
ENDBRANCH  11  10
BRANCH  13  19
ATOM     19  C   UNL     1      -1.479  -0.092  25.392  0.00  0.00    +0.261 C 
ATOM     20  O   UNL     1      -1.266  -0.457  26.101  0.00  0.00    -0.269 OA
ATOM     21  N   UNL     1      -1.795  -0.540  24.777  0.00  0.00    -0.194 NA
BRANCH  21  22
ATOM     22  C   UNL     1      -1.900  -1.354  24.869  0.00  0.00    +0.179 C 
BRANCH  22  29
ATOM     29  C   UNL     1      -1.302  -1.875  24.641  0.00  0.00    +0.281 C 
ATOM     30  N   UNL     1      -1.040  -2.456  25.165  0.00  0.00    -0.086 NA
ATOM     31  O   UNL     1      -0.967  -1.815  23.891  0.00  0.00    -0.270 OA
ENDBRANCH  22  29
BRANCH  22  23
ATOM     23  C   UNL     1      -2.602  -1.645  25.190  0.00  0.00    +0.064 C 
BRANCH  23  24
ATOM     24  C   UNL     1      -3.246  -1.799  24.700  0.00  0.00    +0.010 A 
ATOM     25  C   UNL     1      -3.768  -1.238  24.394  0.00  0.00    +0.003 A 
ATOM     26  C   UNL     1      -4.327  -1.633  23.934  0.00  0.00    +0.007 A 
ATOM     27  C   UNL     1      -4.151  -2.439  23.955  0.00  0.00    +0.035 A 
ATOM     28  S   UNL     1      -3.484  -2.542  24.428  0.00  0.00    -0.091 S 
ENDBRANCH  23  24
ENDBRANCH  22  23
ENDBRANCH  21  22
ENDBRANCH  13  19
TORSDOF 10
ENDMDL
MODEL 5
REMARK VINA RESULT:      -9.7      1.837      3.851
REMARK  Name = 
REMARK  10 active torsions:
REMARK  status: ('A' for Active; 'I' for Inactive)
REMARK    1  A    between atoms: N_2  and  C_3
REMARK    2  A    between atoms: C_3  and  C_4
REMARK    3  A    between atoms: C_3  and  C_8
REMARK    4  A    between atoms: C_4  and  C_5
REMARK    5  A    between atoms: N_10  and  C_11
REMARK    6  A    between atoms: C_13  and  C_19
REMARK    7  A    between atoms: N_21  and  C_22
REMARK    8  A    between atoms: C_22  and  C_23
REMARK    9  A    between atoms: C_22  and  C_29
REMARK   10  A    between atoms: C_23  and  C_24
REMARK                            x       y       z     vdW  Elec       q    Type
REMARK                         _______ _______ _______ _____ _____    ______ ____
ROOT
ATOM     11  C   UNL     1      -2.439  -0.242  25.103  0.00  0.00    +0.150 C 
ATOM     12  C   UNL     1      -3.031   0.311  24.946  0.00  0.00    -0.002 C 
ATOM     13  C   UNL     1      -3.824   0.082  24.959  0.00  0.00    +0.033 C 
ATOM     14  C   UNL     1      -4.024  -0.700  25.129  0.00  0.00    +0.066 C 
ATOM     15  C   UNL     1      -3.432  -1.253  25.286  0.00  0.00    +0.189 C 
ATOM     16  O   UNL     1      -3.632  -2.036  25.456  0.00  0.00    -0.220 OA
ATOM     17  C   UNL     1      -2.640  -1.024  25.273  0.00  0.00    +0.206 C 
ATOM     18  O   UNL     1      -2.047  -1.577  25.429  0.00  0.00    -0.218 OA
ENDROOT
BRANCH  11  10
ATOM      8  C   UNL     1      -1.354   0.421  24.452  0.00  0.00    +0.258 C 
ATOM      9  O   UNL     1      -1.853   0.626  23.828  0.00  0.00    -0.272 OA
ATOM     10  N   UNL     1      -1.646  -0.013  25.089  0.00  0.00    -0.199 NA
BRANCH   8   3
ATOM      3  C   UNL     1      -0.561   0.651  24.438  0.00  0.00    +0.150 C 
BRANCH   3   2
ATOM      1  C   UNL     1       0.346  -0.205  23.741  0.00  0.00    +0.108 C 
ATOM      2  N   UNL     1      -0.097   0.491  23.776  0.00  0.00    -0.209 NA
ENDBRANCH   3   2
BRANCH   3   4
ATOM      4  C   UNL     1      -0.234   1.040  25.088  0.00  0.00    +0.027 C 
BRANCH   4   5
ATOM      5  C   UNL     1      -0.030   1.838  25.030  0.00  0.00    +0.002 C 
ATOM      6  C   UNL     1      -0.112   2.332  25.685  0.00  0.00    +0.000 C 
ATOM      7  C   UNL     1       0.256   2.140  24.319  0.00  0.00    +0.000 C 
ENDBRANCH   4   5
ENDBRANCH   3   4
ENDBRANCH   8   3
ENDBRANCH  11  10
BRANCH  13  19
ATOM     19  C   UNL     1      -4.415   0.635  24.803  0.00  0.00    +0.261 C 
ATOM     20  O   UNL     1      -4.970   0.488  24.210  0.00  0.00    -0.269 OA
ATOM     21  N   UNL     1      -4.451   1.334  25.237  0.00  0.00    -0.194 NA
BRANCH  21  22
ATOM     22  C   UNL     1      -5.044   1.888  25.080  0.00  0.00    +0.179 C 
BRANCH  22  29
ATOM     29  C   UNL     1      -5.788   1.804  25.425  0.00  0.00    +0.281 C 
ATOM     30  N   UNL     1      -6.465   1.820  24.953  0.00  0.00    -0.086 NA
ATOM     31  O   UNL     1      -5.856   1.703  26.240  0.00  0.00    -0.270 OA
ENDBRANCH  22  29
BRANCH  22  23
ATOM     23  C   UNL     1      -4.890   2.525  24.578  0.00  0.00    +0.064 C 
BRANCH  23  24
ATOM     24  C   UNL     1      -4.373   3.121  24.815  0.00  0.00    +0.010 A 
ATOM     25  C   UNL     1      -4.329   3.453  25.570  0.00  0.00    +0.003 A 
ATOM     26  C   UNL     1      -3.737   4.028  25.562  0.00  0.00    +0.007 A 
ATOM     27  C   UNL     1      -3.416   4.052  24.801  0.00  0.00    +0.035 A 
ATOM     28  S   UNL     1      -3.809   3.491  24.341  0.00  0.00    -0.091 S 
ENDBRANCH  23  24
ENDBRANCH  22  23
ENDBRANCH  21  22
ENDBRANCH  13  19
TORSDOF 10
ENDMDL
