REMARK  Name = 
REMARK  2 active torsions:
REMARK  status: ('A' for Active; 'I' for Inactive)
REMARK    1  A    between atoms: C_5  and  C_7
REMARK    2  A    between atoms: C_12  and  C_14
REMARK                            x       y       z     vdW  Elec       q    Type
REMARK                         _______ _______ _______ _____ _____    ______ ____
ROOT
ATOM      7  C   UNL     1       3.356  -3.003   0.000  0.00  0.00    +0.100 C 
ATOM      8  C   UNL     1       3.611  -3.788   0.000  0.00  0.00    +0.033 C 
ATOM      9  C   UNL     1       2.943  -4.273   0.000  0.00  0.00    +0.094 C 
ATOM     10  N   UNL     1       2.276  -3.788   0.000  0.00  0.00    -0.276 N 
ATOM     11  C   UNL     1       2.531  -3.003   0.000  0.00  0.00    +0.103 C 
ATOM     12  C   UNL     1       1.491  -4.043   0.000  0.00  0.00    +0.249 C 
ATOM     13  O   UNL     1       1.320  -4.850   0.000  0.00  0.00    -0.270 OA
ENDROOT
BRANCH   7   5
ATOM      1  C   UNL     1       4.253  -0.241   0.000  0.00  0.00    +0.097 C 
ATOM      2  C   UNL     1       4.253  -1.066   0.000  0.00  0.00    +0.227 A 
ATOM      3  N   UNL     1       4.920  -1.551   0.000  0.00  0.00    -0.112 NA
ATOM      4  N   UNL     1       4.666  -2.336   0.000  0.00  0.00    -0.112 NA
ATOM      5  C   UNL     1       3.841  -2.336   0.000  0.00  0.00    +0.227 A 
ATOM      6  O   UNL     1       3.586  -1.551   0.000  0.00  0.00    -0.423 OA
ENDBRANCH   7   5
BRANCH  12  14
ATOM     14  C   UNL     1       0.878  -3.491   0.000  0.00  0.00    +0.054 A 
ATOM     15  C   UNL     1       0.093  -3.746   0.000  0.00  0.00    +0.005 A 
ATOM     16  C   UNL     1      -0.520  -3.194   0.000  0.00  0.00    +0.000 A 
ATOM     17  C   UNL     1      -0.348  -2.387   0.000  0.00  0.00    +0.000 A 
ATOM     18  C   UNL     1       0.436  -2.132   0.000  0.00  0.00    +0.000 A 
ATOM     19  C   UNL     1       1.050  -2.684   0.000  0.00  0.00    +0.005 A 
ENDBRANCH  12  14
TORSDOF 2
