MODEL 1
REMARK VINA RESULT:     -11.6      0.000      0.000
REMARK  Name = 
REMARK  7 active torsions:
REMARK  status: ('A' for Active; 'I' for Inactive)
REMARK    1  A    between atoms: O_2  and  C_3
REMARK    2  A    between atoms: C_6  and  C_9
REMARK    3  A    between atoms: C_12  and  C_14
REMARK    4  A    between atoms: N_18  and  C_19
REMARK    5  A    between atoms: C_19  and  C_20
REMARK    6  A    between atoms: C_23  and  O_24
REMARK    7  A    between atoms: O_24  and  C_25
REMARK                            x       y       z     vdW  Elec       q    Type
REMARK                         _______ _______ _______ _____ _____    ______ ____
ROOT
ATOM     14  C   UNL     1      -5.013   1.958  25.323  0.00  0.00    +0.138 C 
ATOM     15  C   UNL     1      -5.645   2.156  25.816  0.00  0.00    +0.027 C 
ATOM     16  C   UNL     1      -5.545   2.937  26.058  0.00  0.00    +0.019 C 
ATOM     17  C   UNL     1      -4.851   3.224  25.717  0.00  0.00    +0.073 C 
ATOM     18  N   UNL     1      -4.522   2.618  25.262  0.00  0.00    -0.263 NA
ENDROOT
BRANCH  14  12
ATOM      9  C   UNL     1      -4.456  -0.006  24.701  0.00  0.00    +0.205 A 
ATOM     10  N   UNL     1      -4.961   0.218  24.088  0.00  0.00    -0.056 NA
ATOM     11  O   UNL     1      -5.231   0.982  24.246  0.00  0.00    -0.336 OA
ATOM     12  C   UNL     1      -4.893   1.229  24.957  0.00  0.00    +0.251 A 
ATOM     13  N   UNL     1      -4.414   0.618  25.238  0.00  0.00    -0.190 NA
BRANCH   9   6
ATOM      3  C   UNL     1      -3.274  -2.173  24.893  0.00  0.00    +0.225 A 
ATOM      4  N   UNL     1      -3.239  -1.627  25.510  0.00  0.00    -0.210 NA
ATOM      5  C   UNL     1      -3.633  -0.905  25.446  0.00  0.00    +0.105 A 
ATOM      6  C   UNL     1      -4.062  -0.728  24.765  0.00  0.00    +0.058 A 
ATOM      7  C   UNL     1      -4.098  -1.273  24.146  0.00  0.00    +0.010 A 
ATOM      8  C   UNL     1      -3.704  -1.996  24.210  0.00  0.00    +0.058 A 
BRANCH   3   2
ATOM      1  C   UNL     1      -2.158  -3.005  24.575  0.00  0.00    +0.254 C 
ATOM      2  O   UNL     1      -2.881  -2.895  24.957  0.00  0.00    -0.456 OA
ENDBRANCH   3   2
ENDBRANCH   9   6
ENDBRANCH  14  12
BRANCH  18  19
ATOM     19  C   UNL     1      -3.825   2.665  24.824  0.00  0.00    +0.099 C 
BRANCH  19  20
ATOM     20  C   UNL     1      -3.258   3.234  25.010  0.00  0.00    -0.006 A 
ATOM     21  C   UNL     1      -3.296   3.983  24.665  0.00  0.00    +0.000 A 
ATOM     22  C   UNL     1      -2.729   4.553  24.851  0.00  0.00    +0.037 A 
ATOM     23  C   UNL     1      -2.123   4.373  25.382  0.00  0.00    +0.147 A 
ATOM     29  C   UNL     1      -2.085   3.625  25.727  0.00  0.00    +0.037 A 
ATOM     30  C   UNL     1      -2.652   3.056  25.541  0.00  0.00    +0.000 A 
BRANCH  23  24
ATOM     24  O   UNL     1      -1.556   4.943  25.568  0.00  0.00    -0.404 OA
BRANCH  24  25
ATOM     25  C   UNL     1      -0.958   5.122  25.028  0.00  0.00    +0.575 C 
ATOM     26  F   UNL     1      -0.361   5.301  24.488  0.00  0.00    -0.133 F 
ATOM     27  F   UNL     1      -0.535   4.460  25.277  0.00  0.00    -0.133 F 
ATOM     28  F   UNL     1      -1.382   5.786  24.779  0.00  0.00    -0.133 F 
ENDBRANCH  24  25
ENDBRANCH  23  24
ENDBRANCH  19  20
ENDBRANCH  18  19
TORSDOF 7
ENDMDL
MODEL 2
REMARK VINA RESULT:     -11.5      2.721      5.499
REMARK  Name = 
REMARK  7 active torsions:
REMARK  status: ('A' for Active; 'I' for Inactive)
REMARK    1  A    between atoms: O_2  and  C_3
REMARK    2  A    between atoms: C_6  and  C_9
REMARK    3  A    between atoms: C_12  and  C_14
REMARK    4  A    between atoms: N_18  and  C_19
REMARK    5  A    between atoms: C_19  and  C_20
REMARK    6  A    between atoms: C_23  and  O_24
REMARK    7  A    between atoms: O_24  and  C_25
REMARK                            x       y       z     vdW  Elec       q    Type
REMARK                         _______ _______ _______ _____ _____    ______ ____
ROOT
ATOM     14  C   UNL     1      -4.940   1.907  25.002  0.00  0.00    +0.138 C 
ATOM     15  C   UNL     1      -5.649   2.034  25.406  0.00  0.00    +0.027 C 
ATOM     16  C   UNL     1      -5.975   1.298  25.584  0.00  0.00    +0.019 C 
ATOM     17  C   UNL     1      -5.469   0.716  25.290  0.00  0.00    +0.073 C 
ATOM     18  N   UNL     1      -4.829   1.093  24.930  0.00  0.00    -0.263 NA
ENDROOT
BRANCH  14  12
ATOM      9  C   UNL     1      -3.404   3.338  24.611  0.00  0.00    +0.205 A 
ATOM     10  N   UNL     1      -3.896   3.450  23.958  0.00  0.00    -0.056 NA
ATOM     11  O   UNL     1      -4.532   2.927  24.025  0.00  0.00    -0.336 OA
ATOM     12  C   UNL     1      -4.432   2.493  24.719  0.00  0.00    +0.251 A 
ATOM     13  N   UNL     1      -3.736   2.746  25.081  0.00  0.00    -0.190 NA
BRANCH   9   6
ATOM      3  C   UNL     1      -1.304   4.562  25.077  0.00  0.00    +0.225 A 
ATOM      4  N   UNL     1      -1.289   3.871  24.626  0.00  0.00    -0.210 NA
ATOM      5  C   UNL     1      -1.989   3.463  24.470  0.00  0.00    +0.105 A 
ATOM      6  C   UNL     1      -2.704   3.746  24.767  0.00  0.00    +0.058 A 
ATOM      7  C   UNL     1      -2.721   4.436  25.218  0.00  0.00    +0.010 A 
ATOM      8  C   UNL     1      -2.021   4.844  25.374  0.00  0.00    +0.058 A 
BRANCH   3   2
ATOM      1  C   UNL     1      -0.213   5.365  24.622  0.00  0.00    +0.254 C 
ATOM      2  O   UNL     1      -0.604   4.970  25.232  0.00  0.00    -0.456 OA
ENDBRANCH   3   2
ENDBRANCH   9   6
ENDBRANCH  14  12
BRANCH  18  19
ATOM     19  C   UNL     1      -4.191   0.721  24.564  0.00  0.00    +0.099 C 
BRANCH  19  20
ATOM     20  C   UNL     1      -4.041  -0.077  24.706  0.00  0.00    -0.006 A 
ATOM     21  C   UNL     1      -4.317  -0.649  24.180  0.00  0.00    +0.000 A 
ATOM     22  C   UNL     1      -4.167  -1.449  24.323  0.00  0.00    +0.037 A 
ATOM     23  C   UNL     1      -3.741  -1.675  24.992  0.00  0.00    +0.147 A 
ATOM     29  C   UNL     1      -3.466  -1.103  25.519  0.00  0.00    +0.037 A 
ATOM     30  C   UNL     1      -3.615  -0.305  25.376  0.00  0.00    +0.000 A 
BRANCH  23  24
ATOM     24  O   UNL     1      -3.591  -2.474  25.135  0.00  0.00    -0.404 OA
BRANCH  24  25
ATOM     25  C   UNL     1      -3.119  -2.905  24.613  0.00  0.00    +0.575 C 
ATOM     26  F   UNL     1      -2.647  -3.335  24.091  0.00  0.00    -0.133 F 
ATOM     27  F   UNL     1      -3.795  -3.201  24.245  0.00  0.00    -0.133 F 
ATOM     28  F   UNL     1      -2.442  -2.608  24.981  0.00  0.00    -0.133 F 
ENDBRANCH  24  25
ENDBRANCH  23  24
ENDBRANCH  19  20
ENDBRANCH  18  19
TORSDOF 7
ENDMDL
MODEL 3
REMARK VINA RESULT:     -10.9      3.417      6.308
REMARK  Name = 
REMARK  7 active torsions:
REMARK  status: ('A' for Active; 'I' for Inactive)
REMARK    1  A    between atoms: O_2  and  C_3
REMARK    2  A    between atoms: C_6  and  C_9
REMARK    3  A    between atoms: C_12  and  C_14
REMARK    4  A    between atoms: N_18  and  C_19
REMARK    5  A    between atoms: C_19  and  C_20
REMARK    6  A    between atoms: C_23  and  O_24
REMARK    7  A    between atoms: O_24  and  C_25
REMARK                            x       y       z     vdW  Elec       q    Type
REMARK                         _______ _______ _______ _____ _____    ______ ____
ROOT
ATOM     14  C   UNL     1      -0.548   0.470  24.788  0.00  0.00    +0.138 C 
ATOM     15  C   UNL     1       0.024   0.249  24.236  0.00  0.00    +0.027 C 
ATOM     16  C   UNL     1      -0.154  -0.513  23.974  0.00  0.00    +0.019 C 
ATOM     17  C   UNL     1      -0.837  -0.763  24.365  0.00  0.00    +0.073 C 
ATOM     18  N   UNL     1      -1.080  -0.155  24.868  0.00  0.00    -0.263 NA
ENDROOT
BRANCH  14  12
ATOM      9  C   UNL     1      -0.820   2.470  25.482  0.00  0.00    +0.205 A 
ATOM     10  N   UNL     1      -0.445   2.126  26.131  0.00  0.00    -0.056 NA
ATOM     11  O   UNL     1      -0.298   1.334  25.951  0.00  0.00    -0.336 OA
ATOM     12  C   UNL     1      -0.581   1.190  25.189  0.00  0.00    +0.251 A 
ATOM     13  N   UNL     1      -0.904   1.892  24.900  0.00  0.00    -0.190 NA
BRANCH   9   6
ATOM      3  C   UNL     1      -1.562   4.825  25.310  0.00  0.00    +0.225 A 
ATOM      4  N   UNL     1      -0.813   4.608  25.043  0.00  0.00    -0.210 NA
ATOM      5  C   UNL     1      -0.566   3.823  25.100  0.00  0.00    +0.105 A 
ATOM      6  C   UNL     1      -1.068   3.255  25.424  0.00  0.00    +0.058 A 
ATOM      7  C   UNL     1      -1.818   3.472  25.692  0.00  0.00    +0.010 A 
ATOM      8  C   UNL     1      -2.065   4.257  25.635  0.00  0.00    +0.058 A 
BRANCH   3   2
ATOM      1  C   UNL     1      -1.486   6.103  24.675  0.00  0.00    +0.254 C 
ATOM      2  O   UNL     1      -1.810   5.610  25.253  0.00  0.00    -0.456 OA
ENDBRANCH   3   2
ENDBRANCH   9   6
ENDBRANCH  14  12
BRANCH  18  19
ATOM     19  C   UNL     1      -1.739  -0.171  25.364  0.00  0.00    +0.099 C 
BRANCH  19  20
ATOM     20  C   UNL     1      -2.373  -0.668  25.191  0.00  0.00    -0.006 A 
ATOM     21  C   UNL     1      -2.379  -1.443  25.472  0.00  0.00    +0.000 A 
ATOM     22  C   UNL     1      -3.014  -1.941  25.299  0.00  0.00    +0.037 A 
ATOM     23  C   UNL     1      -3.644  -1.663  24.845  0.00  0.00    +0.147 A 
ATOM     29  C   UNL     1      -3.639  -0.887  24.564  0.00  0.00    +0.037 A 
ATOM     30  C   UNL     1      -3.004  -0.390  24.737  0.00  0.00    +0.000 A 
BRANCH  23  24
ATOM     24  O   UNL     1      -4.279  -2.160  24.672  0.00  0.00    -0.404 OA
BRANCH  24  25
ATOM     25  C   UNL     1      -4.318  -2.541  23.941  0.00  0.00    +0.575 C 
ATOM     26  F   UNL     1      -4.358  -2.921  23.210  0.00  0.00    -0.133 F 
ATOM     27  F   UNL     1      -4.730  -1.898  23.629  0.00  0.00    -0.133 F 
ATOM     28  F   UNL     1      -3.906  -3.184  24.253  0.00  0.00    -0.133 F 
ENDBRANCH  24  25
ENDBRANCH  23  24
ENDBRANCH  19  20
ENDBRANCH  18  19
TORSDOF 7
ENDMDL
MODEL 4
REMARK VINA RESULT:     -10.6      2.214      3.249
REMARK  Name = 
REMARK  7 active torsions:
REMARK  status: ('A' for Active; 'I' for Inactive)
REMARK    1  A    between atoms: O_2  and  C_3
REMARK    2  A    between atoms: C_6  and  C_9
REMARK    3  A    between atoms: C_12  and  C_14
REMARK    4  A    between atoms: N_18  and  C_19
REMARK    5  A    between atoms: C_19  and  C_20
REMARK    6  A    between atoms: C_23  and  O_24
REMARK    7  A    between atoms: O_24  and  C_25
REMARK                            x       y       z     vdW  Elec       q    Type
REMARK                         _______ _______ _______ _____ _____    ______ ____
ROOT
ATOM     14  C   UNL     1      -0.224   0.558  24.449  0.00  0.00    +0.138 C 
ATOM     15  C   UNL     1       0.320   0.594  23.829  0.00  0.00    +0.027 C 
ATOM     16  C   UNL     1       0.571   1.376  23.755  0.00  0.00    +0.019 C 
ATOM     17  C   UNL     1       0.182   1.824  24.328  0.00  0.00    +0.073 C 
ATOM     18  N   UNL     1      -0.310   1.318  24.757  0.00  0.00    -0.263 NA
ENDROOT
BRANCH  14  12
ATOM      9  C   UNL     1      -1.501  -1.111  24.826  0.00  0.00    +0.205 A 
ATOM     10  N   UNL     1      -0.928  -1.213  25.411  0.00  0.00    -0.056 NA
ATOM     11  O   UNL     1      -0.379  -0.600  25.341  0.00  0.00    -0.336 OA
ATOM     12  C   UNL     1      -0.614  -0.119  24.713  0.00  0.00    +0.251 A 
ATOM     13  N   UNL     1      -1.307  -0.435  24.395  0.00  0.00    -0.190 NA
BRANCH   9   6
ATOM      3  C   UNL     1      -3.458  -2.575  24.435  0.00  0.00    +0.225 A 
ATOM      4  N   UNL     1      -2.696  -2.859  24.299  0.00  0.00    -0.210 NA
ATOM      5  C   UNL     1      -2.043  -2.371  24.429  0.00  0.00    +0.105 A 
ATOM      6  C   UNL     1      -2.153  -1.599  24.696  0.00  0.00    +0.058 A 
ATOM      7  C   UNL     1      -2.915  -1.313  24.832  0.00  0.00    +0.010 A 
ATOM      8  C   UNL     1      -3.567  -1.801  24.702  0.00  0.00    +0.058 A 
BRANCH   3   2
ATOM      1  C   UNL     1      -4.601  -2.929  23.656  0.00  0.00    +0.254 C 
ATOM      2  O   UNL     1      -4.110  -3.063  24.305  0.00  0.00    -0.456 OA
ENDBRANCH   3   2
ENDBRANCH   9   6
ENDBRANCH  14  12
BRANCH  18  19
ATOM     19  C   UNL     1      -0.800   1.535  25.384  0.00  0.00    +0.099 C 
BRANCH  19  20
ATOM     20  C   UNL     1      -1.052   2.317  25.459  0.00  0.00    -0.006 A 
ATOM     21  C   UNL     1      -0.569   2.872  25.832  0.00  0.00    +0.000 A 
ATOM     22  C   UNL     1      -0.821   3.654  25.908  0.00  0.00    +0.037 A 
ATOM     23  C   UNL     1      -1.556   3.880  25.610  0.00  0.00    +0.147 A 
ATOM     29  C   UNL     1      -2.039   3.325  25.238  0.00  0.00    +0.037 A 
ATOM     30  C   UNL     1      -1.788   2.544  25.162  0.00  0.00    +0.000 A 
BRANCH  23  24
ATOM     24  O   UNL     1      -1.808   4.663  25.686  0.00  0.00    -0.404 OA
BRANCH  24  25
ATOM     25  C   UNL     1      -1.644   5.209  25.090  0.00  0.00    +0.575 C 
ATOM     26  F   UNL     1      -1.480   5.755  24.493  0.00  0.00    -0.133 F 
ATOM     27  F   UNL     1      -2.375   5.050  24.743  0.00  0.00    -0.133 F 
ATOM     28  F   UNL     1      -0.912   5.368  25.437  0.00  0.00    -0.133 F 
ENDBRANCH  24  25
ENDBRANCH  23  24
ENDBRANCH  19  20
ENDBRANCH  18  19
TORSDOF 7
ENDMDL
MODEL 5
REMARK VINA RESULT:     -10.6      3.411      4.563
REMARK  Name = 
REMARK  7 active torsions:
REMARK  status: ('A' for Active; 'I' for Inactive)
REMARK    1  A    between atoms: O_2  and  C_3
REMARK    2  A    between atoms: C_6  and  C_9
REMARK    3  A    between atoms: C_12  and  C_14
REMARK    4  A    between atoms: N_18  and  C_19
REMARK    5  A    between atoms: C_19  and  C_20
REMARK    6  A    between atoms: C_23  and  O_24
REMARK    7  A    between atoms: O_24  and  C_25
REMARK                            x       y       z     vdW  Elec       q    Type
REMARK                         _______ _______ _______ _____ _____    ______ ____
ROOT
ATOM     14  C   UNL     1      -1.020   3.951  25.179  0.00  0.00    +0.138 C 
ATOM     15  C   UNL     1      -0.797   4.704  24.928  0.00  0.00    +0.027 C 
ATOM     16  C   UNL     1      -1.435   5.212  25.047  0.00  0.00    +0.019 C 
ATOM     17  C   UNL     1      -2.054   4.773  25.371  0.00  0.00    +0.073 C 
ATOM     18  N   UNL     1      -1.797   3.993  25.453  0.00  0.00    -0.263 NA
ENDROOT
BRANCH  14  12
ATOM      9  C   UNL     1       0.066   2.167  24.737  0.00  0.00    +0.205 A 
ATOM     10  N   UNL     1       0.287   2.298  25.521  0.00  0.00    -0.056 NA
ATOM     11  O   UNL     1      -0.093   2.982  25.782  0.00  0.00    -0.336 OA
ATOM     12  C   UNL     1      -0.549   3.274  25.160  0.00  0.00    +0.251 A 
ATOM     13  N   UNL     1      -0.451   2.770  24.514  0.00  0.00    -0.190 NA
BRANCH   9   6
ATOM      3  C   UNL     1       0.819   0.293  23.306  0.00  0.00    +0.225 A 
ATOM      4  N   UNL     1       1.312   0.943  23.429  0.00  0.00    -0.210 NA
ATOM      5  C   UNL     1       1.061   1.568  23.906  0.00  0.00    +0.105 A 
ATOM      6  C   UNL     1       0.317   1.542  24.260  0.00  0.00    +0.058 A 
ATOM      7  C   UNL     1      -0.177   0.892  24.138  0.00  0.00    +0.010 A 
ATOM      8  C   UNL     1       0.074   0.267  23.662  0.00  0.00    +0.058 A 
BRANCH   3   2
ATOM      1  C   UNL     1       1.745  -0.248  22.361  0.00  0.00    +0.254 C 
ATOM      2  O   UNL     1       1.071  -0.332  22.830  0.00  0.00    -0.456 OA
ENDBRANCH   3   2
ENDBRANCH   9   6
ENDBRANCH  14  12
BRANCH  18  19
ATOM     19  C   UNL     1      -2.239   3.366  25.756  0.00  0.00    +0.099 C 
BRANCH  19  20
ATOM     20  C   UNL     1      -3.055   3.340  25.635  0.00  0.00    -0.006 A 
ATOM     21  C   UNL     1      -3.562   3.728  26.157  0.00  0.00    +0.000 A 
ATOM     22  C   UNL     1      -4.378   3.702  26.036  0.00  0.00    +0.037 A 
ATOM     23  C   UNL     1      -4.686   3.288  25.392  0.00  0.00    +0.147 A 
ATOM     29  C   UNL     1      -4.179   2.900  24.870  0.00  0.00    +0.037 A 
ATOM     30  C   UNL     1      -3.364   2.926  24.991  0.00  0.00    +0.000 A 
BRANCH  23  24
ATOM     24  O   UNL     1      -5.502   3.262  25.271  0.00  0.00    -0.404 OA
BRANCH  24  25
ATOM     25  C   UNL     1      -5.916   2.559  25.395  0.00  0.00    +0.575 C 
ATOM     26  F   UNL     1      -6.329   1.856  25.519  0.00  0.00    -0.133 F 
ATOM     27  F   UNL     1      -5.971   2.733  26.199  0.00  0.00    -0.133 F 
ATOM     28  F   UNL     1      -5.860   2.384  24.590  0.00  0.00    -0.133 F 
ENDBRANCH  24  25
ENDBRANCH  23  24
ENDBRANCH  19  20
ENDBRANCH  18  19
TORSDOF 7
ENDMDL
