MODEL 1
REMARK VINA RESULT:     -12.5      0.000      0.000
REMARK  Name = 
REMARK  5 active torsions:
REMARK  status: ('A' for Active; 'I' for Inactive)
REMARK    1  A    between atoms: N_2  and  C_4
REMARK    2  A    between atoms: C_7  and  C_10
REMARK    3  A    between atoms: C_13  and  C_15
REMARK    4  A    between atoms: N_18  and  C_19
REMARK    5  A    between atoms: C_19  and  C_20
REMARK                            x       y       z     vdW  Elec       q    Type
REMARK                         _______ _______ _______ _____ _____    ______ ____
ROOT
ATOM     10  C   UNL     1      -4.454   0.527  24.881  0.00  0.00    +0.250 A 
ATOM     11  N   UNL     1      -5.246   0.754  24.852  0.00  0.00    -0.107 NA
ATOM     12  N   UNL     1      -5.285   1.567  24.987  0.00  0.00    -0.111 NA
ATOM     13  C   UNL     1      -4.515   1.843  25.100  0.00  0.00    +0.227 A 
ATOM     14  O   UNL     1      -4.002   1.200  25.035  0.00  0.00    -0.419 OA
ENDROOT
BRANCH  10   7
ATOM      4  C   UNL     1      -3.586  -1.769  24.566  0.00  0.00    +0.048 A 
ATOM      5  C   UNL     1      -3.925  -1.365  23.930  0.00  0.00    +0.015 A 
ATOM      6  C   UNL     1      -4.214  -0.600  24.036  0.00  0.00    +0.006 A 
ATOM      7  C   UNL     1      -4.165  -0.238  24.776  0.00  0.00    +0.055 A 
ATOM      8  C   UNL     1      -3.826  -0.642  25.410  0.00  0.00    +0.006 A 
ATOM      9  C   UNL     1      -3.537  -1.407  25.305  0.00  0.00    +0.015 A 
BRANCH   4   2
ATOM      1  C   UNL     1      -2.486  -2.678  24.503  0.00  0.00    +0.112 C 
ATOM      2  N   UNL     1      -3.296  -2.534  24.460  0.00  0.00    -0.304 N 
ATOM      3  C   UNL     1      -3.819  -3.156  24.313  0.00  0.00    +0.112 C 
ENDBRANCH   4   2
ENDBRANCH  10   7
BRANCH  13  15
ATOM     15  C   UNL     1      -4.297   2.623  25.251  0.00  0.00    +0.096 C 
ATOM     16  C   UNL     1      -4.691   3.298  24.984  0.00  0.00    +0.028 C 
ATOM     17  C   UNL     1      -4.284   3.959  25.265  0.00  0.00    +0.073 C 
ATOM     18  N   UNL     1      -3.639   3.693  25.705  0.00  0.00    -0.268 NA
ATOM     27  C   UNL     1      -3.647   2.868  25.697  0.00  0.00    +0.082 C 
BRANCH  18  19
ATOM     19  C   UNL     1      -3.083   4.169  26.086  0.00  0.00    +0.099 C 
BRANCH  19  20
ATOM     20  C   UNL     1      -2.362   4.334  25.721  0.00  0.00    -0.006 A 
ATOM     21  C   UNL     1      -1.751   3.779  25.743  0.00  0.00    -0.002 A 
ATOM     22  C   UNL     1      -1.030   3.944  25.379  0.00  0.00    +0.011 A 
ATOM     23  C   UNL     1      -0.919   4.665  24.992  0.00  0.00    +0.058 A 
ATOM     24 CL   UNL     1      -0.198   4.830  24.627  0.00  0.00    -0.082 Cl
ATOM     25  C   UNL     1      -1.529   5.219  24.969  0.00  0.00    +0.011 A 
ATOM     26  C   UNL     1      -2.251   5.055  25.334  0.00  0.00    -0.002 A 
ENDBRANCH  19  20
ENDBRANCH  18  19
ENDBRANCH  13  15
TORSDOF 5
ENDMDL
MODEL 2
REMARK VINA RESULT:     -10.7      2.655      6.176
REMARK  Name = 
REMARK  5 active torsions:
REMARK  status: ('A' for Active; 'I' for Inactive)
REMARK    1  A    between atoms: N_2  and  C_4
REMARK    2  A    between atoms: C_7  and  C_10
REMARK    3  A    between atoms: C_13  and  C_15
REMARK    4  A    between atoms: N_18  and  C_19
REMARK    5  A    between atoms: C_19  and  C_20
REMARK                            x       y       z     vdW  Elec       q    Type
REMARK                         _______ _______ _______ _____ _____    ______ ____
ROOT
ATOM     10  C   UNL     1      -0.612   1.906  24.918  0.00  0.00    +0.250 A 
ATOM     11  N   UNL     1       0.108   1.580  24.683  0.00  0.00    -0.107 NA
ATOM     12  N   UNL     1       0.045   0.759  24.730  0.00  0.00    -0.111 NA
ATOM     13  C   UNL     1      -0.715   0.577  24.995  0.00  0.00    +0.227 A 
ATOM     14  O   UNL     1      -1.121   1.287  25.110  0.00  0.00    -0.419 OA
ENDROOT
BRANCH  10   7
ATOM      4  C   UNL     1      -1.151   4.319  25.025  0.00  0.00    +0.048 A 
ATOM      5  C   UNL     1      -0.719   4.021  24.388  0.00  0.00    +0.015 A 
ATOM      6  C   UNL     1      -0.539   3.216  24.352  0.00  0.00    +0.006 A 
ATOM      7  C   UNL     1      -0.791   2.711  24.954  0.00  0.00    +0.055 A 
ATOM      8  C   UNL     1      -1.222   3.009  25.590  0.00  0.00    +0.006 A 
ATOM      9  C   UNL     1      -1.402   3.813  25.626  0.00  0.00    +0.015 A 
BRANCH   4   2
ATOM      1  C   UNL     1      -0.784   5.680  24.795  0.00  0.00    +0.112 C 
ATOM      2  N   UNL     1      -1.330   5.124  25.061  0.00  0.00    -0.304 N 
ATOM      3  C   UNL     1      -2.057   5.371  25.364  0.00  0.00    +0.112 C 
ENDBRANCH   4   2
ENDBRANCH  10   7
BRANCH  13  15
ATOM     15  C   UNL     1      -1.016  -0.180  25.121  0.00  0.00    +0.096 C 
ATOM     16  C   UNL     1      -0.606  -0.889  25.020  0.00  0.00    +0.028 C 
ATOM     17  C   UNL     1      -1.117  -1.509  25.207  0.00  0.00    +0.073 C 
ATOM     18  N   UNL     1      -1.844  -1.183  25.424  0.00  0.00    -0.268 NA
ATOM     27  C   UNL     1      -1.782  -0.362  25.370  0.00  0.00    +0.082 C 
BRANCH  18  19
ATOM     19  C   UNL     1      -2.515  -1.605  25.653  0.00  0.00    +0.099 C 
BRANCH  19  20
ATOM     20  C   UNL     1      -3.076  -1.826  25.090  0.00  0.00    -0.006 A 
ATOM     21  C   UNL     1      -3.064  -2.588  24.773  0.00  0.00    -0.002 A 
ATOM     22  C   UNL     1      -3.625  -2.809  24.210  0.00  0.00    +0.011 A 
ATOM     23  C   UNL     1      -4.197  -2.268  23.964  0.00  0.00    +0.058 A 
ATOM     24 CL   UNL     1      -4.758  -2.489  23.401  0.00  0.00    -0.082 Cl
ATOM     25  C   UNL     1      -4.209  -1.507  24.280  0.00  0.00    +0.011 A 
ATOM     26  C   UNL     1      -3.648  -1.285  24.844  0.00  0.00    -0.002 A 
ENDBRANCH  19  20
ENDBRANCH  18  19
ENDBRANCH  13  15
TORSDOF 5
ENDMDL
MODEL 3
REMARK VINA RESULT:     -10.2      1.958      2.791
REMARK  Name = 
REMARK  5 active torsions:
REMARK  status: ('A' for Active; 'I' for Inactive)
REMARK    1  A    between atoms: N_2  and  C_4
REMARK    2  A    between atoms: C_7  and  C_10
REMARK    3  A    between atoms: C_13  and  C_15
REMARK    4  A    between atoms: N_18  and  C_19
REMARK    5  A    between atoms: C_19  and  C_20
REMARK                            x       y       z     vdW  Elec       q    Type
REMARK                         _______ _______ _______ _____ _____    ______ ____
ROOT
ATOM     10  C   UNL     1      -1.484  -0.230  24.971  0.00  0.00    +0.250 A 
ATOM     11  N   UNL     1      -0.661  -0.273  24.951  0.00  0.00    -0.107 NA
ATOM     12  N   UNL     1      -0.362   0.477  25.123  0.00  0.00    -0.111 NA
ATOM     13  C   UNL     1      -1.001   0.983  25.251  0.00  0.00    +0.227 A 
ATOM     14  O   UNL     1      -1.695   0.546  25.157  0.00  0.00    -0.419 OA
ENDROOT
BRANCH  10   7
ATOM      4  C   UNL     1      -3.049  -2.101  24.551  0.00  0.00    +0.048 A 
ATOM      5  C   UNL     1      -3.340  -1.363  24.781  0.00  0.00    +0.015 A 
ATOM      6  C   UNL     1      -2.818  -0.740  24.921  0.00  0.00    +0.006 A 
ATOM      7  C   UNL     1      -2.006  -0.854  24.831  0.00  0.00    +0.055 A 
ATOM      8  C   UNL     1      -1.716  -1.590  24.602  0.00  0.00    +0.006 A 
ATOM      9  C   UNL     1      -2.237  -2.214  24.462  0.00  0.00    +0.015 A 
BRANCH   4   2
ATOM      1  C   UNL     1      -3.483  -3.435  24.821  0.00  0.00    +0.112 C 
ATOM      2  N   UNL     1      -3.571  -2.725  24.411  0.00  0.00    -0.304 N 
ATOM      3  C   UNL     1      -4.180  -2.637  23.862  0.00  0.00    +0.112 C 
ENDBRANCH   4   2
ENDBRANCH  10   7
BRANCH  13  15
ATOM     15  C   UNL     1      -0.955   1.784  25.438  0.00  0.00    +0.096 C 
ATOM     16  C   UNL     1      -0.375   2.140  25.906  0.00  0.00    +0.028 C 
ATOM     17  C   UNL     1      -0.542   2.947  25.949  0.00  0.00    +0.073 C 
ATOM     18  N   UNL     1      -1.225   3.090  25.508  0.00  0.00    -0.268 NA
ATOM     27  C   UNL     1      -1.480   2.371  25.192  0.00  0.00    +0.082 C 
BRANCH  18  19
ATOM     19  C   UNL     1      -1.589   3.823  25.401  0.00  0.00    +0.099 C 
BRANCH  19  20
ATOM     20  C   UNL     1      -2.411   3.881  25.418  0.00  0.00    -0.006 A 
ATOM     21  C   UNL     1      -2.802   3.996  26.136  0.00  0.00    -0.002 A 
ATOM     22  C   UNL     1      -3.625   4.054  26.152  0.00  0.00    +0.011 A 
ATOM     23  C   UNL     1      -4.057   3.998  25.451  0.00  0.00    +0.058 A 
ATOM     24 CL   UNL     1      -4.879   4.057  25.468  0.00  0.00    -0.082 Cl
ATOM     25  C   UNL     1      -3.666   3.884  24.734  0.00  0.00    +0.011 A 
ATOM     26  C   UNL     1      -2.843   3.826  24.717  0.00  0.00    -0.002 A 
ENDBRANCH  19  20
ENDBRANCH  18  19
ENDBRANCH  13  15
TORSDOF 5
ENDMDL
MODEL 4
REMARK VINA RESULT:     -10.2      1.818      5.546
REMARK  Name = 
REMARK  5 active torsions:
REMARK  status: ('A' for Active; 'I' for Inactive)
REMARK    1  A    between atoms: N_2  and  C_4
REMARK    2  A    between atoms: C_7  and  C_10
REMARK    3  A    between atoms: C_13  and  C_15
REMARK    4  A    between atoms: N_18  and  C_19
REMARK    5  A    between atoms: C_19  and  C_20
REMARK                            x       y       z     vdW  Elec       q    Type
REMARK                         _______ _______ _______ _____ _____    ______ ____
ROOT
ATOM     10  C   UNL     1      -3.578   2.643  25.098  0.00  0.00    +0.250 A 
ATOM     11  N   UNL     1      -4.390   2.722  25.224  0.00  0.00    -0.107 NA
ATOM     12  N   UNL     1      -4.729   1.971  25.187  0.00  0.00    -0.111 NA
ATOM     13  C   UNL     1      -4.126   1.427  25.039  0.00  0.00    +0.227 A 
ATOM     14  O   UNL     1      -3.415   1.843  24.984  0.00  0.00    -0.419 OA
ENDROOT
BRANCH  10   7
ATOM      4  C   UNL     1      -1.924   4.484  25.069  0.00  0.00    +0.048 A 
ATOM      5  C   UNL     1      -2.379   4.349  25.745  0.00  0.00    +0.015 A 
ATOM      6  C   UNL     1      -2.931   3.735  25.754  0.00  0.00    +0.006 A 
ATOM      7  C   UNL     1      -3.027   3.257  25.089  0.00  0.00    +0.055 A 
ATOM      8  C   UNL     1      -2.573   3.392  24.414  0.00  0.00    +0.006 A 
ATOM      9  C   UNL     1      -2.021   4.006  24.405  0.00  0.00    +0.015 A 
BRANCH   4   2
ATOM      1  C   UNL     1      -0.568   4.928  25.001  0.00  0.00    +0.112 C 
ATOM      2  N   UNL     1      -1.373   5.098  25.060  0.00  0.00    -0.304 N 
ATOM      3  C   UNL     1      -1.627   5.881  25.108  0.00  0.00    +0.112 C 
ENDBRANCH   4   2
ENDBRANCH  10   7
BRANCH  13  15
ATOM     15  C   UNL     1      -4.218   0.612  24.960  0.00  0.00    +0.096 C 
ATOM     16  C   UNL     1      -4.719   0.229  24.427  0.00  0.00    +0.028 C 
ATOM     17  C   UNL     1      -4.636  -0.584  24.537  0.00  0.00    +0.073 C 
ATOM     18  N   UNL     1      -4.083  -0.705  25.137  0.00  0.00    -0.268 NA
ATOM     27  C   UNL     1      -3.824   0.034  25.398  0.00  0.00    +0.082 C 
BRANCH  18  19
ATOM     19  C   UNL     1      -3.832  -1.436  25.425  0.00  0.00    +0.099 C 
BRANCH  19  20
ATOM     20  C   UNL     1      -3.190  -1.819  25.076  0.00  0.00    -0.006 A 
ATOM     21  C   UNL     1      -3.318  -2.436  24.543  0.00  0.00    -0.002 A 
ATOM     22  C   UNL     1      -2.677  -2.819  24.193  0.00  0.00    +0.011 A 
ATOM     23  C   UNL     1      -1.907  -2.586  24.377  0.00  0.00    +0.058 A 
ATOM     24 CL   UNL     1      -1.265  -2.969  24.028  0.00  0.00    -0.082 Cl
ATOM     25  C   UNL     1      -1.779  -1.970  24.910  0.00  0.00    +0.011 A 
ATOM     26  C   UNL     1      -2.420  -1.586  25.260  0.00  0.00    -0.002 A 
ENDBRANCH  19  20
ENDBRANCH  18  19
ENDBRANCH  13  15
TORSDOF 5
ENDMDL
MODEL 5
REMARK VINA RESULT:      -9.7      2.444      3.498
REMARK  Name = 
REMARK  5 active torsions:
REMARK  status: ('A' for Active; 'I' for Inactive)
REMARK    1  A    between atoms: N_2  and  C_4
REMARK    2  A    between atoms: C_7  and  C_10
REMARK    3  A    between atoms: C_13  and  C_15
REMARK    4  A    between atoms: N_18  and  C_19
REMARK    5  A    between atoms: C_19  and  C_20
REMARK                            x       y       z     vdW  Elec       q    Type
REMARK                         _______ _______ _______ _____ _____    ______ ____
ROOT
ATOM     10  C   UNL     1      -0.890   1.191  25.294  0.00  0.00    +0.250 A 
ATOM     11  N   UNL     1      -0.262   1.710  25.424  0.00  0.00    -0.107 NA
ATOM     12  N   UNL     1      -0.566   2.476  25.461  0.00  0.00    -0.111 NA
ATOM     13  C   UNL     1      -1.383   2.431  25.354  0.00  0.00    +0.227 A 
ATOM     14  O   UNL     1      -1.583   1.636  25.250  0.00  0.00    -0.419 OA
ENDROOT
BRANCH  10   7
ATOM      4  C   UNL     1      -0.724  -1.268  25.074  0.00  0.00    +0.048 A 
ATOM      5  C   UNL     1      -1.098  -0.937  25.731  0.00  0.00    +0.015 A 
ATOM      6  C   UNL     1      -1.153  -0.117  25.804  0.00  0.00    +0.006 A 
ATOM      7  C   UNL     1      -0.835   0.371  25.221  0.00  0.00    +0.055 A 
ATOM      8  C   UNL     1      -0.461   0.041  24.564  0.00  0.00    +0.006 A 
ATOM      9  C   UNL     1      -0.406  -0.779  24.491  0.00  0.00    +0.015 A 
BRANCH   4   2
ATOM      1  C   UNL     1      -0.015  -2.486  25.307  0.00  0.00    +0.112 C 
ATOM      2  N   UNL     1      -0.669  -2.088  25.000  0.00  0.00    -0.304 N 
ATOM      3  C   UNL     1      -1.267  -2.509  24.619  0.00  0.00    +0.112 C 
ENDBRANCH   4   2
ENDBRANCH  10   7
BRANCH  13  15
ATOM     15  C   UNL     1      -1.908   3.067  25.350  0.00  0.00    +0.096 C 
ATOM     16  C   UNL     1      -1.755   3.823  25.643  0.00  0.00    +0.028 C 
ATOM     17  C   UNL     1      -2.431   4.283  25.526  0.00  0.00    +0.073 C 
ATOM     18  N   UNL     1      -3.000   3.811  25.162  0.00  0.00    -0.268 NA
ATOM     27  C   UNL     1      -2.677   3.059  25.053  0.00  0.00    +0.082 C 
BRANCH  18  19
ATOM     19  C   UNL     1      -3.760   4.048  24.945  0.00  0.00    +0.099 C 
BRANCH  19  20
ATOM     20  C   UNL     1      -4.397   3.533  25.041  0.00  0.00    -0.006 A 
ATOM     21  C   UNL     1      -4.595   3.004  24.439  0.00  0.00    -0.002 A 
ATOM     22  C   UNL     1      -5.232   2.489  24.536  0.00  0.00    +0.011 A 
ATOM     23  C   UNL     1      -5.671   2.501  25.234  0.00  0.00    +0.058 A 
ATOM     24 CL   UNL     1      -6.307   1.986  25.331  0.00  0.00    -0.082 Cl
ATOM     25  C   UNL     1      -5.473   3.029  25.836  0.00  0.00    +0.011 A 
ATOM     26  C   UNL     1      -4.836   3.545  25.740  0.00  0.00    -0.002 A 
ENDBRANCH  19  20
ENDBRANCH  18  19
ENDBRANCH  13  15
TORSDOF 5
ENDMDL
MODEL 6
REMARK VINA RESULT:      -9.7      3.248      4.421
REMARK  Name = 
REMARK  5 active torsions:
REMARK  status: ('A' for Active; 'I' for Inactive)
REMARK    1  A    between atoms: N_2  and  C_4
REMARK    2  A    between atoms: C_7  and  C_10
REMARK    3  A    between atoms: C_13  and  C_15
REMARK    4  A    between atoms: N_18  and  C_19
REMARK    5  A    between atoms: C_19  and  C_20
REMARK                            x       y       z     vdW  Elec       q    Type
REMARK                         _______ _______ _______ _____ _____    ______ ____
ROOT
ATOM     10  C   UNL     1      -0.311   1.735  24.774  0.00  0.00    +0.250 A 
ATOM     11  N   UNL     1      -0.224   1.768  25.593  0.00  0.00    -0.107 NA
ATOM     12  N   UNL     1      -0.818   2.254  25.895  0.00  0.00    -0.111 NA
ATOM     13  C   UNL     1      -1.274   2.522  25.261  0.00  0.00    +0.227 A 
ATOM     14  O   UNL     1      -0.960   2.201  24.568  0.00  0.00    -0.419 OA
ENDROOT
BRANCH  10   7
ATOM      4  C   UNL     1       1.121   0.463  23.207  0.00  0.00    +0.048 A 
ATOM      5  C   UNL     1       0.402   0.145  23.460  0.00  0.00    +0.015 A 
ATOM      6  C   UNL     1      -0.075   0.569  23.982  0.00  0.00    +0.006 A 
ATOM      7  C   UNL     1       0.166   1.311  24.251  0.00  0.00    +0.055 A 
ATOM      8  C   UNL     1       0.884   1.629  23.998  0.00  0.00    +0.006 A 
ATOM      9  C   UNL     1       1.361   1.205  23.476  0.00  0.00    +0.015 A 
BRANCH   4   2
ATOM      1  C   UNL     1       1.255  -0.442  22.110  0.00  0.00    +0.112 C 
ATOM      2  N   UNL     1       1.599   0.039  22.684  0.00  0.00    -0.304 N 
ATOM      3  C   UNL     1       2.420   0.097  22.737  0.00  0.00    +0.112 C 
ENDBRANCH   4   2
ENDBRANCH  10   7
BRANCH  13  15
ATOM     15  C   UNL     1      -1.927   3.022  25.311  0.00  0.00    +0.096 C 
ATOM     16  C   UNL     1      -2.002   3.674  25.812  0.00  0.00    +0.028 C 
ATOM     17  C   UNL     1      -2.742   4.014  25.679  0.00  0.00    +0.073 C 
ATOM     18  N   UNL     1      -3.125   3.573  25.097  0.00  0.00    -0.268 NA
ATOM     27  C   UNL     1      -2.621   2.960  24.869  0.00  0.00    +0.082 C 
BRANCH  18  19
ATOM     19  C   UNL     1      -3.879   3.718  24.795  0.00  0.00    +0.099 C 
BRANCH  19  20
ATOM     20  C   UNL     1      -4.502   3.209  24.977  0.00  0.00    -0.006 A 
ATOM     21  C   UNL     1      -4.943   3.328  25.665  0.00  0.00    -0.002 A 
ATOM     22  C   UNL     1      -5.566   2.819  25.848  0.00  0.00    +0.011 A 
ATOM     23  C   UNL     1      -5.748   2.192  25.343  0.00  0.00    +0.058 A 
ATOM     24 CL   UNL     1      -6.371   1.683  25.526  0.00  0.00    -0.082 Cl
ATOM     25  C   UNL     1      -5.307   2.074  24.656  0.00  0.00    +0.011 A 
ATOM     26  C   UNL     1      -4.684   2.583  24.473  0.00  0.00    -0.002 A 
ENDBRANCH  19  20
ENDBRANCH  18  19
ENDBRANCH  13  15
TORSDOF 5
ENDMDL
MODEL 7
REMARK VINA RESULT:      -9.6      3.105      4.398
REMARK  Name = 
REMARK  5 active torsions:
REMARK  status: ('A' for Active; 'I' for Inactive)
REMARK    1  A    between atoms: N_2  and  C_4
REMARK    2  A    between atoms: C_7  and  C_10
REMARK    3  A    between atoms: C_13  and  C_15
REMARK    4  A    between atoms: N_18  and  C_19
REMARK    5  A    between atoms: C_19  and  C_20
REMARK                            x       y       z     vdW  Elec       q    Type
REMARK                         _______ _______ _______ _____ _____    ______ ____
ROOT
ATOM     10  C   UNL     1      -0.967  -0.176  24.591  0.00  0.00    +0.250 A 
ATOM     11  N   UNL     1      -0.968  -0.425  25.378  0.00  0.00    -0.107 NA
ATOM     12  N   UNL     1      -1.746  -0.403  25.652  0.00  0.00    -0.111 NA
ATOM     13  C   UNL     1      -2.226  -0.140  25.034  0.00  0.00    +0.227 A 
ATOM     14  O   UNL     1      -1.744   0.001  24.379  0.00  0.00    -0.419 OA
ENDROOT
BRANCH  10   7
ATOM      4  C   UNL     1       1.020   0.010  23.127  0.00  0.00    +0.048 A 
ATOM      5  C   UNL     1       0.740  -0.733  23.351  0.00  0.00    +0.015 A 
ATOM      6  C   UNL     1       0.077  -0.795  23.839  0.00  0.00    +0.006 A 
ATOM      7  C   UNL     1      -0.305  -0.114  24.103  0.00  0.00    +0.055 A 
ATOM      8  C   UNL     1      -0.025   0.629  23.881  0.00  0.00    +0.006 A 
ATOM      9  C   UNL     1       0.637   0.691  23.393  0.00  0.00    +0.015 A 
BRANCH   4   2
ATOM      1  C   UNL     1       1.667  -0.250  21.881  0.00  0.00    +0.112 C 
ATOM      2  N   UNL     1       1.682   0.073  22.639  0.00  0.00    -0.304 N 
ATOM      3  C   UNL     1       2.360   0.457  22.911  0.00  0.00    +0.112 C 
ENDBRANCH   4   2
ENDBRANCH  10   7
BRANCH  13  15
ATOM     15  C   UNL     1      -3.043  -0.035  25.066  0.00  0.00    +0.096 C 
ATOM     16  C   UNL     1      -3.573  -0.483  25.514  0.00  0.00    +0.028 C 
ATOM     17  C   UNL     1      -4.332  -0.189  25.380  0.00  0.00    +0.073 C 
ATOM     18  N   UNL     1      -4.272   0.441  24.850  0.00  0.00    -0.268 NA
ATOM     27  C   UNL     1      -3.475   0.536  24.656  0.00  0.00    +0.082 C 
BRANCH  18  19
ATOM     19  C   UNL     1      -4.899   0.895  24.564  0.00  0.00    +0.099 C 
BRANCH  19  20
ATOM     20  C   UNL     1      -5.018   1.660  24.850  0.00  0.00    -0.006 A 
ATOM     21  C   UNL     1      -5.522   1.787  25.491  0.00  0.00    -0.002 A 
ATOM     22  C   UNL     1      -5.641   2.551  25.777  0.00  0.00    +0.011 A 
ATOM     23  C   UNL     1      -5.256   3.189  25.423  0.00  0.00    +0.058 A 
ATOM     24 CL   UNL     1      -5.375   3.953  25.709  0.00  0.00    -0.082 Cl
ATOM     25  C   UNL     1      -4.752   3.062  24.783  0.00  0.00    +0.011 A 
ATOM     26  C   UNL     1      -4.632   2.298  24.496  0.00  0.00    -0.002 A 
ENDBRANCH  19  20
ENDBRANCH  18  19
ENDBRANCH  13  15
TORSDOF 5
ENDMDL
MODEL 8
REMARK VINA RESULT:      -9.6      2.547      5.627
REMARK  Name = 
REMARK  5 active torsions:
REMARK  status: ('A' for Active; 'I' for Inactive)
REMARK    1  A    between atoms: N_2  and  C_4
REMARK    2  A    between atoms: C_7  and  C_10
REMARK    3  A    between atoms: C_13  and  C_15
REMARK    4  A    between atoms: N_18  and  C_19
REMARK    5  A    between atoms: C_19  and  C_20
REMARK                            x       y       z     vdW  Elec       q    Type
REMARK                         _______ _______ _______ _____ _____    ______ ____
ROOT
ATOM     10  C   UNL     1      -2.456   2.358  24.695  0.00  0.00    +0.250 A 
ATOM     11  N   UNL     1      -1.776   2.716  24.396  0.00  0.00    -0.107 NA
ATOM     12  N   UNL     1      -1.203   2.132  24.292  0.00  0.00    -0.111 NA
ATOM     13  C   UNL     1      -1.530   1.411  24.527  0.00  0.00    +0.227 A 
ATOM     14  O   UNL     1      -2.304   1.552  24.777  0.00  0.00    -0.419 OA
ENDROOT
BRANCH  10   7
ATOM      4  C   UNL     1      -4.579   3.502  25.253  0.00  0.00    +0.048 A 
ATOM      5  C   UNL     1      -3.892   3.676  25.677  0.00  0.00    +0.015 A 
ATOM      6  C   UNL     1      -3.185   3.294  25.492  0.00  0.00    +0.006 A 
ATOM      7  C   UNL     1      -3.164   2.739  24.881  0.00  0.00    +0.055 A 
ATOM      8  C   UNL     1      -3.849   2.566  24.457  0.00  0.00    +0.006 A 
ATOM      9  C   UNL     1      -4.556   2.947  24.643  0.00  0.00    +0.015 A 
BRANCH   4   2
ATOM      1  C   UNL     1      -5.936   3.445  25.695  0.00  0.00    +0.112 C 
ATOM      2  N   UNL     1      -5.286   3.884  25.438  0.00  0.00    -0.304 N 
ATOM      3  C   UNL     1      -5.343   4.704  25.367  0.00  0.00    +0.112 C 
ENDBRANCH   4   2
ENDBRANCH  10   7
BRANCH  13  15
ATOM     15  C   UNL     1      -1.149   0.680  24.515  0.00  0.00    +0.096 C 
ATOM     16  C   UNL     1      -0.442   0.507  24.127  0.00  0.00    +0.028 C 
ATOM     17  C   UNL     1      -0.265  -0.288  24.262  0.00  0.00    +0.073 C 
ATOM     18  N   UNL     1      -0.862  -0.606  24.733  0.00  0.00    -0.268 NA
ATOM     27  C   UNL     1      -1.409  -0.008  24.890  0.00  0.00    +0.082 C 
BRANCH  18  19
ATOM     19  C   UNL     1      -0.906  -1.386  25.001  0.00  0.00    +0.099 C 
BRANCH  19  20
ATOM     20  C   UNL     1      -1.589  -1.829  24.871  0.00  0.00    -0.006 A 
ATOM     21  C   UNL     1      -2.224  -1.770  25.395  0.00  0.00    -0.002 A 
ATOM     22  C   UNL     1      -2.908  -2.213  25.266  0.00  0.00    +0.011 A 
ATOM     23  C   UNL     1      -2.956  -2.715  24.612  0.00  0.00    +0.058 A 
ATOM     24 CL   UNL     1      -3.640  -3.158  24.483  0.00  0.00    -0.082 Cl
ATOM     25  C   UNL     1      -2.322  -2.774  24.089  0.00  0.00    +0.011 A 
ATOM     26  C   UNL     1      -1.638  -2.330  24.218  0.00  0.00    -0.002 A 
ENDBRANCH  19  20
ENDBRANCH  18  19
ENDBRANCH  13  15
TORSDOF 5
ENDMDL
MODEL 9
REMARK VINA RESULT:      -9.1      3.819      5.567
REMARK  Name = 
REMARK  5 active torsions:
REMARK  status: ('A' for Active; 'I' for Inactive)
REMARK    1  A    between atoms: N_2  and  C_4
REMARK    2  A    between atoms: C_7  and  C_10
REMARK    3  A    between atoms: C_13  and  C_15
REMARK    4  A    between atoms: N_18  and  C_19
REMARK    5  A    between atoms: C_19  and  C_20
REMARK                            x       y       z     vdW  Elec       q    Type
REMARK                         _______ _______ _______ _____ _____    ______ ____
ROOT
ATOM     10  C   UNL     1      -0.157   1.140  24.131  0.00  0.00    +0.250 A 
ATOM     11  N   UNL     1      -0.217   1.709  24.725  0.00  0.00    -0.107 NA
ATOM     12  N   UNL     1      -1.004   1.744  24.968  0.00  0.00    -0.111 NA
ATOM     13  C   UNL     1      -1.432   1.197  24.523  0.00  0.00    +0.227 A 
ATOM     14  O   UNL     1      -0.909   0.824  24.006  0.00  0.00    -0.419 OA
ENDROOT
BRANCH  10   7
ATOM      4  C   UNL     1       1.911   0.496  22.934  0.00  0.00    +0.048 A 
ATOM      5  C   UNL     1       1.224   0.048  22.841  0.00  0.00    +0.015 A 
ATOM      6  C   UNL     1       0.534   0.262  23.241  0.00  0.00    +0.006 A 
ATOM      7  C   UNL     1       0.532   0.925  23.732  0.00  0.00    +0.055 A 
ATOM      8  C   UNL     1       1.218   1.373  23.824  0.00  0.00    +0.006 A 
ATOM      9  C   UNL     1       1.907   1.158  23.425  0.00  0.00    +0.015 A 
BRANCH   4   2
ATOM      1  C   UNL     1       2.560  -0.227  21.887  0.00  0.00    +0.112 C 
ATOM      2  N   UNL     1       2.600   0.281  22.535  0.00  0.00    -0.304 N 
ATOM      3  C   UNL     1       3.330   0.575  22.785  0.00  0.00    +0.112 C 
ENDBRANCH   4   2
ENDBRANCH  10   7
BRANCH  13  15
ATOM     15  C   UNL     1      -2.241   1.049  24.585  0.00  0.00    +0.096 C 
ATOM     16  C   UNL     1      -2.846   1.549  24.330  0.00  0.00    +0.028 C 
ATOM     17  C   UNL     1      -3.567   1.184  24.499  0.00  0.00    +0.073 C 
ATOM     18  N   UNL     1      -3.407   0.459  24.858  0.00  0.00    -0.268 NA
ATOM     27  C   UNL     1      -2.588   0.375  24.910  0.00  0.00    +0.082 C 
BRANCH  18  19
ATOM     19  C   UNL     1      -3.968  -0.088  25.118  0.00  0.00    +0.099 C 
BRANCH  19  20
ATOM     20  C   UNL     1      -3.924  -0.874  24.871  0.00  0.00    -0.006 A 
ATOM     21  C   UNL     1      -4.251  -1.098  24.148  0.00  0.00    -0.002 A 
ATOM     22  C   UNL     1      -4.206  -1.884  23.901  0.00  0.00    +0.011 A 
ATOM     23  C   UNL     1      -3.835  -2.446  24.378  0.00  0.00    +0.058 A 
ATOM     24 CL   UNL     1      -3.790  -3.232  24.132  0.00  0.00    -0.082 Cl
ATOM     25  C   UNL     1      -3.508  -2.222  25.101  0.00  0.00    +0.011 A 
ATOM     26  C   UNL     1      -3.552  -1.435  25.348  0.00  0.00    -0.002 A 
ENDBRANCH  19  20
ENDBRANCH  18  19
ENDBRANCH  13  15
TORSDOF 5
ENDMDL
