MODEL 1
REMARK VINA RESULT:     -16.3      0.000      0.000
REMARK  Name = 
REMARK  4 active torsions:
REMARK  status: ('A' for Active; 'I' for Inactive)
REMARK    1  A    between atoms: C_5  and  C_6
REMARK    2  A    between atoms: C_7  and  C_8
REMARK    3  A    between atoms: N_14  and  S_16
REMARK    4  A    between atoms: S_16  and  C_19
REMARK                            x       y       z     vdW  Elec       q    Type
REMARK                         _______ _______ _______ _____ _____    ______ ____
ROOT
ATOM      8  C   UNL     1      -3.670   1.061  24.830  0.00  0.00    +0.012 A 
ATOM      9  C   UNL     1      -4.251   1.627  24.985  0.00  0.00    +0.041 A 
ATOM     10  C   UNL     1      -5.160   1.706  25.090  0.00  0.00    +0.056 C 
ATOM     11  C   UNL     1      -5.750   1.325  25.085  0.00  0.00    +0.011 C 
ATOM     12  C   UNL     1      -5.536   2.104  25.196  0.00  0.00    +0.041 C 
ATOM     13  C   UNL     1      -5.480   3.077  25.356  0.00  0.00    +0.098 C 
ATOM     14  N   UNL     1      -4.654   3.182  25.291  0.00  0.00    -0.155 NA
ATOM     15  C   UNL     1      -5.122   2.647  25.247  0.00  0.00    +0.102 C 
ATOM     25  C   UNL     1      -4.585   2.031  25.087  0.00  0.00    +0.110 C 
ATOM     26  N   UNL     1      -4.038   2.416  25.098  0.00  0.00    -0.299 N 
ATOM     27  C   UNL     1      -3.245   2.640  25.056  0.00  0.00    +0.261 A 
ATOM     28  O   UNL     1      -3.032   3.429  25.169  0.00  0.00    -0.267 OA
ATOM     29  C   UNL     1      -2.665   2.074  24.901  0.00  0.00    +0.061 A 
ATOM     30  C   UNL     1      -2.878   1.285  24.788  0.00  0.00    +0.006 A 
ENDROOT
BRANCH  14  16
ATOM     16  S   UNL     1      -3.925   3.570  25.283  0.00  0.00    +0.063 S 
ATOM     17  O   UNL     1      -4.001   3.697  24.471  0.00  0.00    -0.153 OA
ATOM     18  O   UNL     1      -3.849   3.442  26.095  0.00  0.00    -0.153 OA
BRANCH  16  19
ATOM     19  C   UNL     1      -3.197   3.958  25.276  0.00  0.00    +0.122 A 
ATOM     20  C   UNL     1      -2.897   4.258  24.569  0.00  0.00    +0.020 A 
ATOM     21  C   UNL     1      -2.168   4.646  24.562  0.00  0.00    +0.001 A 
ATOM     22  C   UNL     1      -1.741   4.733  25.261  0.00  0.00    +0.000 A 
ATOM     23  C   UNL     1      -2.041   4.433  25.968  0.00  0.00    +0.001 A 
ATOM     24  C   UNL     1      -2.769   4.045  25.976  0.00  0.00    +0.020 A 
ENDBRANCH  16  19
ENDBRANCH  14  16
BRANCH   8   7
ATOM      6  C   UNL     1      -3.301  -0.297  24.587  0.00  0.00    +0.000 C 
ATOM      7  C   UNL     1      -3.883   0.272  24.717  0.00  0.00    +0.001 C 
BRANCH   6   5
ATOM      1 CL   UNL     1      -4.152  -3.453  24.135  0.00  0.00    -0.082 Cl
ATOM      2  C   UNL     1      -3.939  -2.665  24.248  0.00  0.00    +0.058 A 
ATOM      3  C   UNL     1      -4.161  -2.094  23.694  0.00  0.00    +0.011 A 
ATOM      4  C   UNL     1      -3.948  -1.305  23.807  0.00  0.00    +0.001 A 
ATOM      5  C   UNL     1      -3.514  -1.086  24.474  0.00  0.00    +0.000 A 
ATOM     31  C   UNL     1      -3.292  -1.657  25.027  0.00  0.00    +0.001 A 
ATOM     32  C   UNL     1      -3.505  -2.446  24.914  0.00  0.00    +0.011 A 
ENDBRANCH   6   5
ENDBRANCH   8   7
TORSDOF 4
ENDMDL
MODEL 2
REMARK VINA RESULT:     -14.9      2.403      4.807
REMARK  Name = 
REMARK  4 active torsions:
REMARK  status: ('A' for Active; 'I' for Inactive)
REMARK    1  A    between atoms: C_5  and  C_6
REMARK    2  A    between atoms: C_7  and  C_8
REMARK    3  A    between atoms: N_14  and  S_16
REMARK    4  A    between atoms: S_16  and  C_19
REMARK                            x       y       z     vdW  Elec       q    Type
REMARK                         _______ _______ _______ _____ _____    ______ ____
ROOT
ATOM      8  C   UNL     1      -2.725   1.716  24.799  0.00  0.00    +0.012 A 
ATOM      9  C   UNL     1      -3.531   1.543  24.795  0.00  0.00    +0.041 A 
ATOM     10  C   UNL     1      -4.350   1.959  24.773  0.00  0.00    +0.056 C 
ATOM     11  C   UNL     1      -4.643   2.597  24.749  0.00  0.00    +0.011 C 
ATOM     12  C   UNL     1      -4.890   1.821  24.771  0.00  0.00    +0.041 C 
ATOM     13  C   UNL     1      -5.379   0.962  24.792  0.00  0.00    +0.098 C 
ATOM     14  N   UNL     1      -4.732   0.434  24.816  0.00  0.00    -0.155 NA
ATOM     15  C   UNL     1      -4.837   1.138  24.793  0.00  0.00    +0.102 C 
ATOM     25  C   UNL     1      -4.039   1.377  24.794  0.00  0.00    +0.110 C 
ATOM     26  N   UNL     1      -3.785   0.758  24.816  0.00  0.00    -0.299 N 
ATOM     27  C   UNL     1      -3.232   0.146  24.842  0.00  0.00    +0.261 A 
ATOM     28  O   UNL     1      -3.486  -0.638  24.863  0.00  0.00    -0.267 OA
ATOM     29  C   UNL     1      -2.426   0.319  24.845  0.00  0.00    +0.061 A 
ATOM     30  C   UNL     1      -2.172   1.104  24.824  0.00  0.00    +0.006 A 
ENDROOT
BRANCH  14  16
ATOM     16  S   UNL     1      -4.325  -0.284  24.843  0.00  0.00    +0.063 S 
ATOM     17  O   UNL     1      -4.326  -0.253  25.667  0.00  0.00    -0.153 OA
ATOM     18  O   UNL     1      -4.324  -0.314  24.018  0.00  0.00    -0.153 OA
BRANCH  16  19
ATOM     19  C   UNL     1      -3.918  -1.001  24.870  0.00  0.00    +0.122 A 
ATOM     20  C   UNL     1      -3.665  -1.305  25.593  0.00  0.00    +0.020 A 
ATOM     21  C   UNL     1      -3.258  -2.022  25.620  0.00  0.00    +0.001 A 
ATOM     22  C   UNL     1      -3.104  -2.435  24.923  0.00  0.00    +0.000 A 
ATOM     23  C   UNL     1      -3.357  -2.131  24.199  0.00  0.00    +0.001 A 
ATOM     24  C   UNL     1      -3.764  -1.414  24.172  0.00  0.00    +0.020 A 
ENDBRANCH  16  19
ENDBRANCH  14  16
BRANCH   8   7
ATOM      6  C   UNL     1      -1.689   2.687  24.963  0.00  0.00    +0.000 C 
ATOM      7  C   UNL     1      -2.471   2.501  24.777  0.00  0.00    +0.001 C 
BRANCH   6   5
ATOM      1 CL   UNL     1      -0.675   5.826  24.877  0.00  0.00    -0.082 Cl
ATOM      2  C   UNL     1      -0.928   5.042  24.899  0.00  0.00    +0.058 A 
ATOM      3  C   UNL     1      -1.564   4.826  25.379  0.00  0.00    +0.011 A 
ATOM      4  C   UNL     1      -1.817   4.042  25.400  0.00  0.00    +0.001 A 
ATOM      5  C   UNL     1      -1.436   3.472  24.942  0.00  0.00    +0.000 A 
ATOM     31  C   UNL     1      -0.800   3.687  24.462  0.00  0.00    +0.001 A 
ATOM     32  C   UNL     1      -0.547   4.472  24.440  0.00  0.00    +0.011 A 
ENDBRANCH   6   5
ENDBRANCH   8   7
TORSDOF 4
ENDMDL
MODEL 3
REMARK VINA RESULT:     -13.9      1.612      2.769
REMARK  Name = 
REMARK  4 active torsions:
REMARK  status: ('A' for Active; 'I' for Inactive)
REMARK    1  A    between atoms: C_5  and  C_6
REMARK    2  A    between atoms: C_7  and  C_8
REMARK    3  A    between atoms: N_14  and  S_16
REMARK    4  A    between atoms: S_16  and  C_19
REMARK                            x       y       z     vdW  Elec       q    Type
REMARK                         _______ _______ _______ _____ _____    ______ ____
ROOT
ATOM      8  C   UNL     1      -2.411   0.840  24.735  0.00  0.00    +0.012 A 
ATOM      9  C   UNL     1      -1.621   1.076  24.758  0.00  0.00    +0.041 A 
ATOM     10  C   UNL     1      -0.772   0.739  24.660  0.00  0.00    +0.056 C 
ATOM     11  C   UNL     1      -0.430   0.141  24.526  0.00  0.00    +0.011 C 
ATOM     12  C   UNL     1      -0.245   0.919  24.680  0.00  0.00    +0.041 C 
ATOM     13  C   UNL     1       0.174   1.799  24.847  0.00  0.00    +0.098 C 
ATOM     14  N   UNL     1      -0.513   2.260  24.965  0.00  0.00    -0.155 NA
ATOM     15  C   UNL     1      -0.353   1.582  24.820  0.00  0.00    +0.102 C 
ATOM     25  C   UNL     1      -1.128   1.281  24.784  0.00  0.00    +0.110 C 
ATOM     26  N   UNL     1      -1.431   1.864  24.914  0.00  0.00    -0.299 N 
ATOM     27  C   UNL     1      -2.030   2.415  25.047  0.00  0.00    +0.261 A 
ATOM     28  O   UNL     1      -1.839   3.203  25.203  0.00  0.00    -0.267 OA
ATOM     29  C   UNL     1      -2.820   2.179  25.024  0.00  0.00    +0.061 A 
ATOM     30  C   UNL     1      -3.010   1.391  24.868  0.00  0.00    +0.006 A 
ENDROOT
BRANCH  14  16
ATOM     16  S   UNL     1      -0.975   2.927  25.118  0.00  0.00    +0.063 S 
ATOM     17  O   UNL     1      -0.950   2.760  25.926  0.00  0.00    -0.153 OA
ATOM     18  O   UNL     1      -1.001   3.094  24.310  0.00  0.00    -0.153 OA
BRANCH  16  19
ATOM     19  C   UNL     1      -1.438   3.593  25.270  0.00  0.00    +0.122 A 
ATOM     20  C   UNL     1      -1.764   3.706  26.019  0.00  0.00    +0.020 A 
ATOM     21  C   UNL     1      -2.227   4.372  26.172  0.00  0.00    +0.001 A 
ATOM     22  C   UNL     1      -2.362   4.925  25.575  0.00  0.00    +0.000 A 
ATOM     23  C   UNL     1      -2.036   4.812  24.826  0.00  0.00    +0.001 A 
ATOM     24  C   UNL     1      -1.574   4.146  24.673  0.00  0.00    +0.020 A 
ENDBRANCH  16  19
ENDBRANCH  14  16
BRANCH   8   7
ATOM      6  C   UNL     1      -3.360  -0.228  24.741  0.00  0.00    +0.000 C 
ATOM      7  C   UNL     1      -2.602   0.053  24.579  0.00  0.00    +0.001 C 
BRANCH   6   5
ATOM      1 CL   UNL     1      -4.122  -3.377  24.117  0.00  0.00    -0.082 Cl
ATOM      2  C   UNL     1      -3.932  -2.591  24.273  0.00  0.00    +0.058 A 
ATOM      3  C   UNL     1      -3.532  -2.392  24.966  0.00  0.00    +0.011 A 
ATOM      4  C   UNL     1      -3.341  -1.605  25.122  0.00  0.00    +0.001 A 
ATOM      5  C   UNL     1      -3.551  -1.016  24.585  0.00  0.00    +0.000 A 
ATOM     31  C   UNL     1      -3.951  -1.213  23.891  0.00  0.00    +0.001 A 
ATOM     32  C   UNL     1      -4.142  -2.001  23.735  0.00  0.00    +0.011 A 
ENDBRANCH   6   5
ENDBRANCH   8   7
TORSDOF 4
ENDMDL
MODEL 4
REMARK VINA RESULT:     -13.4      1.048      2.009
REMARK  Name = 
REMARK  4 active torsions:
REMARK  status: ('A' for Active; 'I' for Inactive)
REMARK    1  A    between atoms: C_5  and  C_6
REMARK    2  A    between atoms: C_7  and  C_8
REMARK    3  A    between atoms: N_14  and  S_16
REMARK    4  A    between atoms: S_16  and  C_19
REMARK                            x       y       z     vdW  Elec       q    Type
REMARK                         _______ _______ _______ _____ _____    ______ ____
ROOT
ATOM      8  C   UNL     1      -3.504   0.658  24.604  0.00  0.00    +0.012 A 
ATOM      9  C   UNL     1      -2.905   1.189  24.406  0.00  0.00    +0.041 A 
ATOM     10  C   UNL     1      -2.065   1.209  24.034  0.00  0.00    +0.056 C 
ATOM     11  C   UNL     1      -1.573   0.790  23.760  0.00  0.00    +0.011 C 
ATOM     12  C   UNL     1      -1.672   1.585  23.908  0.00  0.00    +0.041 C 
ATOM     13  C   UNL     1      -1.603   2.566  24.005  0.00  0.00    +0.098 C 
ATOM     14  N   UNL     1      -2.344   2.724  24.356  0.00  0.00    -0.155 NA
ATOM     15  C   UNL     1      -1.983   2.157  24.121  0.00  0.00    +0.102 C 
ATOM     25  C   UNL     1      -2.549   1.573  24.297  0.00  0.00    +0.110 C 
ATOM     26  N   UNL     1      -3.001   1.995  24.554  0.00  0.00    -0.299 N 
ATOM     27  C   UNL     1      -3.697   2.270  24.900  0.00  0.00    +0.261 A 
ATOM     28  O   UNL     1      -3.794   3.076  25.048  0.00  0.00    -0.267 OA
ATOM     29  C   UNL     1      -4.297   1.740  25.098  0.00  0.00    +0.061 A 
ATOM     30  C   UNL     1      -4.201   0.934  24.950  0.00  0.00    +0.006 A 
ENDROOT
BRANCH  14  16
ATOM     16  S   UNL     1      -2.961   3.160  24.688  0.00  0.00    +0.063 S 
ATOM     17  O   UNL     1      -3.301   3.248  23.941  0.00  0.00    -0.153 OA
ATOM     18  O   UNL     1      -2.621   3.073  25.435  0.00  0.00    -0.153 OA
BRANCH  16  19
ATOM     19  C   UNL     1      -3.578   3.597  25.019  0.00  0.00    +0.122 A 
ATOM     20  C   UNL     1      -4.196   3.865  24.544  0.00  0.00    +0.020 A 
ATOM     21  C   UNL     1      -4.813   4.301  24.875  0.00  0.00    +0.001 A 
ATOM     22  C   UNL     1      -4.811   4.469  25.683  0.00  0.00    +0.000 A 
ATOM     23  C   UNL     1      -4.193   4.201  26.159  0.00  0.00    +0.001 A 
ATOM     24  C   UNL     1      -3.576   3.765  25.827  0.00  0.00    +0.020 A 
ENDBRANCH  16  19
ENDBRANCH  14  16
BRANCH   8   7
ATOM      6  C   UNL     1      -3.976  -0.686  24.717  0.00  0.00    +0.000 C 
ATOM      7  C   UNL     1      -3.408  -0.148  24.456  0.00  0.00    +0.001 C 
BRANCH   6   5
ATOM      1 CL   UNL     1      -3.590  -3.909  24.126  0.00  0.00    -0.082 Cl
ATOM      2  C   UNL     1      -3.687  -3.104  24.274  0.00  0.00    +0.058 A 
ATOM      3  C   UNL     1      -4.100  -2.632  23.737  0.00  0.00    +0.011 A 
ATOM      4  C   UNL     1      -4.196  -1.827  23.885  0.00  0.00    +0.001 A 
ATOM      5  C   UNL     1      -3.880  -1.492  24.569  0.00  0.00    +0.000 A 
ATOM     31  C   UNL     1      -3.467  -1.963  25.106  0.00  0.00    +0.001 A 
ATOM     32  C   UNL     1      -3.370  -2.769  24.958  0.00  0.00    +0.011 A 
ENDBRANCH   6   5
ENDBRANCH   8   7
TORSDOF 4
ENDMDL
MODEL 5
REMARK VINA RESULT:     -13.0      3.022      5.621
REMARK  Name = 
REMARK  4 active torsions:
REMARK  status: ('A' for Active; 'I' for Inactive)
REMARK    1  A    between atoms: C_5  and  C_6
REMARK    2  A    between atoms: C_7  and  C_8
REMARK    3  A    between atoms: N_14  and  S_16
REMARK    4  A    between atoms: S_16  and  C_19
REMARK                            x       y       z     vdW  Elec       q    Type
REMARK                         _______ _______ _______ _____ _____    ______ ____
ROOT
ATOM      8  C   UNL     1      -2.064   1.007  24.866  0.00  0.00    +0.012 A 
ATOM      9  C   UNL     1      -1.481   0.444  24.715  0.00  0.00    +0.041 A 
ATOM     10  C   UNL     1      -0.578   0.376  24.559  0.00  0.00    +0.056 C 
ATOM     11  C   UNL     1       0.002   0.767  24.501  0.00  0.00    +0.011 C 
ATOM     12  C   UNL     1      -0.199  -0.021  24.458  0.00  0.00    +0.041 C 
ATOM     13  C   UNL     1      -0.242  -1.004  24.370  0.00  0.00    +0.098 C 
ATOM     14  N   UNL     1      -1.060  -1.120  24.494  0.00  0.00    -0.155 NA
ATOM     15  C   UNL     1      -0.603  -0.575  24.471  0.00  0.00    +0.102 C 
ATOM     25  C   UNL     1      -1.144   0.040  24.620  0.00  0.00    +0.110 C 
ATOM     26  N   UNL     1      -1.681  -0.355  24.671  0.00  0.00    -0.299 N 
ATOM     27  C   UNL     1      -2.464  -0.591  24.777  0.00  0.00    +0.261 A 
ATOM     28  O   UNL     1      -2.664  -1.391  24.733  0.00  0.00    -0.267 OA
ATOM     29  C   UNL     1      -3.047  -0.028  24.928  0.00  0.00    +0.061 A 
ATOM     30  C   UNL     1      -2.847   0.771  24.972  0.00  0.00    +0.006 A 
ENDROOT
BRANCH  14  16
ATOM     16  S   UNL     1      -1.777  -1.521  24.574  0.00  0.00    +0.063 S 
ATOM     17  O   UNL     1      -1.641  -1.604  25.384  0.00  0.00    -0.153 OA
ATOM     18  O   UNL     1      -1.913  -1.439  23.764  0.00  0.00    -0.153 OA
BRANCH  16  19
ATOM     19  C   UNL     1      -2.494  -1.922  24.653  0.00  0.00    +0.122 A 
ATOM     20  C   UNL     1      -2.729  -2.203  25.392  0.00  0.00    +0.020 A 
ATOM     21  C   UNL     1      -3.446  -2.604  25.472  0.00  0.00    +0.001 A 
ATOM     22  C   UNL     1      -3.927  -2.724  24.812  0.00  0.00    +0.000 A 
ATOM     23  C   UNL     1      -3.691  -2.443  24.074  0.00  0.00    +0.001 A 
ATOM     24  C   UNL     1      -2.974  -2.042  23.994  0.00  0.00    +0.020 A 
ENDBRANCH  16  19
ENDBRANCH  14  16
BRANCH   8   7
ATOM      6  C   UNL     1      -2.446   2.369  25.071  0.00  0.00    +0.000 C 
ATOM      7  C   UNL     1      -1.864   1.807  24.910  0.00  0.00    +0.001 C 
BRANCH   6   5
ATOM      1 CL   UNL     1      -1.646   5.565  25.248  0.00  0.00    -0.082 Cl
ATOM      2  C   UNL     1      -1.846   4.767  25.204  0.00  0.00    +0.058 A 
ATOM      3  C   UNL     1      -1.948   4.327  25.895  0.00  0.00    +0.011 A 
ATOM      4  C   UNL     1      -2.148   3.529  25.851  0.00  0.00    +0.001 A 
ATOM      5  C   UNL     1      -2.246   3.168  25.115  0.00  0.00    +0.000 A 
ATOM     31  C   UNL     1      -2.144   3.607  24.424  0.00  0.00    +0.001 A 
ATOM     32  C   UNL     1      -1.944   4.406  24.468  0.00  0.00    +0.011 A 
ENDBRANCH   6   5
ENDBRANCH   8   7
TORSDOF 4
ENDMDL
