MODEL 1
REMARK VINA RESULT:      -9.3      0.000      0.000
REMARK  Name = 
REMARK  10 active torsions:
REMARK  status: ('A' for Active; 'I' for Inactive)
REMARK    1  A    between atoms: O_2  and  C_3
REMARK    2  A    between atoms: C_3  and  C_4
REMARK    3  A    between atoms: C_11  and  C_12
REMARK    4  A    between atoms: N_14  and  C_15
REMARK    5  A    between atoms: C_15  and  C_16
REMARK    6  A    between atoms: C_15  and  C_25
REMARK    7  A    between atoms: C_16  and  C_17
REMARK    8  A    between atoms: C_20  and  O_21
REMARK    9  A    between atoms: C_25  and  O_27
REMARK   10  A    between atoms: N_31  and  C_32
REMARK                            x       y       z     vdW  Elec       q    Type
REMARK                         _______ _______ _______ _____ _____    ______ ____
ROOT
ATOM      4  C   UNL     1      -2.489  -1.284  25.106  0.00  0.00    +0.256 C 
ATOM      5  O   UNL     1      -2.795  -2.045  25.199  0.00  0.00    -0.272 OA
ATOM      6  N   UNL     1      -2.994  -0.633  25.112  0.00  0.00    -0.268 N 
ATOM      7  C   UNL     1      -3.807  -0.742  25.211  0.00  0.00    +0.115 C 
ATOM      8  C   UNL     1      -4.313  -0.090  25.217  0.00  0.00    +0.117 C 
ATOM      9  N   UNL     1      -4.006   0.670  25.124  0.00  0.00    -0.259 N 
ATOM     10  C   UNL     1      -3.195   0.779  25.026  0.00  0.00    +0.124 C 
ATOM     11  C   UNL     1      -2.689   0.128  25.020  0.00  0.00    +0.174 C 
ATOM     29  C   UNL     1      -4.513   1.323  25.131  0.00  0.00    +0.323 C 
ATOM     30  O   UNL     1      -4.207   2.083  25.038  0.00  0.00    -0.251 OA
ATOM     31  N   UNL     1      -5.325   1.213  25.229  0.00  0.00    -0.190 NA
ENDROOT
BRANCH  11  12
ATOM     12  C   UNL     1      -1.877   0.236  24.921  0.00  0.00    +0.262 C 
ATOM     13  O   UNL     1      -1.345  -0.243  25.331  0.00  0.00    -0.271 OA
ATOM     14  N   UNL     1      -1.598   0.822  24.413  0.00  0.00    -0.194 NA
BRANCH  14  15
ATOM     15  C   UNL     1      -0.786   0.930  24.314  0.00  0.00    +0.198 C 
BRANCH  15  25
ATOM     25  C   UNL     1      -0.409   0.637  23.640  0.00  0.00    +0.337 C 
ATOM     26  O   UNL     1      -0.795   0.657  22.912  0.00  0.00    -0.248 OA
BRANCH  25  27
ATOM     27  O   UNL     1       0.352   0.325  23.696  0.00  0.00    -0.443 OA
ATOM     28  C   UNL     1       0.755   0.096  23.014  0.00  0.00    +0.256 C 
ENDBRANCH  25  27
ENDBRANCH  15  25
BRANCH  15  16
ATOM     16  C   UNL     1      -0.350   1.331  24.889  0.00  0.00    +0.059 C 
BRANCH  16  17
ATOM     17  C   UNL     1      -0.438   2.146  24.979  0.00  0.00    -0.020 A 
ATOM     18  C   UNL     1      -0.484   2.632  24.314  0.00  0.00    -0.001 A 
ATOM     19  C   UNL     1      -0.572   3.447  24.405  0.00  0.00    +0.037 A 
ATOM     20  C   UNL     1      -0.615   3.776  25.161  0.00  0.00    +0.139 A 
ATOM     23  C   UNL     1      -0.569   3.290  25.825  0.00  0.00    +0.037 A 
ATOM     24  C   UNL     1      -0.481   2.475  25.735  0.00  0.00    -0.001 A 
BRANCH  20  21
ATOM     21  O   UNL     1      -0.703   4.592  25.251  0.00  0.00    -0.471 OA
ATOM     22  C   UNL     1      -1.446   4.938  25.156  0.00  0.00    +0.252 C 
ENDBRANCH  20  21
ENDBRANCH  16  17
ENDBRANCH  15  16
ENDBRANCH  14  15
ENDBRANCH  11  12
BRANCH  31  32
ATOM     32  C   UNL     1      -5.831   1.865  25.236  0.00  0.00    +0.097 C 
ATOM     33  C   UNL     1      -5.823   2.387  25.873  0.00  0.00    +0.023 C 
ATOM     34  C   UNL     1      -6.345   1.994  24.603  0.00  0.00    +0.023 C 
ENDBRANCH  31  32
BRANCH   4   3
ATOM      3  C   UNL     1      -1.677  -1.175  25.007  0.00  0.00    +0.227 C 
BRANCH   3   2
ATOM      1  C   UNL     1      -1.116  -2.452  24.700  0.00  0.00    +0.175 C 
ATOM      2  O   UNL     1      -1.154  -1.788  25.186  0.00  0.00    -0.342 OA
ENDBRANCH   3   2
ENDBRANCH   4   3
TORSDOF 10
ENDMDL
MODEL 2
REMARK VINA RESULT:      -9.2      1.366      5.339
REMARK  Name = 
REMARK  10 active torsions:
REMARK  status: ('A' for Active; 'I' for Inactive)
REMARK    1  A    between atoms: O_2  and  C_3
REMARK    2  A    between atoms: C_3  and  C_4
REMARK    3  A    between atoms: C_11  and  C_12
REMARK    4  A    between atoms: N_14  and  C_15
REMARK    5  A    between atoms: C_15  and  C_16
REMARK    6  A    between atoms: C_15  and  C_25
REMARK    7  A    between atoms: C_16  and  C_17
REMARK    8  A    between atoms: C_20  and  O_21
REMARK    9  A    between atoms: C_25  and  O_27
REMARK   10  A    between atoms: N_31  and  C_32
REMARK                            x       y       z     vdW  Elec       q    Type
REMARK                         _______ _______ _______ _____ _____    ______ ____
ROOT
ATOM      4  C   UNL     1      -1.078   2.967  25.226  0.00  0.00    +0.256 C 
ATOM      5  O   UNL     1      -0.651   3.652  25.403  0.00  0.00    -0.272 OA
ATOM      6  N   UNL     1      -0.722   2.360  24.798  0.00  0.00    -0.268 N 
ATOM      7  C   UNL     1       0.061   2.435  24.547  0.00  0.00    +0.115 C 
ATOM      8  C   UNL     1       0.417   1.826  24.118  0.00  0.00    +0.117 C 
ATOM      9  N   UNL     1      -0.010   1.142  23.942  0.00  0.00    -0.259 N 
ATOM     10  C   UNL     1      -0.791   1.067  24.193  0.00  0.00    +0.124 C 
ATOM     11  C   UNL     1      -1.147   1.675  24.621  0.00  0.00    +0.174 C 
ATOM     29  C   UNL     1       0.347   0.533  23.513  0.00  0.00    +0.323 C 
ATOM     30  O   UNL     1      -0.079  -0.150  23.336  0.00  0.00    -0.251 OA
ATOM     31  N   UNL     1       1.129   0.609  23.262  0.00  0.00    -0.190 NA
ENDROOT
BRANCH  11  12
ATOM     12  C   UNL     1      -1.929   1.601  24.873  0.00  0.00    +0.262 C 
ATOM     13  O   UNL     1      -2.156   1.900  25.608  0.00  0.00    -0.271 OA
ATOM     14  N   UNL     1      -2.484   1.227  24.391  0.00  0.00    -0.194 NA
BRANCH  14  15
ATOM     15  C   UNL     1      -3.266   1.153  24.643  0.00  0.00    +0.198 C 
BRANCH  15  25
ATOM     25  C   UNL     1      -3.853   1.632  24.315  0.00  0.00    +0.337 C 
ATOM     26  O   UNL     1      -3.807   1.855  23.522  0.00  0.00    -0.248 OA
BRANCH  25  27
ATOM     27  O   UNL     1      -4.485   1.886  24.779  0.00  0.00    -0.443 OA
ATOM     28  C   UNL     1      -5.071   2.366  24.451  0.00  0.00    +0.256 C 
ENDBRANCH  25  27
ENDBRANCH  15  25
BRANCH  15  16
ATOM     16  C   UNL     1      -3.462   0.600  25.223  0.00  0.00    +0.059 C 
BRANCH  16  17
ATOM     17  C   UNL     1      -3.567  -0.193  25.018  0.00  0.00    -0.020 A 
ATOM     18  C   UNL     1      -3.366  -0.788  25.552  0.00  0.00    -0.001 A 
ATOM     19  C   UNL     1      -3.472  -1.579  25.347  0.00  0.00    +0.037 A 
ATOM     20  C   UNL     1      -3.779  -1.776  24.606  0.00  0.00    +0.139 A 
ATOM     23  C   UNL     1      -3.980  -1.181  24.072  0.00  0.00    +0.037 A 
ATOM     24  C   UNL     1      -3.875  -0.390  24.277  0.00  0.00    -0.001 A 
BRANCH  20  21
ATOM     21  O   UNL     1      -3.884  -2.568  24.401  0.00  0.00    -0.471 OA
ATOM     22  C   UNL     1      -3.264  -3.104  24.495  0.00  0.00    +0.252 C 
ENDBRANCH  20  21
ENDBRANCH  16  17
ENDBRANCH  15  16
ENDBRANCH  14  15
ENDBRANCH  11  12
BRANCH  31  32
ATOM     32  C   UNL     1       1.485   0.001  22.833  0.00  0.00    +0.097 C 
ATOM     33  C   UNL     1       2.187  -0.339  23.104  0.00  0.00    +0.023 C 
ATOM     34  C   UNL     1       1.140  -0.269  22.133  0.00  0.00    +0.023 C 
ENDBRANCH  31  32
BRANCH   4   3
ATOM      3  C   UNL     1      -1.860   2.892  25.478  0.00  0.00    +0.227 C 
BRANCH   3   2
ATOM      1  C   UNL     1      -2.349   4.175  25.872  0.00  0.00    +0.175 C 
ATOM      2  O   UNL     1      -2.156   3.396  26.060  0.00  0.00    -0.342 OA
ENDBRANCH   3   2
ENDBRANCH   4   3
TORSDOF 10
ENDMDL
MODEL 3
REMARK VINA RESULT:      -9.2      1.518      3.496
REMARK  Name = 
REMARK  10 active torsions:
REMARK  status: ('A' for Active; 'I' for Inactive)
REMARK    1  A    between atoms: O_2  and  C_3
REMARK    2  A    between atoms: C_3  and  C_4
REMARK    3  A    between atoms: C_11  and  C_12
REMARK    4  A    between atoms: N_14  and  C_15
REMARK    5  A    between atoms: C_15  and  C_16
REMARK    6  A    between atoms: C_15  and  C_25
REMARK    7  A    between atoms: C_16  and  C_17
REMARK    8  A    between atoms: C_20  and  O_21
REMARK    9  A    between atoms: C_25  and  O_27
REMARK   10  A    between atoms: N_31  and  C_32
REMARK                            x       y       z     vdW  Elec       q    Type
REMARK                         _______ _______ _______ _____ _____    ______ ____
ROOT
ATOM      4  C   UNL     1       0.244   0.266  23.741  0.00  0.00    +0.256 C 
ATOM      5  O   UNL     1       0.873  -0.179  23.446  0.00  0.00    -0.272 OA
ATOM      6  N   UNL     1      -0.452  -0.107  23.976  0.00  0.00    -0.268 N 
ATOM      7  C   UNL     1      -0.520  -0.928  23.916  0.00  0.00    +0.115 C 
ATOM      8  C   UNL     1      -1.217  -1.302  24.151  0.00  0.00    +0.117 C 
ATOM      9  N   UNL     1      -1.845  -0.856  24.446  0.00  0.00    -0.259 N 
ATOM     10  C   UNL     1      -1.777  -0.037  24.506  0.00  0.00    +0.124 C 
ATOM     11  C   UNL     1      -1.081   0.338  24.270  0.00  0.00    +0.174 C 
ATOM     29  C   UNL     1      -2.542  -1.231  24.681  0.00  0.00    +0.323 C 
ATOM     30  O   UNL     1      -3.170  -0.785  24.976  0.00  0.00    -0.251 OA
ATOM     31  N   UNL     1      -2.610  -2.051  24.622  0.00  0.00    -0.190 NA
ENDROOT
BRANCH  11  12
ATOM     12  C   UNL     1      -1.012   1.158  24.330  0.00  0.00    +0.262 C 
ATOM     13  O   UNL     1      -0.616   1.581  23.742  0.00  0.00    -0.271 OA
ATOM     14  N   UNL     1      -1.339   1.553  24.974  0.00  0.00    -0.194 NA
BRANCH  14  15
ATOM     15  C   UNL     1      -1.270   2.374  25.033  0.00  0.00    +0.198 C 
BRANCH  15  25
ATOM     25  C   UNL     1      -0.751   2.706  25.583  0.00  0.00    +0.337 C 
ATOM     26  O   UNL     1      -0.363   3.413  25.408  0.00  0.00    -0.248 OA
BRANCH  25  27
ATOM     27  O   UNL     1      -0.620   2.332  26.305  0.00  0.00    -0.443 OA
ATOM     28  C   UNL     1      -0.020   2.596  26.805  0.00  0.00    +0.256 C 
ENDBRANCH  25  27
ENDBRANCH  15  25
BRANCH  15  16
ATOM     16  C   UNL     1      -1.720   2.862  24.543  0.00  0.00    +0.059 C 
BRANCH  16  17
ATOM     17  C   UNL     1      -2.496   3.050  24.749  0.00  0.00    -0.020 A 
ATOM     18  C   UNL     1      -2.647   3.502  25.422  0.00  0.00    -0.001 A 
ATOM     19  C   UNL     1      -3.424   3.689  25.628  0.00  0.00    +0.037 A 
ATOM     20  C   UNL     1      -4.050   3.424  25.159  0.00  0.00    +0.139 A 
ATOM     23  C   UNL     1      -3.899   2.972  24.487  0.00  0.00    +0.037 A 
ATOM     24  C   UNL     1      -3.123   2.785  24.281  0.00  0.00    -0.001 A 
BRANCH  20  21
ATOM     21  O   UNL     1      -4.827   3.611  25.366  0.00  0.00    -0.471 OA
ATOM     22  C   UNL     1      -5.301   3.049  25.740  0.00  0.00    +0.252 C 
ENDBRANCH  20  21
ENDBRANCH  16  17
ENDBRANCH  15  16
ENDBRANCH  14  15
ENDBRANCH  11  12
BRANCH  31  32
ATOM     32  C   UNL     1      -3.306  -2.425  24.857  0.00  0.00    +0.097 C 
ATOM     33  C   UNL     1      -3.428  -2.610  25.651  0.00  0.00    +0.023 C 
ATOM     34  C   UNL     1      -3.882  -2.615  24.297  0.00  0.00    +0.023 C 
ENDBRANCH  31  32
BRANCH   4   3
ATOM      3  C   UNL     1       0.312   1.086  23.800  0.00  0.00    +0.227 C 
BRANCH   3   2
ATOM      1  C   UNL     1       1.707   1.355  23.650  0.00  0.00    +0.175 C 
ATOM      2  O   UNL     1       0.927   1.478  23.414  0.00  0.00    -0.342 OA
ENDBRANCH   3   2
ENDBRANCH   4   3
TORSDOF 10
ENDMDL
MODEL 4
REMARK VINA RESULT:      -9.1      1.604      3.530
REMARK  Name = 
REMARK  10 active torsions:
REMARK  status: ('A' for Active; 'I' for Inactive)
REMARK    1  A    between atoms: O_2  and  C_3
REMARK    2  A    between atoms: C_3  and  C_4
REMARK    3  A    between atoms: C_11  and  C_12
REMARK    4  A    between atoms: N_14  and  C_15
REMARK    5  A    between atoms: C_15  and  C_16
REMARK    6  A    between atoms: C_15  and  C_25
REMARK    7  A    between atoms: C_16  and  C_17
REMARK    8  A    between atoms: C_20  and  O_21
REMARK    9  A    between atoms: C_25  and  O_27
REMARK   10  A    between atoms: N_31  and  C_32
REMARK                            x       y       z     vdW  Elec       q    Type
REMARK                         _______ _______ _______ _____ _____    ______ ____
ROOT
ATOM      4  C   UNL     1      -5.153   1.750  25.315  0.00  0.00    +0.256 C 
ATOM      5  O   UNL     1      -5.794   1.750  25.835  0.00  0.00    -0.272 OA
ATOM      6  N   UNL     1      -4.762   1.045  25.143  0.00  0.00    -0.268 N 
ATOM      7  C   UNL     1      -5.012   0.339  25.491  0.00  0.00    +0.115 C 
ATOM      8  C   UNL     1      -4.620  -0.367  25.319  0.00  0.00    +0.117 C 
ATOM      9  N   UNL     1      -3.979  -0.366  24.799  0.00  0.00    -0.259 N 
ATOM     10  C   UNL     1      -3.730   0.338  24.452  0.00  0.00    +0.124 C 
ATOM     11  C   UNL     1      -4.121   1.044  24.624  0.00  0.00    +0.174 C 
ATOM     29  C   UNL     1      -3.588  -1.073  24.627  0.00  0.00    +0.323 C 
ATOM     30  O   UNL     1      -2.947  -1.073  24.108  0.00  0.00    -0.251 OA
ATOM     31  N   UNL     1      -3.838  -1.778  24.976  0.00  0.00    -0.190 NA
ENDROOT
BRANCH  11  12
ATOM     12  C   UNL     1      -3.872   1.749  24.276  0.00  0.00    +0.262 C 
ATOM     13  O   UNL     1      -4.428   2.314  24.046  0.00  0.00    -0.271 OA
ATOM     14  N   UNL     1      -3.069   1.891  24.160  0.00  0.00    -0.194 NA
BRANCH  14  15
ATOM     15  C   UNL     1      -2.820   2.597  23.812  0.00  0.00    +0.198 C 
BRANCH  15  25
ATOM     25  C   UNL     1      -2.868   2.693  22.993  0.00  0.00    +0.337 C 
ATOM     26  O   UNL     1      -3.255   3.349  22.678  0.00  0.00    -0.248 OA
BRANCH  25  27
ATOM     27  O   UNL     1      -2.528   2.134  22.492  0.00  0.00    -0.443 OA
ATOM     28  C   UNL     1      -2.551   2.244  21.675  0.00  0.00    +0.256 C 
ENDBRANCH  25  27
ENDBRANCH  15  25
BRANCH  15  16
ATOM     16  C   UNL     1      -2.523   3.207  24.283  0.00  0.00    +0.059 C 
BRANCH  16  17
ATOM     17  C   UNL     1      -1.811   3.106  24.687  0.00  0.00    -0.020 A 
ATOM     18  C   UNL     1      -1.127   2.901  24.274  0.00  0.00    -0.001 A 
ATOM     19  C   UNL     1      -0.416   2.800  24.679  0.00  0.00    +0.037 A 
ATOM     20  C   UNL     1      -0.388   2.905  25.497  0.00  0.00    +0.139 A 
ATOM     23  C   UNL     1      -1.072   3.110  25.910  0.00  0.00    +0.037 A 
ATOM     24  C   UNL     1      -1.783   3.211  25.506  0.00  0.00    -0.001 A 
BRANCH  20  21
ATOM     21  O   UNL     1       0.324   2.804  25.902  0.00  0.00    -0.471 OA
ATOM     22  C   UNL     1       0.331   2.427  26.636  0.00  0.00    +0.252 C 
ENDBRANCH  20  21
ENDBRANCH  16  17
ENDBRANCH  15  16
ENDBRANCH  14  15
ENDBRANCH  11  12
BRANCH  31  32
ATOM     32  C   UNL     1      -3.447  -2.484  24.804  0.00  0.00    +0.097 C 
ATOM     33  C   UNL     1      -3.720  -2.970  24.196  0.00  0.00    +0.023 C 
ATOM     34  C   UNL     1      -2.781  -2.704  25.240  0.00  0.00    +0.023 C 
ENDBRANCH  31  32
BRANCH   4   3
ATOM      3  C   UNL     1      -4.904   2.455  24.967  0.00  0.00    +0.227 C 
BRANCH   3   2
ATOM      1  C   UNL     1      -5.392   3.610  25.651  0.00  0.00    +0.175 C 
ATOM      2  O   UNL     1      -5.391   3.121  24.988  0.00  0.00    -0.342 OA
ENDBRANCH   3   2
ENDBRANCH   4   3
TORSDOF 10
ENDMDL
MODEL 5
REMARK VINA RESULT:      -9.0      1.301      3.936
REMARK  Name = 
REMARK  10 active torsions:
REMARK  status: ('A' for Active; 'I' for Inactive)
REMARK    1  A    between atoms: O_2  and  C_3
REMARK    2  A    between atoms: C_3  and  C_4
REMARK    3  A    between atoms: C_11  and  C_12
REMARK    4  A    between atoms: N_14  and  C_15
REMARK    5  A    between atoms: C_15  and  C_16
REMARK    6  A    between atoms: C_15  and  C_25
REMARK    7  A    between atoms: C_16  and  C_17
REMARK    8  A    between atoms: C_20  and  O_21
REMARK    9  A    between atoms: C_25  and  O_27
REMARK   10  A    between atoms: N_31  and  C_32
REMARK                            x       y       z     vdW  Elec       q    Type
REMARK                         _______ _______ _______ _____ _____    ______ ____
ROOT
ATOM      4  C   UNL     1      -1.867  -1.036  25.074  0.00  0.00    +0.256 C 
ATOM      5  O   UNL     1      -1.928  -1.849  25.203  0.00  0.00    -0.272 OA
ATOM      6  N   UNL     1      -1.233  -0.734  24.642  0.00  0.00    -0.268 N 
ATOM      7  C   UNL     1      -0.659  -1.244  24.340  0.00  0.00    +0.115 C 
ATOM      8  C   UNL     1      -0.024  -0.942  23.908  0.00  0.00    +0.117 C 
ATOM      9  N   UNL     1       0.036  -0.129  23.779  0.00  0.00    -0.259 N 
ATOM     10  C   UNL     1      -0.537   0.381  24.081  0.00  0.00    +0.124 C 
ATOM     11  C   UNL     1      -1.172   0.078  24.513  0.00  0.00    +0.174 C 
ATOM     29  C   UNL     1       0.671   0.174  23.347  0.00  0.00    +0.323 C 
ATOM     30  O   UNL     1       0.732   0.986  23.217  0.00  0.00    -0.251 OA
ATOM     31  N   UNL     1       1.245  -0.337  23.045  0.00  0.00    -0.190 NA
ENDROOT
BRANCH  11  12
ATOM     12  C   UNL     1      -1.746   0.588  24.815  0.00  0.00    +0.262 C 
ATOM     13  O   UNL     1      -2.124   0.407  25.527  0.00  0.00    -0.271 OA
ATOM     14  N   UNL     1      -1.942   1.276  24.407  0.00  0.00    -0.194 NA
BRANCH  14  15
ATOM     15  C   UNL     1      -2.517   1.786  24.710  0.00  0.00    +0.198 C 
BRANCH  15  25
ATOM     25  C   UNL     1      -3.238   1.874  24.318  0.00  0.00    +0.337 C 
ATOM     26  O   UNL     1      -3.254   1.948  23.497  0.00  0.00    -0.248 OA
BRANCH  25  27
ATOM     27  O   UNL     1      -3.942   1.889  24.748  0.00  0.00    -0.443 OA
ATOM     28  C   UNL     1      -4.665   1.940  24.354  0.00  0.00    +0.256 C 
ENDBRANCH  25  27
ENDBRANCH  15  25
BRANCH  15  16
ATOM     16  C   UNL     1      -2.370   2.207  25.405  0.00  0.00    +0.059 C 
BRANCH  16  17
ATOM     17  C   UNL     1      -2.084   2.980  25.365  0.00  0.00    -0.020 A 
ATOM     18  C   UNL     1      -1.344   3.129  25.034  0.00  0.00    -0.001 A 
ATOM     19  C   UNL     1      -1.057   3.901  24.995  0.00  0.00    +0.037 A 
ATOM     20  C   UNL     1      -1.513   4.526  25.287  0.00  0.00    +0.139 A 
ATOM     23  C   UNL     1      -2.253   4.376  25.618  0.00  0.00    +0.037 A 
ATOM     24  C   UNL     1      -2.539   3.604  25.658  0.00  0.00    -0.001 A 
BRANCH  20  21
ATOM     21  O   UNL     1      -1.226   5.298  25.248  0.00  0.00    -0.471 OA
ATOM     22  C   UNL     1      -0.772   5.537  24.601  0.00  0.00    +0.252 C 
ENDBRANCH  20  21
ENDBRANCH  16  17
ENDBRANCH  15  16
ENDBRANCH  14  15
ENDBRANCH  11  12
BRANCH  31  32
ATOM     32  C   UNL     1       1.880  -0.034  22.613  0.00  0.00    +0.097 C 
ATOM     33  C   UNL     1       2.488   0.367  22.999  0.00  0.00    +0.023 C 
ATOM     34  C   UNL     1       1.906  -0.133  21.794  0.00  0.00    +0.023 C 
ENDBRANCH  31  32
BRANCH   4   3
ATOM      3  C   UNL     1      -2.441  -0.527  25.376  0.00  0.00    +0.227 C 
BRANCH   3   2
ATOM      1  C   UNL     1      -3.621  -1.261  25.705  0.00  0.00    +0.175 C 
ATOM      2  O   UNL     1      -2.980  -0.799  25.938  0.00  0.00    -0.342 OA
ENDBRANCH   3   2
ENDBRANCH   4   3
TORSDOF 10
ENDMDL
MODEL 6
REMARK VINA RESULT:      -8.7      1.672      3.717
REMARK  Name = 
REMARK  10 active torsions:
REMARK  status: ('A' for Active; 'I' for Inactive)
REMARK    1  A    between atoms: O_2  and  C_3
REMARK    2  A    between atoms: C_3  and  C_4
REMARK    3  A    between atoms: C_11  and  C_12
REMARK    4  A    between atoms: N_14  and  C_15
REMARK    5  A    between atoms: C_15  and  C_16
REMARK    6  A    between atoms: C_15  and  C_25
REMARK    7  A    between atoms: C_16  and  C_17
REMARK    8  A    between atoms: C_20  and  O_21
REMARK    9  A    between atoms: C_25  and  O_27
REMARK   10  A    between atoms: N_31  and  C_32
REMARK                            x       y       z     vdW  Elec       q    Type
REMARK                         _______ _______ _______ _____ _____    ______ ____
ROOT
ATOM      4  C   UNL     1      -0.217   0.354  24.330  0.00  0.00    +0.256 C 
ATOM      5  O   UNL     1       0.544   0.039  24.273  0.00  0.00    -0.272 OA
ATOM      6  N   UNL     1      -0.867  -0.148  24.396  0.00  0.00    -0.268 N 
ATOM      7  C   UNL     1      -0.758  -0.966  24.406  0.00  0.00    +0.115 C 
ATOM      8  C   UNL     1      -1.409  -1.468  24.473  0.00  0.00    +0.117 C 
ATOM      9  N   UNL     1      -2.169  -1.152  24.529  0.00  0.00    -0.259 N 
ATOM     10  C   UNL     1      -2.279  -0.335  24.519  0.00  0.00    +0.124 C 
ATOM     11  C   UNL     1      -1.628   0.167  24.452  0.00  0.00    +0.174 C 
ATOM     29  C   UNL     1      -2.821  -1.655  24.596  0.00  0.00    +0.323 C 
ATOM     30  O   UNL     1      -3.581  -1.340  24.652  0.00  0.00    -0.251 OA
ATOM     31  N   UNL     1      -2.711  -2.473  24.606  0.00  0.00    -0.190 NA
ENDROOT
BRANCH  11  12
ATOM     12  C   UNL     1      -1.736   0.985  24.442  0.00  0.00    +0.262 C 
ATOM     13  O   UNL     1      -1.173   1.480  24.789  0.00  0.00    -0.271 OA
ATOM     14  N   UNL     1      -2.406   1.308  24.086  0.00  0.00    -0.194 NA
BRANCH  14  15
ATOM     15  C   UNL     1      -2.514   2.126  24.076  0.00  0.00    +0.198 C 
BRANCH  15  25
ATOM     25  C   UNL     1      -2.476   2.539  23.362  0.00  0.00    +0.337 C 
ATOM     26  O   UNL     1      -2.092   3.268  23.328  0.00  0.00    -0.248 OA
BRANCH  25  27
ATOM     27  O   UNL     1      -2.821   2.221  22.684  0.00  0.00    -0.443 OA
ATOM     28  C   UNL     1      -2.671   2.561  21.947  0.00  0.00    +0.256 C 
ENDBRANCH  25  27
ENDBRANCH  15  25
BRANCH  15  16
ATOM     16  C   UNL     1      -2.660   2.532  24.780  0.00  0.00    +0.059 C 
BRANCH  16  17
ATOM     17  C   UNL     1      -3.436   2.692  25.010  0.00  0.00    -0.020 A 
ATOM     18  C   UNL     1      -3.637   3.439  25.295  0.00  0.00    -0.001 A 
ATOM     19  C   UNL     1      -4.412   3.598  25.524  0.00  0.00    +0.037 A 
ATOM     20  C   UNL     1      -4.989   3.009  25.468  0.00  0.00    +0.139 A 
ATOM     23  C   UNL     1      -4.788   2.262  25.183  0.00  0.00    +0.037 A 
ATOM     24  C   UNL     1      -4.013   2.103  24.953  0.00  0.00    -0.001 A 
BRANCH  20  21
ATOM     21  O   UNL     1      -5.765   3.169  25.698  0.00  0.00    -0.471 OA
ATOM     22  C   UNL     1      -6.241   2.562  25.991  0.00  0.00    +0.252 C 
ENDBRANCH  20  21
ENDBRANCH  16  17
ENDBRANCH  15  16
ENDBRANCH  14  15
ENDBRANCH  11  12
BRANCH  31  32
ATOM     32  C   UNL     1      -3.362  -2.975  24.672  0.00  0.00    +0.097 C 
ATOM     33  C   UNL     1      -3.856  -3.100  24.023  0.00  0.00    +0.023 C 
ATOM     34  C   UNL     1      -3.521  -3.353  25.389  0.00  0.00    +0.023 C 
ENDBRANCH  31  32
BRANCH   4   3
ATOM      3  C   UNL     1      -0.326   1.172  24.319  0.00  0.00    +0.227 C 
BRANCH   3   2
ATOM      1  C   UNL     1       0.860   1.830  23.871  0.00  0.00    +0.175 C 
ATOM      2  O   UNL     1       0.312   1.675  24.466  0.00  0.00    -0.342 OA
ENDBRANCH   3   2
ENDBRANCH   4   3
TORSDOF 10
ENDMDL
MODEL 7
REMARK VINA RESULT:      -8.7      1.465      3.980
REMARK  Name = 
REMARK  10 active torsions:
REMARK  status: ('A' for Active; 'I' for Inactive)
REMARK    1  A    between atoms: O_2  and  C_3
REMARK    2  A    between atoms: C_3  and  C_4
REMARK    3  A    between atoms: C_11  and  C_12
REMARK    4  A    between atoms: N_14  and  C_15
REMARK    5  A    between atoms: C_15  and  C_16
REMARK    6  A    between atoms: C_15  and  C_25
REMARK    7  A    between atoms: C_16  and  C_17
REMARK    8  A    between atoms: C_20  and  O_21
REMARK    9  A    between atoms: C_25  and  O_27
REMARK   10  A    between atoms: N_31  and  C_32
REMARK                            x       y       z     vdW  Elec       q    Type
REMARK                         _______ _______ _______ _____ _____    ______ ____
ROOT
ATOM      4  C   UNL     1      -2.132   4.354  24.897  0.00  0.00    +0.256 C 
ATOM      5  O   UNL     1      -2.255   5.169  24.943  0.00  0.00    -0.272 OA
ATOM      6  N   UNL     1      -2.764   3.835  24.997  0.00  0.00    -0.268 N 
ATOM      7  C   UNL     1      -3.521   4.130  25.144  0.00  0.00    +0.115 C 
ATOM      8  C   UNL     1      -4.154   3.611  25.244  0.00  0.00    +0.117 C 
ATOM      9  N   UNL     1      -4.030   2.796  25.198  0.00  0.00    -0.259 N 
ATOM     10  C   UNL     1      -3.274   2.501  25.052  0.00  0.00    +0.124 C 
ATOM     11  C   UNL     1      -2.641   3.021  24.952  0.00  0.00    +0.174 C 
ATOM     29  C   UNL     1      -4.663   2.276  25.299  0.00  0.00    +0.323 C 
ATOM     30  O   UNL     1      -4.540   1.462  25.253  0.00  0.00    -0.251 OA
ATOM     31  N   UNL     1      -5.420   2.571  25.445  0.00  0.00    -0.190 NA
ENDROOT
BRANCH  11  12
ATOM     12  C   UNL     1      -1.884   2.727  24.805  0.00  0.00    +0.262 C 
ATOM     13  O   UNL     1      -1.427   3.050  24.199  0.00  0.00    -0.271 OA
ATOM     14  N   UNL     1      -1.585   2.111  25.264  0.00  0.00    -0.194 NA
BRANCH  14  15
ATOM     15  C   UNL     1      -0.828   1.817  25.117  0.00  0.00    +0.198 C 
BRANCH  15  25
ATOM     25  C   UNL     1      -0.212   1.982  25.642  0.00  0.00    +0.337 C 
ATOM     26  O   UNL     1       0.544   2.138  25.353  0.00  0.00    -0.248 OA
BRANCH  25  27
ATOM     27  O   UNL     1      -0.354   1.990  26.453  0.00  0.00    -0.443 OA
ATOM     28  C   UNL     1       0.241   2.227  26.974  0.00  0.00    +0.256 C 
ENDBRANCH  25  27
ENDBRANCH  15  25
BRANCH  15  16
ATOM     16  C   UNL     1      -0.686   1.358  24.446  0.00  0.00    +0.059 C 
BRANCH  16  17
ATOM     17  C   UNL     1      -0.750   0.536  24.488  0.00  0.00    -0.020 A 
ATOM     18  C   UNL     1      -1.390   0.191  24.876  0.00  0.00    -0.001 A 
ATOM     19  C   UNL     1      -1.453  -0.630  24.918  0.00  0.00    +0.037 A 
ATOM     20  C   UNL     1      -0.875  -1.107  24.570  0.00  0.00    +0.139 A 
ATOM     23  C   UNL     1      -0.235  -0.761  24.182  0.00  0.00    +0.037 A 
ATOM     24  C   UNL     1      -0.172   0.059  24.140  0.00  0.00    -0.001 A 
BRANCH  20  21
ATOM     21  O   UNL     1      -0.938  -1.929  24.612  0.00  0.00    -0.471 OA
ATOM     22  C   UNL     1      -1.681  -2.286  24.585  0.00  0.00    +0.252 C 
ENDBRANCH  20  21
ENDBRANCH  16  17
ENDBRANCH  15  16
ENDBRANCH  14  15
ENDBRANCH  11  12
BRANCH  31  32
ATOM     32  C   UNL     1      -6.053   2.052  25.546  0.00  0.00    +0.097 C 
ATOM     33  C   UNL     1      -6.437   1.736  24.887  0.00  0.00    +0.023 C 
ATOM     34  C   UNL     1      -6.302   1.847  26.306  0.00  0.00    +0.023 C 
ENDBRANCH  31  32
BRANCH   4   3
ATOM      3  C   UNL     1      -1.375   4.060  24.751  0.00  0.00    +0.227 C 
BRANCH   3   2
ATOM      1  C   UNL     1      -0.534   5.207  24.882  0.00  0.00    +0.175 C 
ATOM      2  O   UNL     1      -0.791   4.556  24.445  0.00  0.00    -0.342 OA
ENDBRANCH   3   2
ENDBRANCH   4   3
TORSDOF 10
ENDMDL
MODEL 8
REMARK VINA RESULT:      -8.5      1.687      3.823
REMARK  Name = 
REMARK  10 active torsions:
REMARK  status: ('A' for Active; 'I' for Inactive)
REMARK    1  A    between atoms: O_2  and  C_3
REMARK    2  A    between atoms: C_3  and  C_4
REMARK    3  A    between atoms: C_11  and  C_12
REMARK    4  A    between atoms: N_14  and  C_15
REMARK    5  A    between atoms: C_15  and  C_16
REMARK    6  A    between atoms: C_15  and  C_25
REMARK    7  A    between atoms: C_16  and  C_17
REMARK    8  A    between atoms: C_20  and  O_21
REMARK    9  A    between atoms: C_25  and  O_27
REMARK   10  A    between atoms: N_31  and  C_32
REMARK                            x       y       z     vdW  Elec       q    Type
REMARK                         _______ _______ _______ _____ _____    ______ ____
ROOT
ATOM      4  C   UNL     1      -0.738   1.213  25.643  0.00  0.00    +0.256 C 
ATOM      5  O   UNL     1      -0.187   1.108  26.249  0.00  0.00    -0.272 OA
ATOM      6  N   UNL     1      -1.196   0.577  25.388  0.00  0.00    -0.268 N 
ATOM      7  C   UNL     1      -1.104  -0.165  25.739  0.00  0.00    +0.115 C 
ATOM      8  C   UNL     1      -1.562  -0.801  25.484  0.00  0.00    +0.117 C 
ATOM      9  N   UNL     1      -2.113  -0.696  24.878  0.00  0.00    -0.259 N 
ATOM     10  C   UNL     1      -2.205   0.044  24.527  0.00  0.00    +0.124 C 
ATOM     11  C   UNL     1      -1.746   0.681  24.782  0.00  0.00    +0.174 C 
ATOM     29  C   UNL     1      -2.572  -1.334  24.622  0.00  0.00    +0.323 C 
ATOM     30  O   UNL     1      -3.122  -1.229  24.017  0.00  0.00    -0.251 OA
ATOM     31  N   UNL     1      -2.480  -2.075  24.973  0.00  0.00    -0.190 NA
ENDROOT
BRANCH  11  12
ATOM     12  C   UNL     1      -1.837   1.422  24.432  0.00  0.00    +0.262 C 
ATOM     13  O   UNL     1      -1.176   1.897  24.294  0.00  0.00    -0.271 OA
ATOM     14  N   UNL     1      -2.588   1.689  24.220  0.00  0.00    -0.194 NA
BRANCH  14  15
ATOM     15  C   UNL     1      -2.679   2.431  23.870  0.00  0.00    +0.198 C 
BRANCH  15  25
ATOM     25  C   UNL     1      -2.498   2.535  23.071  0.00  0.00    +0.337 C 
ATOM     26  O   UNL     1      -2.011   3.158  22.836  0.00  0.00    -0.248 OA
BRANCH  25  27
ATOM     27  O   UNL     1      -2.804   2.016  22.508  0.00  0.00    -0.443 OA
ATOM     28  C   UNL     1      -2.675   2.154  21.705  0.00  0.00    +0.256 C 
ENDBRANCH  25  27
ENDBRANCH  15  25
BRANCH  15  16
ATOM     16  C   UNL     1      -2.950   3.068  24.318  0.00  0.00    +0.059 C 
BRANCH  16  17
ATOM     17  C   UNL     1      -3.701   3.043  24.658  0.00  0.00    -0.020 A 
ATOM     18  C   UNL     1      -4.329   2.701  24.248  0.00  0.00    -0.001 A 
ATOM     19  C   UNL     1      -5.079   2.676  24.588  0.00  0.00    +0.037 A 
ATOM     20  C   UNL     1      -5.202   2.993  25.341  0.00  0.00    +0.139 A 
ATOM     23  C   UNL     1      -4.574   3.335  25.751  0.00  0.00    +0.037 A 
ATOM     24  C   UNL     1      -3.824   3.361  25.411  0.00  0.00    -0.001 A 
BRANCH  20  21
ATOM     21  O   UNL     1      -5.953   2.968  25.681  0.00  0.00    -0.471 OA
ATOM     22  C   UNL     1      -6.236   2.263  26.003  0.00  0.00    +0.252 C 
ENDBRANCH  20  21
ENDBRANCH  16  17
ENDBRANCH  15  16
ENDBRANCH  14  15
ENDBRANCH  11  12
BRANCH  31  32
ATOM     32  C   UNL     1      -2.938  -2.711  24.718  0.00  0.00    +0.097 C 
ATOM     33  C   UNL     1      -3.676  -2.852  25.060  0.00  0.00    +0.023 C 
ATOM     34  C   UNL     1      -2.659  -3.208  24.121  0.00  0.00    +0.023 C 
ENDBRANCH  31  32
BRANCH   4   3
ATOM      3  C   UNL     1      -0.829   1.954  25.292  0.00  0.00    +0.227 C 
BRANCH   3   2
ATOM      1  C   UNL     1      -0.224   2.972  26.091  0.00  0.00    +0.175 C 
ATOM      2  O   UNL     1      -0.250   2.533  25.394  0.00  0.00    -0.342 OA
ENDBRANCH   3   2
ENDBRANCH   4   3
TORSDOF 10
ENDMDL
MODEL 9
REMARK VINA RESULT:      -8.5      1.390      3.693
REMARK  Name = 
REMARK  10 active torsions:
REMARK  status: ('A' for Active; 'I' for Inactive)
REMARK    1  A    between atoms: O_2  and  C_3
REMARK    2  A    between atoms: C_3  and  C_4
REMARK    3  A    between atoms: C_11  and  C_12
REMARK    4  A    between atoms: N_14  and  C_15
REMARK    5  A    between atoms: C_15  and  C_16
REMARK    6  A    between atoms: C_15  and  C_25
REMARK    7  A    between atoms: C_16  and  C_17
REMARK    8  A    between atoms: C_20  and  O_21
REMARK    9  A    between atoms: C_25  and  O_27
REMARK   10  A    between atoms: N_31  and  C_32
REMARK                            x       y       z     vdW  Elec       q    Type
REMARK                         _______ _______ _______ _____ _____    ______ ____
ROOT
ATOM      4  C   UNL     1      -3.626   2.328  24.852  0.00  0.00    +0.256 C 
ATOM      5  O   UNL     1      -4.369   2.659  24.998  0.00  0.00    -0.272 OA
ATOM      6  N   UNL     1      -3.547   1.511  24.776  0.00  0.00    -0.268 N 
ATOM      7  C   UNL     1      -4.209   1.023  24.845  0.00  0.00    +0.115 C 
ATOM      8  C   UNL     1      -4.129   0.206  24.768  0.00  0.00    +0.117 C 
ATOM      9  N   UNL     1      -3.387  -0.124  24.622  0.00  0.00    -0.259 N 
ATOM     10  C   UNL     1      -2.725   0.363  24.553  0.00  0.00    +0.124 C 
ATOM     11  C   UNL     1      -2.805   1.181  24.630  0.00  0.00    +0.174 C 
ATOM     29  C   UNL     1      -3.307  -0.942  24.546  0.00  0.00    +0.323 C 
ATOM     30  O   UNL     1      -2.566  -1.272  24.400  0.00  0.00    -0.251 OA
ATOM     31  N   UNL     1      -3.970  -1.429  24.615  0.00  0.00    -0.190 NA
ENDROOT
BRANCH  11  12
ATOM     12  C   UNL     1      -2.144   1.668  24.561  0.00  0.00    +0.262 C 
ATOM     13  O   UNL     1      -2.214   2.410  24.204  0.00  0.00    -0.271 OA
ATOM     14  N   UNL     1      -1.413   1.416  24.847  0.00  0.00    -0.194 NA
BRANCH  14  15
ATOM     15  C   UNL     1      -0.751   1.905  24.778  0.00  0.00    +0.198 C 
BRANCH  15  25
ATOM     25  C   UNL     1      -0.449   2.287  25.444  0.00  0.00    +0.337 C 
ATOM     26  O   UNL     1      -0.209   3.075  25.393  0.00  0.00    -0.248 OA
BRANCH  25  27
ATOM     27  O   UNL     1      -0.387   1.883  26.159  0.00  0.00    -0.443 OA
ATOM     28  C   UNL     1      -0.033   2.245  26.810  0.00  0.00    +0.256 C 
ENDBRANCH  25  27
ENDBRANCH  15  25
BRANCH  15  16
ATOM     16  C   UNL     1      -0.392   2.011  24.043  0.00  0.00    +0.059 C 
BRANCH  16  17
ATOM     17  C   UNL     1       0.185   1.480  23.786  0.00  0.00    -0.020 A 
ATOM     18  C   UNL     1      -0.032   0.729  23.524  0.00  0.00    -0.001 A 
ATOM     19  C   UNL     1       0.545   0.199  23.267  0.00  0.00    +0.037 A 
ATOM     20  C   UNL     1       1.341   0.421  23.273  0.00  0.00    +0.139 A 
ATOM     23  C   UNL     1       1.558   1.171  23.535  0.00  0.00    +0.037 A 
ATOM     24  C   UNL     1       0.981   1.702  23.791  0.00  0.00    -0.001 A 
BRANCH  20  21
ATOM     21  O   UNL     1       1.918  -0.110  23.016  0.00  0.00    -0.471 OA
ATOM     22  C   UNL     1       2.423   0.098  22.398  0.00  0.00    +0.252 C 
ENDBRANCH  20  21
ENDBRANCH  16  17
ENDBRANCH  15  16
ENDBRANCH  14  15
ENDBRANCH  11  12
BRANCH  31  32
ATOM     32  C   UNL     1      -3.890  -2.247  24.539  0.00  0.00    +0.097 C 
ATOM     33  C   UNL     1      -4.208  -2.633  23.883  0.00  0.00    +0.023 C 
ATOM     34  C   UNL     1      -3.491  -2.679  25.118  0.00  0.00    +0.023 C 
ENDBRANCH  31  32
BRANCH   4   3
ATOM      3  C   UNL     1      -2.965   2.816  24.783  0.00  0.00    +0.227 C 
BRANCH   3   2
ATOM      1  C   UNL     1      -3.183   4.114  25.337  0.00  0.00    +0.175 C 
ATOM      2  O   UNL     1      -3.060   3.629  24.682  0.00  0.00    -0.342 OA
ENDBRANCH   3   2
ENDBRANCH   4   3
TORSDOF 10
ENDMDL
MODEL 10
REMARK VINA RESULT:      -8.5      1.176      3.705
REMARK  Name = 
REMARK  10 active torsions:
REMARK  status: ('A' for Active; 'I' for Inactive)
REMARK    1  A    between atoms: O_2  and  C_3
REMARK    2  A    between atoms: C_3  and  C_4
REMARK    3  A    between atoms: C_11  and  C_12
REMARK    4  A    between atoms: N_14  and  C_15
REMARK    5  A    between atoms: C_15  and  C_16
REMARK    6  A    between atoms: C_15  and  C_25
REMARK    7  A    between atoms: C_16  and  C_17
REMARK    8  A    between atoms: C_20  and  O_21
REMARK    9  A    between atoms: C_25  and  O_27
REMARK   10  A    between atoms: N_31  and  C_32
REMARK                            x       y       z     vdW  Elec       q    Type
REMARK                         _______ _______ _______ _____ _____    ______ ____
ROOT
ATOM      4  C   UNL     1      -1.282   2.955  25.507  0.00  0.00    +0.256 C 
ATOM      5  O   UNL     1      -1.092   3.739  25.683  0.00  0.00    -0.272 OA
ATOM      6  N   UNL     1      -2.071   2.728  25.434  0.00  0.00    -0.268 N 
ATOM      7  C   UNL     1      -2.672   3.285  25.537  0.00  0.00    +0.115 C 
ATOM      8  C   UNL     1      -3.462   3.058  25.464  0.00  0.00    +0.117 C 
ATOM      9  N   UNL     1      -3.650   2.274  25.288  0.00  0.00    -0.259 N 
ATOM     10  C   UNL     1      -3.051   1.718  25.184  0.00  0.00    +0.124 C 
ATOM     11  C   UNL     1      -2.261   1.945  25.257  0.00  0.00    +0.174 C 
ATOM     29  C   UNL     1      -4.441   2.047  25.214  0.00  0.00    +0.323 C 
ATOM     30  O   UNL     1      -4.630   1.264  25.038  0.00  0.00    -0.251 OA
ATOM     31  N   UNL     1      -5.041   2.604  25.318  0.00  0.00    -0.190 NA
ENDROOT
BRANCH  11  12
ATOM     12  C   UNL     1      -1.660   1.390  25.154  0.00  0.00    +0.262 C 
ATOM     13  O   UNL     1      -0.976   1.432  25.614  0.00  0.00    -0.271 OA
ATOM     14  N   UNL     1      -1.743   0.792  24.593  0.00  0.00    -0.194 NA
BRANCH  14  15
ATOM     15  C   UNL     1      -1.141   0.236  24.490  0.00  0.00    +0.198 C 
BRANCH  15  25
ATOM     25  C   UNL     1      -0.619   0.306  23.854  0.00  0.00    +0.337 C 
ATOM     26  O   UNL     1      -0.888   0.595  23.130  0.00  0.00    -0.248 OA
BRANCH  25  27
ATOM     27  O   UNL     1       0.170   0.087  23.943  0.00  0.00    -0.443 OA
ATOM     28  C   UNL     1       0.679   0.104  23.294  0.00  0.00    +0.256 C 
ENDBRANCH  25  27
ENDBRANCH  15  25
BRANCH  15  16
ATOM     16  C   UNL     1      -1.062  -0.389  25.022  0.00  0.00    +0.059 C 
BRANCH  16  17
ATOM     17  C   UNL     1      -1.574  -1.035  24.979  0.00  0.00    -0.020 A 
ATOM     18  C   UNL     1      -1.448  -1.625  24.417  0.00  0.00    -0.001 A 
ATOM     19  C   UNL     1      -1.960  -2.269  24.374  0.00  0.00    +0.037 A 
ATOM     20  C   UNL     1      -2.599  -2.324  24.894  0.00  0.00    +0.139 A 
ATOM     23  C   UNL     1      -2.725  -1.734  25.456  0.00  0.00    +0.037 A 
ATOM     24  C   UNL     1      -2.213  -1.090  25.499  0.00  0.00    -0.001 A 
BRANCH  20  21
ATOM     21  O   UNL     1      -3.111  -2.970  24.850  0.00  0.00    -0.471 OA
ATOM     22  C   UNL     1      -3.773  -2.938  24.359  0.00  0.00    +0.252 C 
ENDBRANCH  20  21
ENDBRANCH  16  17
ENDBRANCH  15  16
ENDBRANCH  14  15
ENDBRANCH  11  12
BRANCH  31  32
ATOM     32  C   UNL     1      -5.831   2.377  25.245  0.00  0.00    +0.097 C 
ATOM     33  C   UNL     1      -6.295   2.275  25.919  0.00  0.00    +0.023 C 
ATOM     34  C   UNL     1      -6.157   2.251  24.497  0.00  0.00    +0.023 C 
ENDBRANCH  31  32
BRANCH   4   3
ATOM      3  C   UNL     1      -0.681   2.399  25.403  0.00  0.00    +0.227 C 
BRANCH   3   2
ATOM      1  C   UNL     1       0.497   2.694  26.155  0.00  0.00    +0.175 C 
ATOM      2  O   UNL     1       0.109   2.635  25.430  0.00  0.00    -0.342 OA
ENDBRANCH   3   2
ENDBRANCH   4   3
TORSDOF 10
ENDMDL
