MODEL 1
REMARK VINA RESULT:     -13.0      0.000      0.000
REMARK  Name = 
REMARK  4 active torsions:
REMARK  status: ('A' for Active; 'I' for Inactive)
REMARK    1  A    between atoms: C_4  and  C_15
REMARK    2  A    between atoms: N_5  and  C_6
REMARK    3  A    between atoms: C_6  and  C_7
REMARK    4  A    between atoms: C_17  and  C_20
REMARK                            x       y       z     vdW  Elec       q    Type
REMARK                         _______ _______ _______ _____ _____    ______ ____
ROOT
ATOM      1  O   UNL     1      -5.726   3.337  25.778  0.00  0.00    -0.222 OA
ATOM      2  C   UNL     1      -5.091   2.901  25.481  0.00  0.00    +0.170 C 
ATOM      3  C   UNL     1      -5.131   2.139  25.168  0.00  0.00    +0.060 C 
ATOM      4  C   UNL     1      -4.370   1.918  24.939  0.00  0.00    +0.140 C 
ATOM      5  N   UNL     1      -3.860   2.544  25.111  0.00  0.00    -0.260 NA
ATOM     14  C   UNL     1      -4.307   3.152  25.446  0.00  0.00    +0.106 C 
ENDROOT
BRANCH   4  15
ATOM     15  C   UNL     1      -4.156   1.198  24.599  0.00  0.00    +0.251 A 
ATOM     16  N   UNL     1      -4.126   0.469  24.984  0.00  0.00    -0.190 NA
ATOM     17  C   UNL     1      -3.886  -0.099  24.436  0.00  0.00    +0.203 A 
ATOM     18  N   UNL     1      -3.767   0.278  23.712  0.00  0.00    -0.056 NA
ATOM     19  O   UNL     1      -3.934   1.080  23.813  0.00  0.00    -0.336 OA
BRANCH  17  20
ATOM     20  C   UNL     1      -3.782  -0.904  24.586  0.00  0.00    +0.039 A 
ATOM     21  C   UNL     1      -3.396  -1.150  25.272  0.00  0.00    +0.003 A 
ATOM     22  C   UNL     1      -3.292  -1.954  25.421  0.00  0.00    +0.000 A 
ATOM     23  C   UNL     1      -3.575  -2.513  24.885  0.00  0.00    +0.000 A 
ATOM     24  C   UNL     1      -3.962  -2.268  24.199  0.00  0.00    +0.000 A 
ATOM     25  C   UNL     1      -4.066  -1.463  24.049  0.00  0.00    +0.003 A 
ENDBRANCH  17  20
ENDBRANCH   4  15
BRANCH   5   6
ATOM      6  C   UNL     1      -3.047   2.560  24.972  0.00  0.00    +0.100 C 
BRANCH   6   7
ATOM      7  C   UNL     1      -2.621   3.254  25.096  0.00  0.00    -0.006 A 
ATOM      8  C   UNL     1      -2.196   3.358  25.796  0.00  0.00    -0.001 A 
ATOM      9  C   UNL     1      -1.769   4.054  25.921  0.00  0.00    +0.029 A 
ATOM     10  C   UNL     1      -1.767   4.644  25.346  0.00  0.00    +0.140 A 
ATOM     11  F   UNL     1      -1.340   5.340  25.471  0.00  0.00    -0.204 F 
ATOM     12  C   UNL     1      -2.192   4.541  24.645  0.00  0.00    +0.029 A 
ATOM     13  C   UNL     1      -2.618   3.846  24.522  0.00  0.00    -0.001 A 
ENDBRANCH   6   7
ENDBRANCH   5   6
TORSDOF 4
ENDMDL
MODEL 2
REMARK VINA RESULT:     -12.8      1.915      4.659
REMARK  Name = 
REMARK  4 active torsions:
REMARK  status: ('A' for Active; 'I' for Inactive)
REMARK    1  A    between atoms: C_4  and  C_15
REMARK    2  A    between atoms: N_5  and  C_6
REMARK    3  A    between atoms: C_6  and  C_7
REMARK    4  A    between atoms: C_17  and  C_20
REMARK                            x       y       z     vdW  Elec       q    Type
REMARK                         _______ _______ _______ _____ _____    ______ ____
ROOT
ATOM      1  O   UNL     1      -6.306   1.438  25.406  0.00  0.00    -0.222 OA
ATOM      2  C   UNL     1      -5.523   1.449  25.145  0.00  0.00    +0.170 C 
ATOM      3  C   UNL     1      -5.094   2.119  24.930  0.00  0.00    +0.060 C 
ATOM      4  C   UNL     1      -4.338   1.876  24.705  0.00  0.00    +0.140 C 
ATOM      5  N   UNL     1      -4.302   1.055  24.780  0.00  0.00    -0.260 NA
ATOM     14  C   UNL     1      -5.035   0.791  25.052  0.00  0.00    +0.106 C 
ENDROOT
BRANCH   4  15
ATOM     15  C   UNL     1      -3.727   2.367  24.449  0.00  0.00    +0.251 A 
ATOM     16  N   UNL     1      -3.205   2.784  24.933  0.00  0.00    -0.190 NA
ATOM     17  C   UNL     1      -2.685   3.202  24.447  0.00  0.00    +0.203 A 
ATOM     18  N   UNL     1      -2.885   3.043  23.663  0.00  0.00    -0.056 NA
ATOM     19  O   UNL     1      -3.529   2.527  23.664  0.00  0.00    -0.336 OA
BRANCH  17  20
ATOM     20  C   UNL     1      -2.073   3.693  24.702  0.00  0.00    +0.039 A 
ATOM     21  C   UNL     1      -1.291   3.430  24.666  0.00  0.00    +0.003 A 
ATOM     22  C   UNL     1      -0.680   3.921  24.920  0.00  0.00    +0.000 A 
ATOM     23  C   UNL     1      -0.848   4.675  25.210  0.00  0.00    +0.000 A 
ATOM     24  C   UNL     1      -1.629   4.938  25.245  0.00  0.00    +0.000 A 
ATOM     25  C   UNL     1      -2.242   4.447  24.991  0.00  0.00    +0.003 A 
ENDBRANCH  17  20
ENDBRANCH   4  15
BRANCH   5   6
ATOM      6  C   UNL     1      -3.648   0.581  24.612  0.00  0.00    +0.100 C 
BRANCH   6   7
ATOM      7  C   UNL     1      -3.690  -0.235  24.725  0.00  0.00    -0.006 A 
ATOM      8  C   UNL     1      -3.465  -0.563  25.449  0.00  0.00    -0.001 A 
ATOM      9  C   UNL     1      -3.508  -1.380  25.561  0.00  0.00    +0.029 A 
ATOM     10  C   UNL     1      -3.774  -1.867  24.952  0.00  0.00    +0.140 A 
ATOM     11  F   UNL     1      -3.816  -2.684  25.065  0.00  0.00    -0.204 F 
ATOM     12  C   UNL     1      -3.999  -1.539  24.229  0.00  0.00    +0.029 A 
ATOM     13  C   UNL     1      -3.957  -0.723  24.116  0.00  0.00    -0.001 A 
ENDBRANCH   6   7
ENDBRANCH   5   6
TORSDOF 4
ENDMDL
MODEL 3
REMARK VINA RESULT:     -12.7      2.675      5.429
REMARK  Name = 
REMARK  4 active torsions:
REMARK  status: ('A' for Active; 'I' for Inactive)
REMARK    1  A    between atoms: C_4  and  C_15
REMARK    2  A    between atoms: N_5  and  C_6
REMARK    3  A    between atoms: C_6  and  C_7
REMARK    4  A    between atoms: C_17  and  C_20
REMARK                            x       y       z     vdW  Elec       q    Type
REMARK                         _______ _______ _______ _____ _____    ______ ____
ROOT
ATOM      1  O   UNL     1       0.110  -0.770  23.722  0.00  0.00    -0.222 OA
ATOM      2  C   UNL     1      -0.376  -0.272  24.165  0.00  0.00    +0.170 C 
ATOM      3  C   UNL     1      -0.174   0.475  24.450  0.00  0.00    +0.060 C 
ATOM      4  C   UNL     1      -0.823   0.774  24.861  0.00  0.00    +0.140 C 
ATOM      5  N   UNL     1      -1.426   0.212  24.830  0.00  0.00    -0.260 NA
ATOM     14  C   UNL     1      -1.150  -0.435  24.399  0.00  0.00    +0.106 C 
ENDROOT
BRANCH   4  15
ATOM     15  C   UNL     1      -0.862   1.507  25.238  0.00  0.00    +0.251 A 
ATOM     16  N   UNL     1      -1.097   2.218  24.892  0.00  0.00    -0.190 NA
ATOM     17  C   UNL     1      -1.053   2.809  25.467  0.00  0.00    +0.203 A 
ATOM     18  N   UNL     1      -0.791   2.462  26.169  0.00  0.00    -0.056 NA
ATOM     19  O   UNL     1      -0.673   1.658  26.027  0.00  0.00    -0.336 OA
BRANCH  17  20
ATOM     20  C   UNL     1      -1.239   3.606  25.360  0.00  0.00    +0.039 A 
ATOM     21  C   UNL     1      -1.970   3.896  25.607  0.00  0.00    +0.003 A 
ATOM     22  C   UNL     1      -2.155   4.692  25.500  0.00  0.00    +0.000 A 
ATOM     23  C   UNL     1      -1.610   5.199  25.145  0.00  0.00    +0.000 A 
ATOM     24  C   UNL     1      -0.878   4.909  24.898  0.00  0.00    +0.000 A 
ATOM     25  C   UNL     1      -0.692   4.112  25.005  0.00  0.00    +0.003 A 
ENDBRANCH  17  20
ENDBRANCH   4  15
BRANCH   5   6
ATOM      6  C   UNL     1      -2.174   0.284  25.170  0.00  0.00    +0.100 C 
BRANCH   6   7
ATOM      7  C   UNL     1      -2.785  -0.217  24.933  0.00  0.00    -0.006 A 
ATOM      8  C   UNL     1      -3.253  -0.018  24.283  0.00  0.00    -0.001 A 
ATOM      9  C   UNL     1      -3.864  -0.521  24.046  0.00  0.00    +0.029 A 
ATOM     10  C   UNL     1      -4.007  -1.219  24.459  0.00  0.00    +0.140 A 
ATOM     11  F   UNL     1      -4.618  -1.721  24.222  0.00  0.00    -0.204 F 
ATOM     12  C   UNL     1      -3.539  -1.418  25.110  0.00  0.00    +0.029 A 
ATOM     13  C   UNL     1      -2.928  -0.916  25.346  0.00  0.00    -0.001 A 
ENDBRANCH   6   7
ENDBRANCH   5   6
TORSDOF 4
ENDMDL
MODEL 4
REMARK VINA RESULT:     -12.1      2.066      2.835
REMARK  Name = 
REMARK  4 active torsions:
REMARK  status: ('A' for Active; 'I' for Inactive)
REMARK    1  A    between atoms: C_4  and  C_15
REMARK    2  A    between atoms: N_5  and  C_6
REMARK    3  A    between atoms: C_6  and  C_7
REMARK    4  A    between atoms: C_17  and  C_20
REMARK                            x       y       z     vdW  Elec       q    Type
REMARK                         _______ _______ _______ _____ _____    ______ ____
ROOT
ATOM      1  O   UNL     1       0.850   1.402  23.870  0.00  0.00    -0.222 OA
ATOM      2  C   UNL     1       0.129   1.266  24.249  0.00  0.00    +0.170 C 
ATOM      3  C   UNL     1      -0.237   0.534  24.345  0.00  0.00    +0.060 C 
ATOM      4  C   UNL     1      -0.944   0.655  24.753  0.00  0.00    +0.140 C 
ATOM      5  N   UNL     1      -1.014   1.462  24.908  0.00  0.00    -0.260 NA
ATOM     14  C   UNL     1      -0.350   1.840  24.596  0.00  0.00    +0.106 C 
ENDROOT
BRANCH   4  15
ATOM     15  C   UNL     1      -1.486   0.071  24.968  0.00  0.00    +0.251 A 
ATOM     16  N   UNL     1      -2.009  -0.315  24.460  0.00  0.00    -0.190 NA
ATOM     17  C   UNL     1      -2.446  -0.855  24.907  0.00  0.00    +0.203 A 
ATOM     18  N   UNL     1      -2.193  -0.802  25.690  0.00  0.00    -0.056 NA
ATOM     19  O   UNL     1      -1.599  -0.230  25.728  0.00  0.00    -0.336 OA
BRANCH  17  20
ATOM     20  C   UNL     1      -3.034  -1.359  24.620  0.00  0.00    +0.039 A 
ATOM     21  C   UNL     1      -3.709  -1.045  24.265  0.00  0.00    +0.003 A 
ATOM     22  C   UNL     1      -4.295  -1.549  23.978  0.00  0.00    +0.000 A 
ATOM     23  C   UNL     1      -4.208  -2.366  24.048  0.00  0.00    +0.000 A 
ATOM     24  C   UNL     1      -3.533  -2.680  24.403  0.00  0.00    +0.000 A 
ATOM     25  C   UNL     1      -2.945  -2.176  24.690  0.00  0.00    +0.003 A 
ENDBRANCH  17  20
ENDBRANCH   4  15
BRANCH   5   6
ATOM      6  C   UNL     1      -1.637   1.827  25.306  0.00  0.00    +0.100 C 
BRANCH   6   7
ATOM      7  C   UNL     1      -1.698   2.649  25.311  0.00  0.00    -0.006 A 
ATOM      8  C   UNL     1      -1.273   3.091  25.864  0.00  0.00    -0.001 A 
ATOM      9  C   UNL     1      -1.334   3.914  25.868  0.00  0.00    +0.029 A 
ATOM     10  C   UNL     1      -1.820   4.295  25.321  0.00  0.00    +0.140 A 
ATOM     11  F   UNL     1      -1.880   5.118  25.327  0.00  0.00    -0.204 F 
ATOM     12  C   UNL     1      -2.245   3.853  24.769  0.00  0.00    +0.029 A 
ATOM     13  C   UNL     1      -2.183   3.031  24.764  0.00  0.00    -0.001 A 
ENDBRANCH   6   7
ENDBRANCH   5   6
TORSDOF 4
ENDMDL
MODEL 5
REMARK VINA RESULT:     -12.1      2.380      5.072
REMARK  Name = 
REMARK  4 active torsions:
REMARK  status: ('A' for Active; 'I' for Inactive)
REMARK    1  A    between atoms: C_4  and  C_15
REMARK    2  A    between atoms: N_5  and  C_6
REMARK    3  A    between atoms: C_6  and  C_7
REMARK    4  A    between atoms: C_17  and  C_20
REMARK                            x       y       z     vdW  Elec       q    Type
REMARK                         _______ _______ _______ _____ _____    ______ ____
ROOT
ATOM      1  O   UNL     1      -0.441  -0.172  24.413  0.00  0.00    -0.222 OA
ATOM      2  C   UNL     1      -1.246   0.010  24.435  0.00  0.00    +0.170 C 
ATOM      3  C   UNL     1      -1.581   0.745  24.265  0.00  0.00    +0.060 C 
ATOM      4  C   UNL     1      -2.398   0.678  24.357  0.00  0.00    +0.140 C 
ATOM      5  N   UNL     1      -2.567  -0.097  24.584  0.00  0.00    -0.260 NA
ATOM     14  C   UNL     1      -1.854  -0.510  24.632  0.00  0.00    +0.106 C 
ENDROOT
BRANCH   4  15
ATOM     15  C   UNL     1      -2.949   1.281  24.242  0.00  0.00    +0.251 A 
ATOM     16  N   UNL     1      -3.364   1.679  24.834  0.00  0.00    -0.190 NA
ATOM     17  C   UNL     1      -3.854   2.236  24.473  0.00  0.00    +0.203 A 
ATOM     18  N   UNL     1      -3.742   2.182  23.657  0.00  0.00    -0.056 NA
ATOM     19  O   UNL     1      -3.183   1.592  23.514  0.00  0.00    -0.336 OA
BRANCH  17  20
ATOM     20  C   UNL     1      -4.366   2.755  24.859  0.00  0.00    +0.039 A 
ATOM     21  C   UNL     1      -5.130   2.513  25.052  0.00  0.00    +0.003 A 
ATOM     22  C   UNL     1      -5.641   3.032  25.438  0.00  0.00    +0.000 A 
ATOM     23  C   UNL     1      -5.389   3.794  25.632  0.00  0.00    +0.000 A 
ATOM     24  C   UNL     1      -4.624   4.035  25.438  0.00  0.00    +0.000 A 
ATOM     25  C   UNL     1      -4.112   3.516  25.052  0.00  0.00    +0.003 A 
ENDBRANCH  17  20
ENDBRANCH   4  15
BRANCH   5   6
ATOM      6  C   UNL     1      -3.317  -0.406  24.735  0.00  0.00    +0.100 C 
BRANCH   6   7
ATOM      7  C   UNL     1      -3.450  -1.217  24.671  0.00  0.00    -0.006 A 
ATOM      8  C   UNL     1      -3.763  -1.530  23.974  0.00  0.00    -0.001 A 
ATOM      9  C   UNL     1      -3.895  -2.342  23.911  0.00  0.00    +0.029 A 
ATOM     10  C   UNL     1      -3.716  -2.840  24.543  0.00  0.00    +0.140 A 
ATOM     11  F   UNL     1      -3.849  -3.652  24.478  0.00  0.00    -0.204 F 
ATOM     12  C   UNL     1      -3.403  -2.527  25.240  0.00  0.00    +0.029 A 
ATOM     13  C   UNL     1      -3.271  -1.716  25.303  0.00  0.00    -0.001 A 
ENDBRANCH   6   7
ENDBRANCH   5   6
TORSDOF 4
ENDMDL
