MODEL 1
REMARK VINA RESULT:     -11.9      0.000      0.000
REMARK  Name = 
REMARK  5 active torsions:
REMARK  status: ('A' for Active; 'I' for Inactive)
REMARK    1  A    between atoms: S_2  and  C_5
REMARK    2  A    between atoms: C_8  and  C_9
REMARK    3  A    between atoms: C_9  and  N_10
REMARK    4  A    between atoms: N_16  and  C_17
REMARK    5  A    between atoms: C_17  and  C_18
REMARK                            x       y       z     vdW  Elec       q    Type
REMARK                         _______ _______ _______ _____ _____    ______ ____
ROOT
ATOM     10  N   UNL     1      -3.957   1.190  24.154  0.00  0.00    -0.266 NA
ATOM     11  C   UNL     1      -4.669   1.389  24.519  0.00  0.00    +0.094 C 
ATOM     12  C   UNL     1      -4.704   2.037  25.028  0.00  0.00    +0.112 C 
ATOM     13  N   UNL     1      -4.027   2.486  25.172  0.00  0.00    -0.261 N 
ATOM     14  C   UNL     1      -3.315   2.287  24.807  0.00  0.00    +0.113 C 
ATOM     15  C   UNL     1      -2.742   2.827  25.052  0.00  0.00    +0.116 C 
ATOM     16  N   UNL     1      -3.100   3.361  25.568  0.00  0.00    -0.258 N 
ATOM     25  C   UNL     1      -3.894   3.150  25.642  0.00  0.00    +0.308 C 
ATOM     26  O   UNL     1      -4.457   3.536  26.106  0.00  0.00    -0.252 OA
ATOM     27  C   UNL     1      -3.279   1.638  24.297  0.00  0.00    +0.094 C 
ENDROOT
BRANCH  10   9
ATOM      9  C   UNL     1      -3.922   0.541  23.645  0.00  0.00    +0.099 C 
BRANCH   9   8
ATOM      5  C   UNL     1      -3.519  -1.725  24.557  0.00  0.00    +0.106 A 
ATOM      6  C   UNL     1      -4.279  -1.501  24.328  0.00  0.00    +0.018 A 
ATOM      7  C   UNL     1      -4.414  -0.746  24.024  0.00  0.00    -0.002 A 
ATOM      8  C   UNL     1      -3.788  -0.214  23.949  0.00  0.00    -0.006 A 
ATOM     28  C   UNL     1      -3.027  -0.438  24.177  0.00  0.00    -0.002 A 
ATOM     29  C   UNL     1      -2.893  -1.193  24.481  0.00  0.00    +0.018 A 
BRANCH   5   2
ATOM      1  C   UNL     1      -3.249  -3.234  25.166  0.00  0.00    +0.182 C 
ATOM      2  S   UNL     1      -3.384  -2.480  24.861  0.00  0.00    +0.010 S 
ATOM      3  O   UNL     1      -3.235  -2.760  24.100  0.00  0.00    -0.169 OA
ATOM      4  O   UNL     1      -3.533  -2.199  25.623  0.00  0.00    -0.169 OA
ENDBRANCH   5   2
ENDBRANCH   9   8
ENDBRANCH  10   9
BRANCH  16  17
ATOM     17  C   UNL     1      -2.729   3.994  25.945  0.00  0.00    +0.122 C 
BRANCH  17  18
ATOM     18  C   UNL     1      -2.082   4.364  25.591  0.00  0.00    -0.002 A 
ATOM     19  C   UNL     1      -1.348   3.988  25.576  0.00  0.00    -0.000 A 
ATOM     20  C   UNL     1      -0.702   4.359  25.222  0.00  0.00    +0.029 A 
ATOM     21  C   UNL     1      -0.790   5.106  24.882  0.00  0.00    +0.140 A 
ATOM     22  F   UNL     1      -0.144   5.477  24.527  0.00  0.00    -0.204 F 
ATOM     23  C   UNL     1      -1.524   5.481  24.897  0.00  0.00    +0.029 A 
ATOM     24  C   UNL     1      -2.171   5.111  25.251  0.00  0.00    -0.000 A 
ENDBRANCH  17  18
ENDBRANCH  16  17
TORSDOF 5
ENDMDL
MODEL 2
REMARK VINA RESULT:     -11.3      2.123      2.765
REMARK  Name = 
REMARK  5 active torsions:
REMARK  status: ('A' for Active; 'I' for Inactive)
REMARK    1  A    between atoms: S_2  and  C_5
REMARK    2  A    between atoms: C_8  and  C_9
REMARK    3  A    between atoms: C_9  and  N_10
REMARK    4  A    between atoms: N_16  and  C_17
REMARK    5  A    between atoms: C_17  and  C_18
REMARK                            x       y       z     vdW  Elec       q    Type
REMARK                         _______ _______ _______ _____ _____    ______ ____
ROOT
ATOM     10  N   UNL     1      -0.820  -0.052  25.185  0.00  0.00    -0.266 NA
ATOM     11  C   UNL     1      -0.271   0.114  24.593  0.00  0.00    +0.094 C 
ATOM     12  C   UNL     1      -0.161   0.891  24.339  0.00  0.00    +0.112 C 
ATOM     13  N   UNL     1      -0.601   1.502  24.676  0.00  0.00    -0.261 N 
ATOM     14  C   UNL     1      -1.151   1.336  25.268  0.00  0.00    +0.113 C 
ATOM     15  C   UNL     1      -1.502   2.046  25.497  0.00  0.00    +0.116 C 
ATOM     16  N   UNL     1      -1.170   2.651  25.046  0.00  0.00    -0.258 N 
ATOM     25  C   UNL     1      -0.613   2.314  24.539  0.00  0.00    +0.308 C 
ATOM     26  O   UNL     1      -0.149   2.720  23.990  0.00  0.00    -0.252 OA
ATOM     27  C   UNL     1      -1.261   0.558  25.523  0.00  0.00    +0.094 C 
ENDROOT
BRANCH  10   9
ATOM      9  C   UNL     1      -0.930  -0.830  25.441  0.00  0.00    +0.099 C 
BRANCH   9   8
ATOM      5  C   UNL     1      -2.897  -2.118  24.668  0.00  0.00    +0.106 A 
ATOM      6  C   UNL     1      -2.973  -1.583  25.290  0.00  0.00    +0.018 A 
ATOM      7  C   UNL     1      -2.318  -1.153  25.548  0.00  0.00    -0.002 A 
ATOM      8  C   UNL     1      -1.586  -1.259  25.183  0.00  0.00    -0.006 A 
ATOM     28  C   UNL     1      -1.509  -1.795  24.560  0.00  0.00    -0.002 A 
ATOM     29  C   UNL     1      -2.164  -2.224  24.303  0.00  0.00    +0.018 A 
BRANCH   5   2
ATOM      1  C   UNL     1      -4.207  -2.976  24.150  0.00  0.00    +0.182 C 
ATOM      2  S   UNL     1      -3.552  -2.548  24.409  0.00  0.00    +0.010 S 
ATOM      3  O   UNL     1      -3.363  -3.154  24.935  0.00  0.00    -0.169 OA
ATOM      4  O   UNL     1      -3.741  -1.941  23.882  0.00  0.00    -0.169 OA
ENDBRANCH   5   2
ENDBRANCH   9   8
ENDBRANCH  10   9
BRANCH  16  17
ATOM     17  C   UNL     1      -1.361   3.452  25.093  0.00  0.00    +0.122 C 
BRANCH  17  18
ATOM     18  C   UNL     1      -2.135   3.683  25.261  0.00  0.00    -0.002 A 
ATOM     19  C   UNL     1      -2.711   3.658  24.670  0.00  0.00    -0.000 A 
ATOM     20  C   UNL     1      -3.484   3.889  24.839  0.00  0.00    +0.029 A 
ATOM     21  C   UNL     1      -3.683   4.145  25.597  0.00  0.00    +0.140 A 
ATOM     22  F   UNL     1      -4.457   4.377  25.766  0.00  0.00    -0.204 F 
ATOM     23  C   UNL     1      -3.107   4.171  26.187  0.00  0.00    +0.029 A 
ATOM     24  C   UNL     1      -2.333   3.940  26.020  0.00  0.00    -0.000 A 
ENDBRANCH  17  18
ENDBRANCH  16  17
TORSDOF 5
ENDMDL
MODEL 3
REMARK VINA RESULT:     -10.9      2.848      5.621
REMARK  Name = 
REMARK  5 active torsions:
REMARK  status: ('A' for Active; 'I' for Inactive)
REMARK    1  A    between atoms: S_2  and  C_5
REMARK    2  A    between atoms: C_8  and  C_9
REMARK    3  A    between atoms: C_9  and  N_10
REMARK    4  A    between atoms: N_16  and  C_17
REMARK    5  A    between atoms: C_17  and  C_18
REMARK                            x       y       z     vdW  Elec       q    Type
REMARK                         _______ _______ _______ _____ _____    ______ ____
ROOT
ATOM     10  N   UNL     1      -1.800   1.848  24.747  0.00  0.00    -0.266 NA
ATOM     11  C   UNL     1      -1.238   1.836  25.352  0.00  0.00    +0.094 C 
ATOM     12  C   UNL     1      -0.959   1.116  25.640  0.00  0.00    +0.112 C 
ATOM     13  N   UNL     1      -1.241   0.407  25.325  0.00  0.00    -0.261 N 
ATOM     14  C   UNL     1      -1.802   0.419  24.721  0.00  0.00    +0.113 C 
ATOM     15  C   UNL     1      -1.977  -0.361  24.519  0.00  0.00    +0.116 C 
ATOM     16  N   UNL     1      -1.524  -0.856  24.999  0.00  0.00    -0.258 N 
ATOM     25  C   UNL     1      -1.069  -0.381  25.497  0.00  0.00    +0.308 C 
ATOM     26  O   UNL     1      -0.536  -0.647  26.067  0.00  0.00    -0.252 OA
ATOM     27  C   UNL     1      -2.082   1.140  24.431  0.00  0.00    +0.094 C 
ENDROOT
BRANCH  10   9
ATOM      9  C   UNL     1      -2.080   2.569  24.458  0.00  0.00    +0.099 C 
BRANCH   9   8
ATOM      5  C   UNL     1      -4.299   3.406  25.164  0.00  0.00    +0.106 A 
ATOM      6  C   UNL     1      -3.632   3.570  25.620  0.00  0.00    +0.018 A 
ATOM      7  C   UNL     1      -2.892   3.292  25.385  0.00  0.00    -0.002 A 
ATOM      8  C   UNL     1      -2.819   2.848  24.694  0.00  0.00    -0.006 A 
ATOM     28  C   UNL     1      -3.487   2.683  24.237  0.00  0.00    -0.002 A 
ATOM     29  C   UNL     1      -4.226   2.962  24.472  0.00  0.00    +0.018 A 
BRANCH   5   2
ATOM      1  C   UNL     1      -5.780   3.962  25.634  0.00  0.00    +0.182 C 
ATOM      2  S   UNL     1      -5.039   3.684  25.399  0.00  0.00    +0.010 S 
ATOM      3  O   UNL     1      -4.877   4.413  25.049  0.00  0.00    -0.169 OA
ATOM      4  O   UNL     1      -5.202   2.955  25.749  0.00  0.00    -0.169 OA
ENDBRANCH   5   2
ENDBRANCH   9   8
ENDBRANCH  10   9
BRANCH  16  17
ATOM     17  C   UNL     1      -1.526  -1.681  24.983  0.00  0.00    +0.122 C 
BRANCH  17  18
ATOM     18  C   UNL     1      -2.219  -2.089  24.804  0.00  0.00    -0.002 A 
ATOM     19  C   UNL     1      -2.841  -2.106  25.346  0.00  0.00    -0.000 A 
ATOM     20  C   UNL     1      -3.534  -2.515  25.166  0.00  0.00    +0.029 A 
ATOM     21  C   UNL     1      -3.607  -2.907  24.444  0.00  0.00    +0.140 A 
ATOM     22  F   UNL     1      -4.300  -3.316  24.263  0.00  0.00    -0.204 F 
ATOM     23  C   UNL     1      -2.985  -2.890  23.901  0.00  0.00    +0.029 A 
ATOM     24  C   UNL     1      -2.291  -2.481  24.081  0.00  0.00    -0.000 A 
ENDBRANCH  17  18
ENDBRANCH  16  17
TORSDOF 5
ENDMDL
