MODEL 1
REMARK VINA RESULT:     -15.8      0.000      0.000
REMARK  Name = 
REMARK  5 active torsions:
REMARK  status: ('A' for Active; 'I' for Inactive)
REMARK    1  A    between atoms: O_2  and  C_3
REMARK    2  A    between atoms: C_6  and  N_7
REMARK    3  A    between atoms: C_19  and  N_20
REMARK    4  A    between atoms: N_23  and  C_24
REMARK    5  A    between atoms: C_29  and  O_30
REMARK                            x       y       z     vdW  Elec       q    Type
REMARK                         _______ _______ _______ _____ _____    ______ ____
ROOT
ATOM      7  N   UNL     1      -3.343   2.369  24.722  0.00  0.00    -0.162 NA
ATOM      8  C   UNL     1      -3.302   3.191  24.793  0.00  0.00    +0.327 C 
ATOM      9  O   UNL     1      -2.607   3.587  24.595  0.00  0.00    -0.250 OA
ATOM     10  N   UNL     1      -3.956   3.615  25.064  0.00  0.00    -0.262 N 
ATOM     11  C   UNL     1      -4.418   4.272  25.292  0.00  0.00    +0.097 C 
ATOM     12  C   UNL     1      -5.257   3.809  25.534  0.00  0.00    +0.043 C 
ATOM     13  C   UNL     1      -6.004   3.584  25.768  0.00  0.00    +0.011 C 
ATOM     14  C   UNL     1      -5.419   3.275  25.534  0.00  0.00    +0.058 C 
ATOM     15  C   UNL     1      -4.615   3.737  25.304  0.00  0.00    +0.101 C 
ATOM     16  C   UNL     1      -5.072   2.449  25.328  0.00  0.00    +0.041 A 
ATOM     17  C   UNL     1      -5.282   1.652  25.317  0.00  0.00    +0.014 A 
ATOM     18  C   UNL     1      -4.735   1.085  25.069  0.00  0.00    +0.023 A 
ATOM     19  C   UNL     1      -3.980   1.317  24.832  0.00  0.00    +0.131 A 
ATOM     32  C   UNL     1      -3.770   2.115  24.843  0.00  0.00    +0.276 A 
ATOM     33  O   UNL     1      -3.045   1.839  24.564  0.00  0.00    -0.266 OA
ATOM     34  N   UNL     1      -4.317   2.681  25.091  0.00  0.00    -0.298 N 
ATOM     35  C   UNL     1      -4.887   2.950  25.316  0.00  0.00    +0.110 C 
ENDROOT
BRANCH   7   6
ATOM      3  C   UNL     1      -1.379   1.099  23.913  0.00  0.00    +0.139 A 
ATOM      4  C   UNL     1      -1.468   1.252  24.718  0.00  0.00    +0.038 A 
ATOM      5  C   UNL     1      -2.123   1.675  24.988  0.00  0.00    +0.020 A 
ATOM      6  C   UNL     1      -2.689   1.946  24.452  0.00  0.00    +0.075 A 
ATOM     36  C   UNL     1      -2.600   1.793  23.647  0.00  0.00    +0.020 A 
ATOM     37  C   UNL     1      -1.946   1.369  23.376  0.00  0.00    +0.038 A 
BRANCH   3   2
ATOM      1  C   UNL     1       0.036   0.915  23.851  0.00  0.00    +0.252 C 
ATOM      2  O   UNL     1      -0.725   0.675  23.643  0.00  0.00    -0.471 OA
ENDBRANCH   3   2
ENDBRANCH   7   6
BRANCH  19  20
ATOM     20  N   UNL     1      -3.434   0.751  24.584  0.00  0.00    -0.156 NA
ATOM     21  C   UNL     1      -3.653  -0.044  24.544  0.00  0.00    +0.348 C 
ATOM     22  O   UNL     1      -4.419  -0.272  24.750  0.00  0.00    -0.248 OA
ATOM     23  N   UNL     1      -3.106  -0.611  24.295  0.00  0.00    -0.158 NA
BRANCH  23  24
ATOM     24  C   UNL     1      -3.325  -1.405  24.254  0.00  0.00    +0.109 A 
ATOM     25  C   UNL     1      -4.030  -1.619  23.883  0.00  0.00    +0.020 A 
ATOM     26  C   UNL     1      -4.249  -2.413  23.842  0.00  0.00    +0.002 A 
ATOM     27  C   UNL     1      -3.764  -2.993  24.173  0.00  0.00    +0.003 A 
ATOM     28  C   UNL     1      -3.059  -2.778  24.544  0.00  0.00    +0.038 A 
ATOM     29  C   UNL     1      -2.840  -1.984  24.585  0.00  0.00    +0.154 A 
BRANCH  29  30
ATOM     30  O   UNL     1      -2.135  -1.770  24.957  0.00  0.00    -0.470 OA
ATOM     31  C   UNL     1      -1.540  -2.330  25.067  0.00  0.00    +0.253 C 
ENDBRANCH  29  30
ENDBRANCH  23  24
ENDBRANCH  19  20
TORSDOF 5
ENDMDL
MODEL 2
REMARK VINA RESULT:     -15.4      1.237      4.501
REMARK  Name = 
REMARK  5 active torsions:
REMARK  status: ('A' for Active; 'I' for Inactive)
REMARK    1  A    between atoms: O_2  and  C_3
REMARK    2  A    between atoms: C_6  and  N_7
REMARK    3  A    between atoms: C_19  and  N_20
REMARK    4  A    between atoms: N_23  and  C_24
REMARK    5  A    between atoms: C_29  and  O_30
REMARK                            x       y       z     vdW  Elec       q    Type
REMARK                         _______ _______ _______ _____ _____    ______ ____
ROOT
ATOM      7  N   UNL     1      -1.906  -0.630  24.714  0.00  0.00    -0.162 NA
ATOM      8  C   UNL     1      -1.543  -1.370  24.756  0.00  0.00    +0.327 C 
ATOM      9  O   UNL     1      -0.733  -1.425  24.898  0.00  0.00    -0.250 OA
ATOM     10  N   UNL     1      -1.991  -2.056  24.656  0.00  0.00    -0.262 N 
ATOM     11  C   UNL     1      -2.167  -2.871  24.601  0.00  0.00    +0.097 C 
ATOM     12  C   UNL     1      -3.139  -2.819  24.430  0.00  0.00    +0.043 C 
ATOM     13  C   UNL     1      -3.931  -2.947  24.285  0.00  0.00    +0.011 C 
ATOM     14  C   UNL     1      -3.502  -2.399  24.378  0.00  0.00    +0.058 C 
ATOM     15  C   UNL     1      -2.563  -2.465  24.542  0.00  0.00    +0.101 C 
ATOM     16  C   UNL     1      -3.501  -1.480  24.405  0.00  0.00    +0.041 A 
ATOM     17  C   UNL     1      -4.013  -0.837  24.333  0.00  0.00    +0.014 A 
ATOM     18  C   UNL     1      -3.722  -0.069  24.408  0.00  0.00    +0.023 A 
ATOM     19  C   UNL     1      -2.920   0.056  24.554  0.00  0.00    +0.131 A 
ATOM     32  C   UNL     1      -2.408  -0.587  24.626  0.00  0.00    +0.276 A 
ATOM     33  O   UNL     1      -1.834  -0.006  24.745  0.00  0.00    -0.266 OA
ATOM     34  N   UNL     1      -2.699  -1.355  24.551  0.00  0.00    -0.298 N 
ATOM     35  C   UNL     1      -3.129  -1.860  24.460  0.00  0.00    +0.110 C 
ENDROOT
BRANCH   7   6
ATOM      3  C   UNL     1      -0.560   1.425  25.015  0.00  0.00    +0.139 A 
ATOM      4  C   UNL     1      -0.897   1.053  25.670  0.00  0.00    +0.038 A 
ATOM      5  C   UNL     1      -1.346   0.368  25.569  0.00  0.00    +0.020 A 
ATOM      6  C   UNL     1      -1.457   0.055  24.813  0.00  0.00    +0.075 A 
ATOM     36  C   UNL     1      -1.120   0.427  24.160  0.00  0.00    +0.020 A 
ATOM     37  C   UNL     1      -0.672   1.112  24.260  0.00  0.00    +0.038 A 
BRANCH   3   2
ATOM      1  C   UNL     1       0.242   2.269  25.844  0.00  0.00    +0.252 C 
ATOM      2  O   UNL     1      -0.111   2.110  25.116  0.00  0.00    -0.471 OA
ENDBRANCH   3   2
ENDBRANCH   7   6
BRANCH  19  20
ATOM     20  N   UNL     1      -2.630   0.825  24.628  0.00  0.00    -0.156 NA
ATOM     21  C   UNL     1      -3.128   1.469  24.496  0.00  0.00    +0.348 C 
ATOM     22  O   UNL     1      -3.917   1.344  24.290  0.00  0.00    -0.248 OA
ATOM     23  N   UNL     1      -2.837   2.238  24.571  0.00  0.00    -0.158 NA
BRANCH  23  24
ATOM     24  C   UNL     1      -3.335   2.882  24.439  0.00  0.00    +0.109 A 
ATOM     25  C   UNL     1      -3.748   2.944  23.727  0.00  0.00    +0.020 A 
ATOM     26  C   UNL     1      -4.247   3.588  23.595  0.00  0.00    +0.002 A 
ATOM     27  C   UNL     1      -4.332   4.170  24.175  0.00  0.00    +0.003 A 
ATOM     28  C   UNL     1      -3.919   4.107  24.886  0.00  0.00    +0.038 A 
ATOM     29  C   UNL     1      -3.420   3.463  25.018  0.00  0.00    +0.154 A 
BRANCH  29  30
ATOM     30  O   UNL     1      -3.007   3.401  25.729  0.00  0.00    -0.470 OA
ATOM     31  C   UNL     1      -2.972   4.045  26.244  0.00  0.00    +0.253 C 
ENDBRANCH  29  30
ENDBRANCH  23  24
ENDBRANCH  19  20
TORSDOF 5
ENDMDL
MODEL 3
REMARK VINA RESULT:     -15.0      1.290      5.013
REMARK  Name = 
REMARK  5 active torsions:
REMARK  status: ('A' for Active; 'I' for Inactive)
REMARK    1  A    between atoms: O_2  and  C_3
REMARK    2  A    between atoms: C_6  and  N_7
REMARK    3  A    between atoms: C_19  and  N_20
REMARK    4  A    between atoms: N_23  and  C_24
REMARK    5  A    between atoms: C_29  and  O_30
REMARK                            x       y       z     vdW  Elec       q    Type
REMARK                         _______ _______ _______ _____ _____    ______ ____
ROOT
ATOM      7  N   UNL     1      -3.236  -0.372  24.616  0.00  0.00    -0.162 NA
ATOM      8  C   UNL     1      -3.554  -1.124  24.498  0.00  0.00    +0.327 C 
ATOM      9  O   UNL     1      -4.363  -1.214  24.364  0.00  0.00    -0.250 OA
ATOM     10  N   UNL     1      -3.062  -1.787  24.514  0.00  0.00    -0.262 N 
ATOM     11  C   UNL     1      -2.836  -2.590  24.476  0.00  0.00    +0.097 C 
ATOM     12  C   UNL     1      -1.865  -2.497  24.636  0.00  0.00    +0.043 C 
ATOM     13  C   UNL     1      -1.064  -2.589  24.752  0.00  0.00    +0.011 C 
ATOM     14  C   UNL     1      -1.528  -2.062  24.728  0.00  0.00    +0.058 C 
ATOM     15  C   UNL     1      -2.464  -2.169  24.573  0.00  0.00    +0.101 C 
ATOM     16  C   UNL     1      -1.585  -1.148  24.802  0.00  0.00    +0.041 A 
ATOM     17  C   UNL     1      -1.112  -0.485  24.936  0.00  0.00    +0.014 A 
ATOM     18  C   UNL     1      -1.451   0.266  24.952  0.00  0.00    +0.023 A 
ATOM     19  C   UNL     1      -2.263   0.356  24.833  0.00  0.00    +0.131 A 
ATOM     32  C   UNL     1      -2.736  -0.307  24.700  0.00  0.00    +0.276 A 
ATOM     33  O   UNL     1      -3.346   0.246  24.655  0.00  0.00    -0.266 OA
ATOM     34  N   UNL     1      -2.397  -1.058  24.684  0.00  0.00    -0.298 N 
ATOM     35  C   UNL     1      -1.935  -1.542  24.712  0.00  0.00    +0.110 C 
ENDROOT
BRANCH   7   6
ATOM      3  C   UNL     1      -4.712   1.614  24.568  0.00  0.00    +0.139 A 
ATOM      4  C   UNL     1      -4.611   1.193  25.270  0.00  0.00    +0.038 A 
ATOM      5  C   UNL     1      -4.118   0.531  25.286  0.00  0.00    +0.020 A 
ATOM      6  C   UNL     1      -3.728   0.290  24.599  0.00  0.00    +0.075 A 
ATOM     36  C   UNL     1      -3.830   0.712  23.898  0.00  0.00    +0.020 A 
ATOM     37  C   UNL     1      -4.322   1.374  23.882  0.00  0.00    +0.038 A 
BRANCH   3   2
ATOM      1  C   UNL     1      -5.953   2.242  24.896  0.00  0.00    +0.252 C 
ATOM      2  O   UNL     1      -5.205   2.276  24.552  0.00  0.00    -0.471 OA
ENDBRANCH   3   2
ENDBRANCH   7   6
BRANCH  19  20
ATOM     20  N   UNL     1      -2.601   1.108  24.849  0.00  0.00    -0.156 NA
ATOM     21  C   UNL     1      -2.121   1.775  24.919  0.00  0.00    +0.348 C 
ATOM     22  O   UNL     1      -1.302   1.690  24.973  0.00  0.00    -0.248 OA
ATOM     23  N   UNL     1      -2.460   2.528  24.935  0.00  0.00    -0.158 NA
BRANCH  23  24
ATOM     24  C   UNL     1      -1.980   3.195  25.004  0.00  0.00    +0.109 A 
ATOM     25  C   UNL     1      -1.293   3.257  24.552  0.00  0.00    +0.020 A 
ATOM     26  C   UNL     1      -0.813   3.924  24.622  0.00  0.00    +0.002 A 
ATOM     27  C   UNL     1      -1.020   4.529  25.144  0.00  0.00    +0.003 A 
ATOM     28  C   UNL     1      -1.707   4.467  25.596  0.00  0.00    +0.038 A 
ATOM     29  C   UNL     1      -2.187   3.800  25.526  0.00  0.00    +0.154 A 
BRANCH  29  30
ATOM     30  O   UNL     1      -2.874   3.737  25.978  0.00  0.00    -0.470 OA
ATOM     31  C   UNL     1      -3.125   4.374  26.439  0.00  0.00    +0.253 C 
ENDBRANCH  29  30
ENDBRANCH  23  24
ENDBRANCH  19  20
TORSDOF 5
ENDMDL
MODEL 4
REMARK VINA RESULT:     -14.8      1.451      3.009
REMARK  Name = 
REMARK  5 active torsions:
REMARK  status: ('A' for Active; 'I' for Inactive)
REMARK    1  A    between atoms: O_2  and  C_3
REMARK    2  A    between atoms: C_6  and  N_7
REMARK    3  A    between atoms: C_19  and  N_20
REMARK    4  A    between atoms: N_23  and  C_24
REMARK    5  A    between atoms: C_29  and  O_30
REMARK                            x       y       z     vdW  Elec       q    Type
REMARK                         _______ _______ _______ _____ _____    ______ ____
ROOT
ATOM      7  N   UNL     1      -3.089   3.037  24.974  0.00  0.00    -0.162 NA
ATOM      8  C   UNL     1      -3.050   3.862  24.955  0.00  0.00    +0.327 C 
ATOM      9  O   UNL     1      -3.741   4.306  24.888  0.00  0.00    -0.250 OA
ATOM     10  N   UNL     1      -2.319   4.241  25.004  0.00  0.00    -0.262 N 
ATOM     11  C   UNL     1      -1.766   4.867  25.032  0.00  0.00    +0.097 C 
ATOM     12  C   UNL     1      -0.930   4.346  25.113  0.00  0.00    +0.043 C 
ATOM     13  C   UNL     1      -0.167   4.070  25.181  0.00  0.00    +0.011 C 
ATOM     14  C   UNL     1      -0.814   3.801  25.136  0.00  0.00    +0.058 C 
ATOM     15  C   UNL     1      -1.613   4.319  25.059  0.00  0.00    +0.101 C 
ATOM     16  C   UNL     1      -1.261   2.999  25.121  0.00  0.00    +0.041 A 
ATOM     17  C   UNL     1      -1.122   2.187  25.153  0.00  0.00    +0.014 A 
ATOM     18  C   UNL     1      -1.754   1.658  25.117  0.00  0.00    +0.023 A 
ATOM     19  C   UNL     1      -2.526   1.941  25.047  0.00  0.00    +0.131 A 
ATOM     32  C   UNL     1      -2.665   2.753  25.015  0.00  0.00    +0.276 A 
ATOM     33  O   UNL     1      -3.456   2.527  24.957  0.00  0.00    -0.266 OA
ATOM     34  N   UNL     1      -2.033   3.282  25.052  0.00  0.00    -0.298 N 
ATOM     35  C   UNL     1      -1.406   3.513  25.096  0.00  0.00    +0.110 C 
ENDROOT
BRANCH   7   6
ATOM      3  C   UNL     1      -5.283   1.901  24.829  0.00  0.00    +0.139 A 
ATOM      4  C   UNL     1      -4.979   2.118  25.564  0.00  0.00    +0.038 A 
ATOM      5  C   UNL     1      -4.247   2.497  25.612  0.00  0.00    +0.020 A 
ATOM      6  C   UNL     1      -3.820   2.659  24.925  0.00  0.00    +0.075 A 
ATOM     36  C   UNL     1      -4.125   2.441  24.190  0.00  0.00    +0.020 A 
ATOM     37  C   UNL     1      -4.856   2.063  24.141  0.00  0.00    +0.038 A 
BRANCH   3   2
ATOM      1  C   UNL     1      -6.710   1.963  24.822  0.00  0.00    +0.252 C 
ATOM      2  O   UNL     1      -6.015   1.522  24.781  0.00  0.00    -0.471 OA
ENDBRANCH   3   2
ENDBRANCH   7   6
BRANCH  19  20
ATOM     20  N   UNL     1      -3.157   1.412  25.010  0.00  0.00    -0.156 NA
ATOM     21  C   UNL     1      -3.027   0.606  25.127  0.00  0.00    +0.348 C 
ATOM     22  O   UNL     1      -2.265   0.329  25.281  0.00  0.00    -0.248 OA
ATOM     23  N   UNL     1      -3.659   0.076  25.090  0.00  0.00    -0.158 NA
BRANCH  23  24
ATOM     24  C   UNL     1      -3.530  -0.730  25.207  0.00  0.00    +0.109 A 
ATOM     25  C   UNL     1      -3.170  -0.993  25.901  0.00  0.00    +0.020 A 
ATOM     26  C   UNL     1      -3.040  -1.799  26.018  0.00  0.00    +0.002 A 
ATOM     27  C   UNL     1      -3.270  -2.342  25.441  0.00  0.00    +0.003 A 
ATOM     28  C   UNL     1      -3.630  -2.079  24.747  0.00  0.00    +0.038 A 
ATOM     29  C   UNL     1      -3.760  -1.273  24.630  0.00  0.00    +0.154 A 
BRANCH  29  30
ATOM     30  O   UNL     1      -4.119  -1.010  23.936  0.00  0.00    -0.470 OA
ATOM     31  C   UNL     1      -4.437  -1.554  23.404  0.00  0.00    +0.253 C 
ENDBRANCH  29  30
ENDBRANCH  23  24
ENDBRANCH  19  20
TORSDOF 5
ENDMDL
MODEL 5
REMARK VINA RESULT:     -14.5      1.005      2.731
REMARK  Name = 
REMARK  5 active torsions:
REMARK  status: ('A' for Active; 'I' for Inactive)
REMARK    1  A    between atoms: O_2  and  C_3
REMARK    2  A    between atoms: C_6  and  N_7
REMARK    3  A    between atoms: C_19  and  N_20
REMARK    4  A    between atoms: N_23  and  C_24
REMARK    5  A    between atoms: C_29  and  O_30
REMARK                            x       y       z     vdW  Elec       q    Type
REMARK                         _______ _______ _______ _____ _____    ______ ____
ROOT
ATOM      7  N   UNL     1      -4.373   1.148  24.973  0.00  0.00    -0.162 NA
ATOM      8  C   UNL     1      -5.147   1.379  25.144  0.00  0.00    +0.327 C 
ATOM      9  O   UNL     1      -5.749   0.817  25.168  0.00  0.00    -0.250 OA
ATOM     10  N   UNL     1      -5.318   2.173  25.291  0.00  0.00    -0.262 N 
ATOM     11  C   UNL     1      -5.769   2.852  25.471  0.00  0.00    +0.097 C 
ATOM     12  C   UNL     1      -5.057   3.537  25.445  0.00  0.00    +0.043 C 
ATOM     13  C   UNL     1      -4.596   4.208  25.462  0.00  0.00    +0.011 C 
ATOM     14  C   UNL     1      -4.508   3.521  25.345  0.00  0.00    +0.058 C 
ATOM     15  C   UNL     1      -5.208   2.872  25.374  0.00  0.00    +0.101 C 
ATOM     16  C   UNL     1      -3.862   2.902  25.140  0.00  0.00    +0.041 A 
ATOM     17  C   UNL     1      -3.053   2.846  24.988  0.00  0.00    +0.014 A 
ATOM     18  C   UNL     1      -2.714   2.113  24.820  0.00  0.00    +0.023 A 
ATOM     19  C   UNL     1      -3.184   1.435  24.804  0.00  0.00    +0.131 A 
ATOM     32  C   UNL     1      -3.993   1.491  24.956  0.00  0.00    +0.276 A 
ATOM     33  O   UNL     1      -3.983   0.675  24.834  0.00  0.00    -0.266 OA
ATOM     34  N   UNL     1      -4.332   2.224  25.124  0.00  0.00    -0.298 N 
ATOM     35  C   UNL     1      -4.388   2.882  25.230  0.00  0.00    +0.110 C 
ENDROOT
BRANCH   7   6
ATOM      3  C   UNL     1      -3.862  -1.233  24.535  0.00  0.00    +0.139 A 
ATOM      4  C   UNL     1      -3.836  -0.941  25.305  0.00  0.00    +0.038 A 
ATOM      5  C   UNL     1      -4.006  -0.147  25.452  0.00  0.00    +0.020 A 
ATOM      6  C   UNL     1      -4.203   0.355  24.826  0.00  0.00    +0.075 A 
ATOM     36  C   UNL     1      -4.229   0.062  24.056  0.00  0.00    +0.020 A 
ATOM     37  C   UNL     1      -4.059  -0.731  23.909  0.00  0.00    +0.038 A 
BRANCH   3   2
ATOM      1  C   UNL     1      -4.200  -2.479  23.922  0.00  0.00    +0.252 C 
ATOM      2  O   UNL     1      -3.691  -2.027  24.388  0.00  0.00    -0.471 OA
ENDBRANCH   3   2
ENDBRANCH   7   6
BRANCH  19  20
ATOM     20  N   UNL     1      -2.845   0.703  24.636  0.00  0.00    -0.156 NA
ATOM     21  C   UNL     1      -2.047   0.654  24.434  0.00  0.00    +0.348 C 
ATOM     22  O   UNL     1      -1.587   1.339  24.399  0.00  0.00    -0.248 OA
ATOM     23  N   UNL     1      -1.707  -0.080  24.266  0.00  0.00    -0.158 NA
BRANCH  23  24
ATOM     24  C   UNL     1      -0.909  -0.128  24.064  0.00  0.00    +0.109 A 
ATOM     25  C   UNL     1      -0.593   0.390  23.505  0.00  0.00    +0.020 A 
ATOM     26  C   UNL     1       0.205   0.341  23.303  0.00  0.00    +0.002 A 
ATOM     27  C   UNL     1       0.687  -0.226  23.659  0.00  0.00    +0.003 A 
ATOM     28  C   UNL     1       0.371  -0.744  24.218  0.00  0.00    +0.038 A 
ATOM     29  C   UNL     1      -0.427  -0.695  24.420  0.00  0.00    +0.154 A 
BRANCH  29  30
ATOM     30  O   UNL     1      -0.743  -1.214  24.979  0.00  0.00    -0.470 OA
ATOM     31  C   UNL     1      -0.285  -1.835  25.271  0.00  0.00    +0.253 C 
ENDBRANCH  29  30
ENDBRANCH  23  24
ENDBRANCH  19  20
TORSDOF 5
ENDMDL
MODEL 6
REMARK VINA RESULT:     -14.3      1.495      2.116
REMARK  Name = 
REMARK  5 active torsions:
REMARK  status: ('A' for Active; 'I' for Inactive)
REMARK    1  A    between atoms: O_2  and  C_3
REMARK    2  A    between atoms: C_6  and  N_7
REMARK    3  A    between atoms: C_19  and  N_20
REMARK    4  A    between atoms: N_23  and  C_24
REMARK    5  A    between atoms: C_29  and  O_30
REMARK                            x       y       z     vdW  Elec       q    Type
REMARK                         _______ _______ _______ _____ _____    ______ ____
ROOT
ATOM      7  N   UNL     1      -3.526   2.605  25.051  0.00  0.00    -0.162 NA
ATOM      8  C   UNL     1      -4.039   3.246  25.136  0.00  0.00    +0.327 C 
ATOM      9  O   UNL     1      -3.740   4.014  25.151  0.00  0.00    -0.250 OA
ATOM     10  N   UNL     1      -4.851   3.118  25.207  0.00  0.00    -0.262 N 
ATOM     11  C   UNL     1      -5.663   3.295  25.294  0.00  0.00    +0.097 C 
ATOM     12  C   UNL     1      -6.035   2.379  25.277  0.00  0.00    +0.043 C 
ATOM     13  C   UNL     1      -6.490   1.704  25.282  0.00  0.00    +0.011 C 
ATOM     14  C   UNL     1      -5.811   1.871  25.227  0.00  0.00    +0.058 C 
ATOM     15  C   UNL     1      -5.467   2.762  25.245  0.00  0.00    +0.101 C 
ATOM     16  C   UNL     1      -4.981   1.490  25.126  0.00  0.00    +0.041 A 
ATOM     17  C   UNL     1      -4.620   0.752  25.050  0.00  0.00    +0.014 A 
ATOM     18  C   UNL     1      -3.800   0.701  24.969  0.00  0.00    +0.023 A 
ATOM     19  C   UNL     1      -3.342   1.387  24.964  0.00  0.00    +0.131 A 
ATOM     32  C   UNL     1      -3.703   2.125  25.040  0.00  0.00    +0.276 A 
ATOM     33  O   UNL     1      -2.932   2.411  24.983  0.00  0.00    -0.266 OA
ATOM     34  N   UNL     1      -4.522   2.176  25.122  0.00  0.00    -0.298 N 
ATOM     35  C   UNL     1      -5.164   1.990  25.172  0.00  0.00    +0.110 C 
ENDROOT
BRANCH   7   6
ATOM      3  C   UNL     1      -1.091   2.990  24.838  0.00  0.00    +0.139 A 
ATOM      4  C   UNL     1      -1.562   2.949  24.163  0.00  0.00    +0.038 A 
ATOM      5  C   UNL     1      -2.374   2.821  24.234  0.00  0.00    +0.020 A 
ATOM      6  C   UNL     1      -2.715   2.733  24.981  0.00  0.00    +0.075 A 
ATOM     36  C   UNL     1      -2.243   2.773  25.656  0.00  0.00    +0.020 A 
ATOM     37  C   UNL     1      -1.431   2.902  25.585  0.00  0.00    +0.038 A 
BRANCH   3   2
ATOM      1  C   UNL     1       0.000   3.798  24.394  0.00  0.00    +0.252 C 
ATOM      2  O   UNL     1      -0.279   3.118  24.768  0.00  0.00    -0.471 OA
ENDBRANCH   3   2
ENDBRANCH   7   6
BRANCH  19  20
ATOM     20  N   UNL     1      -2.523   1.335  24.883  0.00  0.00    -0.156 NA
ATOM     21  C   UNL     1      -2.153   0.598  24.899  0.00  0.00    +0.348 C 
ATOM     22  O   UNL     1      -2.602  -0.088  24.996  0.00  0.00    -0.248 OA
ATOM     23  N   UNL     1      -1.333   0.546  24.817  0.00  0.00    -0.158 NA
BRANCH  23  24
ATOM     24  C   UNL     1      -0.963  -0.191  24.833  0.00  0.00    +0.109 A 
ATOM     25  C   UNL     1      -1.148  -0.733  25.427  0.00  0.00    +0.020 A 
ATOM     26  C   UNL     1      -0.778  -1.470  25.443  0.00  0.00    +0.002 A 
ATOM     27  C   UNL     1      -0.222  -1.665  24.865  0.00  0.00    +0.003 A 
ATOM     28  C   UNL     1      -0.037  -1.123  24.271  0.00  0.00    +0.038 A 
ATOM     29  C   UNL     1      -0.407  -0.386  24.256  0.00  0.00    +0.154 A 
BRANCH  29  30
ATOM     30  O   UNL     1      -0.221   0.156  23.662  0.00  0.00    -0.470 OA
ATOM     31  C   UNL     1       0.438   0.032  23.181  0.00  0.00    +0.253 C 
ENDBRANCH  29  30
ENDBRANCH  23  24
ENDBRANCH  19  20
TORSDOF 5
ENDMDL
