MODEL 1
REMARK VINA RESULT:     -11.2      0.000      0.000
REMARK  Name = 
REMARK  6 active torsions:
REMARK  status: ('A' for Active; 'I' for Inactive)
REMARK    1  A    between atoms: O_2  and  C_3
REMARK    2  A    between atoms: C_6  and  C_7
REMARK    3  A    between atoms: C_7  and  N_8
REMARK    4  A    between atoms: N_12  and  C_13
REMARK    5  A    between atoms: C_13  and  C_14
REMARK    6  A    between atoms: C_18  and  C_20
REMARK                            x       y       z     vdW  Elec       q    Type
REMARK                         _______ _______ _______ _____ _____    ______ ____
ROOT
ATOM      8  N   UNL     1      -4.538   0.624  24.769  0.00  0.00    -0.258 N 
ATOM      9  C   UNL     1      -3.878   0.884  24.347  0.00  0.00    +0.116 C 
ATOM     10  C   UNL     1      -3.807   1.697  24.461  0.00  0.00    +0.113 C 
ATOM     11  C   UNL     1      -3.261   2.249  24.181  0.00  0.00    +0.094 C 
ATOM     12  N   UNL     1      -3.330   3.042  24.392  0.00  0.00    -0.266 NA
ATOM     22  C   UNL     1      -3.946   3.286  24.883  0.00  0.00    +0.094 C 
ATOM     23  C   UNL     1      -4.493   2.736  25.164  0.00  0.00    +0.112 C 
ATOM     24  N   UNL     1      -4.423   1.941  24.953  0.00  0.00    -0.261 N 
ATOM     25  C   UNL     1      -4.875   1.278  25.143  0.00  0.00    +0.308 C 
ATOM     26  O   UNL     1      -5.546   1.269  25.623  0.00  0.00    -0.252 OA
ENDROOT
BRANCH   8   7
ATOM      7  C   UNL     1      -4.813  -0.153  24.809  0.00  0.00    +0.122 C 
BRANCH   7   6
ATOM      3  C   UNL     1      -3.221  -2.041  24.656  0.00  0.00    +0.139 A 
ATOM      4  C   UNL     1      -3.271  -1.599  25.351  0.00  0.00    +0.037 A 
ATOM      5  C   UNL     1      -3.802  -0.969  25.402  0.00  0.00    +0.001 A 
ATOM      6  C   UNL     1      -4.282  -0.782  24.758  0.00  0.00    -0.002 A 
ATOM     27  C   UNL     1      -4.232  -1.224  24.063  0.00  0.00    +0.001 A 
ATOM     28  C   UNL     1      -3.701  -1.853  24.013  0.00  0.00    +0.037 A 
BRANCH   3   2
ATOM      1  C   UNL     1      -1.888  -2.526  24.480  0.00  0.00    +0.252 C 
ATOM      2  O   UNL     1      -2.690  -2.671  24.605  0.00  0.00    -0.471 OA
ENDBRANCH   3   2
ENDBRANCH   7   6
ENDBRANCH   8   7
BRANCH  12  13
ATOM     13  C   UNL     1      -2.784   3.594  24.112  0.00  0.00    +0.099 C 
BRANCH  13  14
ATOM     14  C   UNL     1      -2.141   3.812  24.580  0.00  0.00    -0.005 A 
ATOM     15  C   UNL     1      -2.124   4.557  24.936  0.00  0.00    -0.003 A 
ATOM     16  C   UNL     1      -1.481   4.775  25.405  0.00  0.00    +0.000 A 
ATOM     17  C   UNL     1      -0.856   4.249  25.518  0.00  0.00    +0.010 A 
ATOM     18  C   UNL     1      -0.873   3.505  25.164  0.00  0.00    +0.068 A 
ATOM     19  C   UNL     1      -1.516   3.287  24.695  0.00  0.00    +0.007 A 
BRANCH  18  20
ATOM     20  C   UNL     1      -0.248   2.978  25.277  0.00  0.00    +0.100 C 
ATOM     21  N   UNL     1       0.377   2.452  25.390  0.00  0.00    -0.191 NA
ENDBRANCH  18  20
ENDBRANCH  13  14
ENDBRANCH  12  13
TORSDOF 6
ENDMDL
MODEL 2
REMARK VINA RESULT:     -11.2      1.587      4.839
REMARK  Name = 
REMARK  6 active torsions:
REMARK  status: ('A' for Active; 'I' for Inactive)
REMARK    1  A    between atoms: O_2  and  C_3
REMARK    2  A    between atoms: C_6  and  C_7
REMARK    3  A    between atoms: C_7  and  N_8
REMARK    4  A    between atoms: N_12  and  C_13
REMARK    5  A    between atoms: C_13  and  C_14
REMARK    6  A    between atoms: C_18  and  C_20
REMARK                            x       y       z     vdW  Elec       q    Type
REMARK                         _______ _______ _______ _____ _____    ______ ____
ROOT
ATOM      8  N   UNL     1      -4.288   2.602  25.070  0.00  0.00    -0.258 N 
ATOM      9  C   UNL     1      -3.783   2.188  24.565  0.00  0.00    +0.116 C 
ATOM     10  C   UNL     1      -4.036   1.404  24.538  0.00  0.00    +0.113 C 
ATOM     11  C   UNL     1      -3.751   0.744  24.132  0.00  0.00    +0.094 C 
ATOM     12  N   UNL     1      -4.126   0.015  24.215  0.00  0.00    -0.266 NA
ATOM     22  C   UNL     1      -4.787  -0.056  24.703  0.00  0.00    +0.094 C 
ATOM     23  C   UNL     1      -5.073   0.602  25.110  0.00  0.00    +0.112 C 
ATOM     24  N   UNL     1      -4.697   1.333  25.027  0.00  0.00    -0.261 N 
ATOM     25  C   UNL     1      -4.853   2.073  25.355  0.00  0.00    +0.308 C 
ATOM     26  O   UNL     1      -5.466   2.253  25.878  0.00  0.00    -0.252 OA
ENDROOT
BRANCH   8   7
ATOM      7  C   UNL     1      -4.236   3.404  25.257  0.00  0.00    +0.122 C 
BRANCH   7   6
ATOM      3  C   UNL     1      -2.031   4.526  25.301  0.00  0.00    +0.139 A 
ATOM      4  C   UNL     1      -2.471   4.509  24.604  0.00  0.00    +0.037 A 
ATOM      5  C   UNL     1      -3.206   4.135  24.589  0.00  0.00    +0.001 A 
ATOM      6  C   UNL     1      -3.501   3.778  25.271  0.00  0.00    -0.002 A 
ATOM     27  C   UNL     1      -3.061   3.795  25.970  0.00  0.00    +0.001 A 
ATOM     28  C   UNL     1      -2.326   4.169  25.984  0.00  0.00    +0.037 A 
BRANCH   3   2
ATOM      1  C   UNL     1      -0.650   4.557  24.937  0.00  0.00    +0.252 C 
ATOM      2  O   UNL     1      -1.296   4.900  25.317  0.00  0.00    -0.471 OA
ENDBRANCH   3   2
ENDBRANCH   7   6
ENDBRANCH   8   7
BRANCH  12  13
ATOM     13  C   UNL     1      -3.841  -0.645  23.809  0.00  0.00    +0.099 C 
BRANCH  13  14
ATOM     14  C   UNL     1      -3.449  -1.244  24.220  0.00  0.00    -0.005 A 
ATOM     15  C   UNL     1      -3.856  -1.928  24.439  0.00  0.00    -0.003 A 
ATOM     16  C   UNL     1      -3.465  -2.527  24.850  0.00  0.00    +0.000 A 
ATOM     17  C   UNL     1      -2.667  -2.441  25.042  0.00  0.00    +0.010 A 
ATOM     18  C   UNL     1      -2.260  -1.758  24.823  0.00  0.00    +0.068 A 
ATOM     19  C   UNL     1      -2.651  -1.159  24.412  0.00  0.00    +0.007 A 
BRANCH  18  20
ATOM     20  C   UNL     1      -1.462  -1.673  25.014  0.00  0.00    +0.100 C 
ATOM     21  N   UNL     1      -0.664  -1.588  25.207  0.00  0.00    -0.191 NA
ENDBRANCH  18  20
ENDBRANCH  13  14
ENDBRANCH  12  13
TORSDOF 6
ENDMDL
MODEL 3
REMARK VINA RESULT:     -10.8      1.801      3.101
REMARK  Name = 
REMARK  6 active torsions:
REMARK  status: ('A' for Active; 'I' for Inactive)
REMARK    1  A    between atoms: O_2  and  C_3
REMARK    2  A    between atoms: C_6  and  C_7
REMARK    3  A    between atoms: C_7  and  N_8
REMARK    4  A    between atoms: N_12  and  C_13
REMARK    5  A    between atoms: C_13  and  C_14
REMARK    6  A    between atoms: C_18  and  C_20
REMARK                            x       y       z     vdW  Elec       q    Type
REMARK                         _______ _______ _______ _____ _____    ______ ____
ROOT
ATOM      8  N   UNL     1      -0.740  -0.478  25.028  0.00  0.00    -0.258 N 
ATOM      9  C   UNL     1      -0.968   0.044  25.626  0.00  0.00    +0.116 C 
ATOM     10  C   UNL     1      -0.683   0.793  25.431  0.00  0.00    +0.113 C 
ATOM     11  C   UNL     1      -0.739   1.522  25.814  0.00  0.00    +0.094 C 
ATOM     12  N   UNL     1      -0.391   2.191  25.481  0.00  0.00    -0.266 NA
ATOM     22  C   UNL     1       0.013   2.132  24.764  0.00  0.00    +0.094 C 
ATOM     23  C   UNL     1       0.069   1.404  24.380  0.00  0.00    +0.112 C 
ATOM     24  N   UNL     1      -0.279   0.734  24.714  0.00  0.00    -0.261 N 
ATOM     25  C   UNL     1      -0.315  -0.051  24.465  0.00  0.00    +0.308 C 
ATOM     26  O   UNL     1       0.018  -0.356  23.774  0.00  0.00    -0.252 OA
ENDROOT
BRANCH   8   7
ATOM      7  C   UNL     1      -0.909  -1.285  24.999  0.00  0.00    +0.122 C 
BRANCH   7   6
ATOM      3  C   UNL     1      -3.244  -2.054  24.713  0.00  0.00    +0.139 A 
ATOM      4  C   UNL     1      -3.033  -1.616  25.379  0.00  0.00    +0.037 A 
ATOM      5  C   UNL     1      -2.254  -1.359  25.475  0.00  0.00    +0.001 A 
ATOM      6  C   UNL     1      -1.687  -1.541  24.904  0.00  0.00    -0.002 A 
ATOM     27  C   UNL     1      -1.898  -1.980  24.238  0.00  0.00    +0.001 A 
ATOM     28  C   UNL     1      -2.676  -2.236  24.142  0.00  0.00    +0.037 A 
BRANCH   3   2
ATOM      1  C   UNL     1      -4.412  -2.187  23.901  0.00  0.00    +0.252 C 
ATOM      2  O   UNL     1      -4.022  -2.311  24.617  0.00  0.00    -0.471 OA
ENDBRANCH   3   2
ENDBRANCH   7   6
ENDBRANCH   8   7
BRANCH  12  13
ATOM     13  C   UNL     1      -0.447   2.920  25.864  0.00  0.00    +0.099 C 
BRANCH  13  14
ATOM     14  C   UNL     1      -0.992   3.482  25.603  0.00  0.00    -0.005 A 
ATOM     15  C   UNL     1      -0.740   4.119  25.142  0.00  0.00    -0.003 A 
ATOM     16  C   UNL     1      -1.285   4.680  24.881  0.00  0.00    +0.000 A 
ATOM     17  C   UNL     1      -2.082   4.605  25.082  0.00  0.00    +0.010 A 
ATOM     18  C   UNL     1      -2.334   3.970  25.542  0.00  0.00    +0.068 A 
ATOM     19  C   UNL     1      -1.789   3.408  25.803  0.00  0.00    +0.007 A 
BRANCH  18  20
ATOM     20  C   UNL     1      -3.131   3.895  25.743  0.00  0.00    +0.100 C 
ATOM     21  N   UNL     1      -3.927   3.819  25.943  0.00  0.00    -0.191 NA
ENDBRANCH  18  20
ENDBRANCH  13  14
ENDBRANCH  12  13
TORSDOF 6
ENDMDL
MODEL 4
REMARK VINA RESULT:     -10.5      2.020      5.697
REMARK  Name = 
REMARK  6 active torsions:
REMARK  status: ('A' for Active; 'I' for Inactive)
REMARK    1  A    between atoms: O_2  and  C_3
REMARK    2  A    between atoms: C_6  and  C_7
REMARK    3  A    between atoms: C_7  and  N_8
REMARK    4  A    between atoms: N_12  and  C_13
REMARK    5  A    between atoms: C_13  and  C_14
REMARK    6  A    between atoms: C_18  and  C_20
REMARK                            x       y       z     vdW  Elec       q    Type
REMARK                         _______ _______ _______ _____ _____    ______ ____
ROOT
ATOM      8  N   UNL     1      -0.079   1.246  24.719  0.00  0.00    -0.258 N 
ATOM      9  C   UNL     1      -0.686   0.972  25.207  0.00  0.00    +0.116 C 
ATOM     10  C   UNL     1      -0.849   0.192  24.997  0.00  0.00    +0.113 C 
ATOM     11  C   UNL     1      -1.393  -0.357  25.287  0.00  0.00    +0.094 C 
ATOM     12  N   UNL     1      -1.430  -1.113  24.962  0.00  0.00    -0.266 NA
ATOM     22  C   UNL     1      -0.924  -1.322  24.345  0.00  0.00    +0.094 C 
ATOM     23  C   UNL     1      -0.379  -0.775  24.054  0.00  0.00    +0.112 C 
ATOM     24  N   UNL     1      -0.342  -0.017  24.380  0.00  0.00    -0.261 N 
ATOM     25  C   UNL     1       0.133   0.634  24.209  0.00  0.00    +0.308 C 
ATOM     26  O   UNL     1       0.719   0.668  23.628  0.00  0.00    -0.252 OA
ENDROOT
BRANCH   8   7
ATOM      7  C   UNL     1       0.257   1.999  24.740  0.00  0.00    +0.122 C 
BRANCH   7   6
ATOM      3  C   UNL     1      -1.155   3.972  25.226  0.00  0.00    +0.139 A 
ATOM      4  C   UNL     1      -0.807   3.553  25.844  0.00  0.00    +0.037 A 
ATOM      5  C   UNL     1      -0.336   2.895  25.683  0.00  0.00    +0.001 A 
ATOM      6  C   UNL     1      -0.214   2.657  24.902  0.00  0.00    -0.002 A 
ATOM     27  C   UNL     1      -0.563   3.077  24.283  0.00  0.00    +0.001 A 
ATOM     28  C   UNL     1      -1.033   3.734  24.445  0.00  0.00    +0.037 A 
BRANCH   3   2
ATOM      1  C   UNL     1      -2.410   4.530  25.621  0.00  0.00    +0.252 C 
ATOM      2  O   UNL     1      -1.626   4.631  25.387  0.00  0.00    -0.471 OA
ENDBRANCH   3   2
ENDBRANCH   7   6
ENDBRANCH   8   7
BRANCH  12  13
ATOM     13  C   UNL     1      -1.974  -1.662  25.252  0.00  0.00    +0.099 C 
BRANCH  13  14
ATOM     14  C   UNL     1      -2.704  -1.755  24.879  0.00  0.00    -0.005 A 
ATOM     15  C   UNL     1      -2.893  -2.472  24.515  0.00  0.00    -0.003 A 
ATOM     16  C   UNL     1      -3.622  -2.566  24.142  0.00  0.00    +0.000 A 
ATOM     17  C   UNL     1      -4.163  -1.943  24.132  0.00  0.00    +0.010 A 
ATOM     18  C   UNL     1      -3.975  -1.227  24.495  0.00  0.00    +0.068 A 
ATOM     19  C   UNL     1      -3.245  -1.133  24.868  0.00  0.00    +0.007 A 
BRANCH  18  20
ATOM     20  C   UNL     1      -4.516  -0.604  24.484  0.00  0.00    +0.100 C 
ATOM     21  N   UNL     1      -5.056   0.019  24.473  0.00  0.00    -0.191 NA
ENDBRANCH  18  20
ENDBRANCH  13  14
ENDBRANCH  12  13
TORSDOF 6
ENDMDL
MODEL 5
REMARK VINA RESULT:     -10.3      1.946      5.270
REMARK  Name = 
REMARK  6 active torsions:
REMARK  status: ('A' for Active; 'I' for Inactive)
REMARK    1  A    between atoms: O_2  and  C_3
REMARK    2  A    between atoms: C_6  and  C_7
REMARK    3  A    between atoms: C_7  and  N_8
REMARK    4  A    between atoms: N_12  and  C_13
REMARK    5  A    between atoms: C_13  and  C_14
REMARK    6  A    between atoms: C_18  and  C_20
REMARK                            x       y       z     vdW  Elec       q    Type
REMARK                         _______ _______ _______ _____ _____    ______ ____
ROOT
ATOM      8  N   UNL     1      -1.692   2.488  24.796  0.00  0.00    -0.258 N 
ATOM      9  C   UNL     1      -2.052   1.886  25.230  0.00  0.00    +0.116 C 
ATOM     10  C   UNL     1      -1.597   1.204  25.145  0.00  0.00    +0.113 C 
ATOM     11  C   UNL     1      -1.683   0.441  25.448  0.00  0.00    +0.094 C 
ATOM     12  N   UNL     1      -1.129  -0.141  25.264  0.00  0.00    -0.266 NA
ATOM     22  C   UNL     1      -0.488   0.039  24.776  0.00  0.00    +0.094 C 
ATOM     23  C   UNL     1      -0.401   0.801  24.473  0.00  0.00    +0.112 C 
ATOM     24  N   UNL     1      -0.956   1.384  24.658  0.00  0.00    -0.261 N 
ATOM     25  C   UNL     1      -1.015   2.178  24.442  0.00  0.00    +0.308 C 
ATOM     26  O   UNL     1      -0.488   2.589  23.957  0.00  0.00    -0.252 OA
ENDROOT
BRANCH   8   7
ATOM      7  C   UNL     1      -1.962   3.265  24.727  0.00  0.00    +0.122 C 
BRANCH   7   6
ATOM      3  C   UNL     1      -4.324   3.804  25.232  0.00  0.00    +0.139 A 
ATOM      4  C   UNL     1      -3.746   3.900  25.812  0.00  0.00    +0.037 A 
ATOM      5  C   UNL     1      -2.958   3.720  25.645  0.00  0.00    +0.001 A 
ATOM      6  C   UNL     1      -2.749   3.445  24.896  0.00  0.00    -0.002 A 
ATOM     27  C   UNL     1      -3.327   3.349  24.314  0.00  0.00    +0.001 A 
ATOM     28  C   UNL     1      -4.115   3.529  24.483  0.00  0.00    +0.037 A 
BRANCH   3   2
ATOM      1  C   UNL     1      -5.631   3.387  25.633  0.00  0.00    +0.252 C 
ATOM      2  O   UNL     1      -5.112   3.984  25.399  0.00  0.00    -0.471 OA
ENDBRANCH   3   2
ENDBRANCH   7   6
ENDBRANCH   8   7
BRANCH  12  13
ATOM     13  C   UNL     1      -1.215  -0.904  25.566  0.00  0.00    +0.099 C 
BRANCH  13  14
ATOM     14  C   UNL     1      -1.544  -1.498  25.098  0.00  0.00    -0.005 A 
ATOM     15  C   UNL     1      -1.058  -2.068  24.751  0.00  0.00    -0.003 A 
ATOM     16  C   UNL     1      -1.387  -2.662  24.283  0.00  0.00    +0.000 A 
ATOM     17  C   UNL     1      -2.203  -2.686  24.162  0.00  0.00    +0.010 A 
ATOM     18  C   UNL     1      -2.689  -2.118  24.508  0.00  0.00    +0.068 A 
ATOM     19  C   UNL     1      -2.360  -1.524  24.977  0.00  0.00    +0.007 A 
BRANCH  18  20
ATOM     20  C   UNL     1      -3.505  -2.142  24.388  0.00  0.00    +0.100 C 
ATOM     21  N   UNL     1      -4.321  -2.168  24.267  0.00  0.00    -0.191 NA
ENDBRANCH  18  20
ENDBRANCH  13  14
ENDBRANCH  12  13
TORSDOF 6
ENDMDL
MODEL 6
REMARK VINA RESULT:     -10.3      1.805      3.422
REMARK  Name = 
REMARK  6 active torsions:
REMARK  status: ('A' for Active; 'I' for Inactive)
REMARK    1  A    between atoms: O_2  and  C_3
REMARK    2  A    between atoms: C_6  and  C_7
REMARK    3  A    between atoms: C_7  and  N_8
REMARK    4  A    between atoms: N_12  and  C_13
REMARK    5  A    between atoms: C_13  and  C_14
REMARK    6  A    between atoms: C_18  and  C_20
REMARK                            x       y       z     vdW  Elec       q    Type
REMARK                         _______ _______ _______ _____ _____    ______ ____
ROOT
ATOM      8  N   UNL     1      -0.873   1.266  24.984  0.00  0.00    -0.258 N 
ATOM      9  C   UNL     1      -1.589   1.289  24.575  0.00  0.00    +0.116 C 
ATOM     10  C   UNL     1      -1.923   2.034  24.690  0.00  0.00    +0.113 C 
ATOM     11  C   UNL     1      -2.626   2.372  24.419  0.00  0.00    +0.094 C 
ATOM     12  N   UNL     1      -2.819   3.146  24.628  0.00  0.00    -0.266 NA
ATOM     22  C   UNL     1      -2.310   3.583  25.109  0.00  0.00    +0.094 C 
ATOM     23  C   UNL     1      -1.607   3.246  25.380  0.00  0.00    +0.112 C 
ATOM     24  N   UNL     1      -1.414   2.471  25.170  0.00  0.00    -0.261 N 
ATOM     25  C   UNL     1      -0.765   1.996  25.352  0.00  0.00    +0.308 C 
ATOM     26  O   UNL     1      -0.121   2.213  25.820  0.00  0.00    -0.252 OA
ENDROOT
BRANCH   8   7
ATOM      7  C   UNL     1      -0.356   0.624  25.019  0.00  0.00    +0.122 C 
BRANCH   7   6
ATOM      3  C   UNL     1      -1.226  -1.683  24.801  0.00  0.00    +0.139 A 
ATOM      4  C   UNL     1      -1.323  -1.271  25.508  0.00  0.00    +0.037 A 
ATOM      5  C   UNL     1      -1.033  -0.502  25.582  0.00  0.00    +0.001 A 
ATOM      6  C   UNL     1      -0.646  -0.145  24.947  0.00  0.00    -0.002 A 
ATOM     27  C   UNL     1      -0.548  -0.557  24.238  0.00  0.00    +0.001 A 
ATOM     28  C   UNL     1      -0.838  -1.326  24.166  0.00  0.00    +0.037 A 
BRANCH   3   2
ATOM      1  C   UNL     1      -2.304  -2.578  24.521  0.00  0.00    +0.252 C 
ATOM      2  O   UNL     1      -1.516  -2.452  24.727  0.00  0.00    -0.471 OA
ENDBRANCH   3   2
ENDBRANCH   7   6
ENDBRANCH   8   7
BRANCH  12  13
ATOM     13  C   UNL     1      -3.521   3.484  24.358  0.00  0.00    +0.099 C 
BRANCH  13  14
ATOM     14  C   UNL     1      -4.215   3.401  24.798  0.00  0.00    -0.005 A 
ATOM     15  C   UNL     1      -4.404   3.955  25.380  0.00  0.00    -0.003 A 
ATOM     16  C   UNL     1      -5.097   3.872  25.819  0.00  0.00    +0.000 A 
ATOM     17  C   UNL     1      -5.601   3.234  25.677  0.00  0.00    +0.010 A 
ATOM     18  C   UNL     1      -5.412   2.681  25.096  0.00  0.00    +0.068 A 
ATOM     19  C   UNL     1      -4.719   2.764  24.656  0.00  0.00    +0.007 A 
BRANCH  18  20
ATOM     20  C   UNL     1      -5.916   2.043  24.954  0.00  0.00    +0.100 C 
ATOM     21  N   UNL     1      -6.419   1.405  24.811  0.00  0.00    -0.191 NA
ENDBRANCH  18  20
ENDBRANCH  13  14
ENDBRANCH  12  13
TORSDOF 6
ENDMDL
