REMARK  Name = 
REMARK  5 active torsions:
REMARK  status: ('A' for Active; 'I' for Inactive)
REMARK    1  A    between atoms: C_5  and  C_8
REMARK    2  A    between atoms: N_10  and  C_11
REMARK    3  A    between atoms: C_11  and  C_12
REMARK    4  A    between atoms: C_14  and  C_15
REMARK    5  A    between atoms: C_15  and  C_16
REMARK                            x       y       z     vdW  Elec       q    Type
REMARK                         _______ _______ _______ _____ _____    ______ ____
ROOT
ATOM     12  C   UNL     1       1.429  -4.950   0.000  0.00  0.00    +0.170 C 
ATOM     13  O   UNL     1       2.096  -5.435   0.000  0.00  0.00    -0.351 OA
ATOM     14  C   UNL     1       1.841  -6.220   0.000  0.00  0.00    +0.157 C 
ATOM     30  C   UNL     1       1.016  -6.220   0.000  0.00  0.00    +0.212 C 
ATOM     31  O   UNL     1       0.531  -6.887   0.000  0.00  0.00    -0.218 OA
ATOM     32  C   UNL     1       0.761  -5.435   0.000  0.00  0.00    +0.213 C 
ATOM     33  O   UNL     1      -0.023  -5.180   0.000  0.00  0.00    -0.218 OA
ENDROOT
BRANCH  12  11
ATOM     11  C   UNL     1       1.429  -4.125   0.000  0.00  0.00    +0.148 C 
BRANCH  11  10
ATOM      8  C   UNL     1       0.715  -2.888   0.000  0.00  0.00    +0.265 C 
ATOM      9  O   UNL     1       1.429  -2.475   0.000  0.00  0.00    -0.268 OA
ATOM     10  N   UNL     1       0.715  -3.712   0.000  0.00  0.00    -0.199 NA
BRANCH   8   5
ATOM      1  C   UNL     1      -2.143  -1.238   0.000  0.00  0.00    +0.031 C 
ATOM      2  C   UNL     1      -1.429  -1.650   0.000  0.00  0.00    -0.022 A 
ATOM      3  C   UNL     1      -0.715  -1.238   0.000  0.00  0.00    -0.004 A 
ATOM      4  C   UNL     1       0.000  -1.650   0.000  0.00  0.00    +0.004 A 
ATOM      5  C   UNL     1       0.000  -2.475   0.000  0.00  0.00    +0.055 A 
ATOM      6  C   UNL     1      -0.715  -2.888   0.000  0.00  0.00    +0.004 A 
ATOM      7  C   UNL     1      -1.429  -2.475   0.000  0.00  0.00    -0.004 A 
ENDBRANCH   8   5
ENDBRANCH  11  10
ENDBRANCH  12  11
BRANCH  14  15
ATOM     15  C   UNL     1       2.326  -6.887   0.000  0.00  0.00    +0.117 C 
BRANCH  15  16
ATOM     16  C   UNL     1       3.147  -6.801   0.000  0.00  0.00    +0.228 C 
ATOM     17  O   UNL     1       3.482  -6.047   0.000  0.00  0.00    -0.275 OA
ATOM     18  N   UNL     1       3.632  -7.468   0.000  0.00  0.00    -0.276 N 
ATOM     19  C   UNL     1       4.452  -7.382   0.000  0.00  0.00    +0.115 C 
ATOM     20  C   UNL     1       4.937  -8.049   0.000  0.00  0.00    +0.114 C 
ATOM     21  N   UNL     1       4.602  -8.803   0.000  0.00  0.00    -0.290 N 
ATOM     22  C   UNL     1       3.781  -8.889   0.000  0.00  0.00    +0.114 C 
ATOM     23  C   UNL     1       3.296  -8.222   0.000  0.00  0.00    +0.115 C 
ATOM     24  C   UNL     1       5.087  -9.470   0.000  0.00  0.00    +0.132 A 
ATOM     25  N   UNL     1       5.907  -9.384   0.000  0.00  0.00    -0.229 NA
ATOM     26  C   UNL     1       6.392 -10.052   0.000  0.00  0.00    +0.100 A 
ATOM     27  C   UNL     1       6.056 -10.805   0.000  0.00  0.00    +0.021 A 
ATOM     28  C   UNL     1       5.236 -10.892   0.000  0.00  0.00    +0.004 A 
ATOM     29  C   UNL     1       4.751 -10.224   0.000  0.00  0.00    +0.034 A 
ENDBRANCH  15  16
ENDBRANCH  14  15
TORSDOF 5
