REMARK  Name = 
REMARK  9 active torsions:
REMARK  status: ('A' for Active; 'I' for Inactive)
REMARK    1  A    between atoms: O_2  and  C_3
REMARK    2  A    between atoms: C_3  and  C_4
REMARK    3  A    between atoms: C_11  and  C_12
REMARK    4  A    between atoms: N_14  and  C_15
REMARK    5  A    between atoms: C_15  and  C_16
REMARK    6  A    between atoms: C_15  and  C_23
REMARK    7  A    between atoms: C_16  and  C_17
REMARK    8  A    between atoms: C_26  and  C_28
REMARK    9  A    between atoms: C_31  and  N_34
REMARK                            x       y       z     vdW  Elec       q    Type
REMARK                         _______ _______ _______ _____ _____    ______ ____
ROOT
ATOM      4  C   UNL     1      -2.858  -4.125   0.000  0.00  0.00    +0.256 C 
ATOM      5  O   UNL     1      -3.572  -4.537   0.000  0.00  0.00    -0.272 OA
ATOM      6  N   UNL     1      -2.858  -3.300   0.000  0.00  0.00    -0.268 N 
ATOM      7  C   UNL     1      -3.572  -2.888   0.000  0.00  0.00    +0.115 C 
ATOM      8  C   UNL     1      -3.572  -2.062   0.000  0.00  0.00    +0.115 C 
ATOM      9  N   UNL     1      -2.858  -1.650   0.000  0.00  0.00    -0.272 N 
ATOM     10  C   UNL     1      -2.143  -2.062   0.000  0.00  0.00    +0.123 C 
ATOM     11  C   UNL     1      -2.143  -2.888   0.000  0.00  0.00    +0.174 C 
ATOM     26  C   UNL     1      -2.858  -0.825   0.000  0.00  0.00    +0.249 C 
ATOM     27  O   UNL     1      -2.143  -0.412   0.000  0.00  0.00    -0.270 OA
ENDROOT
BRANCH  26  28
ATOM     28  C   UNL     1      -3.572  -0.412   0.000  0.00  0.00    +0.054 A 
ATOM     29  C   UNL     1      -4.287  -0.825   0.000  0.00  0.00    +0.006 A 
ATOM     30  C   UNL     1      -5.001  -0.412   0.000  0.00  0.00    +0.015 A 
ATOM     31  C   UNL     1      -5.001   0.412   0.000  0.00  0.00    +0.048 A 
ATOM     32  C   UNL     1      -4.287   0.825   0.000  0.00  0.00    +0.015 A 
ATOM     33  C   UNL     1      -3.572   0.412   0.000  0.00  0.00    +0.006 A 
BRANCH  31  34
ATOM     34  N   UNL     1      -5.716   0.825   0.000  0.00  0.00    -0.304 N 
ATOM     35  C   UNL     1      -6.430   0.412   0.000  0.00  0.00    +0.112 C 
ATOM     36  C   UNL     1      -5.716   1.650   0.000  0.00  0.00    +0.112 C 
ENDBRANCH  31  34
ENDBRANCH  26  28
BRANCH  11  12
ATOM     12  C   UNL     1      -1.429  -3.300   0.000  0.00  0.00    +0.262 C 
ATOM     13  O   UNL     1      -0.715  -2.888   0.000  0.00  0.00    -0.271 OA
ATOM     14  N   UNL     1      -1.429  -4.125   0.000  0.00  0.00    -0.196 NA
BRANCH  14  15
ATOM     15  C   UNL     1      -0.715  -4.537   0.000  0.00  0.00    +0.174 C 
BRANCH  15  23
ATOM     23  C   UNL     1       0.000  -4.125   0.000  0.00  0.00    +0.281 C 
ATOM     24  N   UNL     1       0.000  -3.300   0.000  0.00  0.00    -0.086 NA
ATOM     25  O   UNL     1       0.715  -4.537   0.000  0.00  0.00    -0.270 OA
ENDBRANCH  15  23
BRANCH  15  16
ATOM     16  C   UNL     1      -0.715  -5.362   0.000  0.00  0.00    +0.031 C 
BRANCH  16  17
ATOM     17  C   UNL     1       0.000  -5.775   0.000  0.00  0.00    +0.002 C 
ATOM     18  C   UNL     1       0.715  -5.362   0.000  0.00  0.00    +0.000 C 
ATOM     19  C   UNL     1       1.429  -5.775   0.000  0.00  0.00    +0.000 C 
ATOM     20  C   UNL     1       1.429  -6.600   0.000  0.00  0.00    +0.000 C 
ATOM     21  C   UNL     1       0.715  -7.013   0.000  0.00  0.00    +0.000 C 
ATOM     22  C   UNL     1       0.000  -6.600   0.000  0.00  0.00    +0.000 C 
ENDBRANCH  16  17
ENDBRANCH  15  16
ENDBRANCH  14  15
ENDBRANCH  11  12
BRANCH   4   3
ATOM      3  C   UNL     1      -2.143  -4.537   0.000  0.00  0.00    +0.227 C 
BRANCH   3   2
ATOM      1  C   UNL     1      -1.429  -5.775   0.000  0.00  0.00    +0.175 C 
ATOM      2  O   UNL     1      -2.143  -5.362   0.000  0.00  0.00    -0.342 OA
ENDBRANCH   3   2
ENDBRANCH   4   3
TORSDOF 9
