REMARK  Name = 
REMARK  7 active torsions:
REMARK  status: ('A' for Active; 'I' for Inactive)
REMARK    1  A    between atoms: C_2  and  C_4
REMARK    2  A    between atoms: C_4  and  C_5
REMARK    3  A    between atoms: C_5  and  C_6
REMARK    4  A    between atoms: C_6  and  C_7
REMARK    5  A    between atoms: N_16  and  C_20
REMARK    6  A    between atoms: C_23  and  O_24
REMARK    7  A    between atoms: O_24  and  C_25
REMARK                            x       y       z     vdW  Elec       q    Type
REMARK                         _______ _______ _______ _____ _____    ______ ____
ROOT
ATOM      7  C   UNL     1       0.884  -2.150   0.000  0.00  0.00    +0.226 C 
ATOM      8  O   UNL     1       1.436  -2.763   0.000  0.00  0.00    -0.275 OA
ATOM      9  N   UNL     1       1.139  -1.365   0.000  0.00  0.00    -0.272 N 
ATOM     10  C   UNL     1       0.654  -0.698   0.000  0.00  0.00    +0.096 C 
ATOM     11  C   UNL     1       1.139  -0.030   0.000  0.00  0.00    +0.045 C 
ATOM     12  C   UNL     1       1.923  -0.285   0.000  0.00  0.00    +0.126 C 
ATOM     13  N   UNL     1       2.638   0.127   0.000  0.00  0.00    -0.187 NA
ATOM     14  C   UNL     1       3.352  -0.285   0.000  0.00  0.00    +0.333 C 
ATOM     15  O   UNL     1       4.067   0.127   0.000  0.00  0.00    -0.250 OA
ATOM     16  N   UNL     1       3.352  -1.110   0.000  0.00  0.00    -0.190 N 
ATOM     17  C   UNL     1       2.638  -1.523   0.000  0.00  0.00    +0.256 C 
ATOM     18  O   UNL     1       2.638  -2.348   0.000  0.00  0.00    -0.272 OA
ATOM     19  C   UNL     1       1.923  -1.110   0.000  0.00  0.00    +0.173 C 
ENDROOT
BRANCH  16  20
ATOM     20  C   UNL     1       4.067  -1.523   0.000  0.00  0.00    +0.062 A 
ATOM     21  C   UNL     1       4.781  -1.110   0.000  0.00  0.00    +0.018 A 
ATOM     22  C   UNL     1       5.496  -1.523   0.000  0.00  0.00    +0.039 A 
ATOM     23  C   UNL     1       5.496  -2.348   0.000  0.00  0.00    +0.145 A 
ATOM     31  C   UNL     1       4.781  -2.760   0.000  0.00  0.00    +0.039 A 
ATOM     32  C   UNL     1       4.067  -2.348   0.000  0.00  0.00    +0.018 A 
BRANCH  23  24
ATOM     24  O   UNL     1       6.210  -2.760   0.000  0.00  0.00    -0.453 OA
BRANCH  24  25
ATOM     25  C   UNL     1       6.925  -2.348   0.000  0.00  0.00    +0.145 A 
ATOM     26  C   UNL     1       6.925  -1.523   0.000  0.00  0.00    +0.037 A 
ATOM     27  C   UNL     1       7.639  -1.110   0.000  0.00  0.00    +0.003 A 
ATOM     28  C   UNL     1       8.354  -1.523   0.000  0.00  0.00    +0.000 A 
ATOM     29  C   UNL     1       8.354  -2.348   0.000  0.00  0.00    +0.003 A 
ATOM     30  C   UNL     1       7.639  -2.760   0.000  0.00  0.00    +0.037 A 
ENDBRANCH  24  25
ENDBRANCH  23  24
ENDBRANCH  16  20
BRANCH   7   6
ATOM      6  C   UNL     1       0.077  -2.321   0.000  0.00  0.00    +0.086 C 
BRANCH   6   5
ATOM      5  C   UNL     1      -0.178  -3.106   0.000  0.00  0.00    +0.019 C 
ATOM     33  C   UNL     1      -0.264  -3.927   0.000  0.00  0.00    +0.001 C 
ATOM     34  C   UNL     1      -1.071  -4.098   0.000  0.00  0.00    +0.000 C 
ATOM     35  C   UNL     1      -1.484  -3.384   0.000  0.00  0.00    +0.000 C 
ATOM     36  C   UNL     1      -0.932  -2.771   0.000  0.00  0.00    +0.001 C 
BRANCH   5   4
ATOM      4  C   UNL     1       0.629  -3.278   0.000  0.00  0.00    +0.115 C 
BRANCH   4   2
ATOM      1  O   UNL     1       1.691  -4.234   0.000  0.00  0.00    -0.246 OA
ATOM      2  C   UNL     1       0.884  -4.062   0.000  0.00  0.00    +0.365 C 
ATOM      3  O   UNL     1       0.332  -4.675   0.000  0.00  0.00    -0.246 OA
ENDBRANCH   4   2
ENDBRANCH   5   4
ENDBRANCH   6   5
ENDBRANCH   7   6
TORSDOF 7
