MODEL 1
REMARK VINA RESULT:     -10.0      0.000      0.000
REMARK  Name = 
REMARK  4 active torsions:
REMARK  status: ('A' for Active; 'I' for Inactive)
REMARK    1  A    between atoms: C_3  and  C_4
REMARK    2  A    between atoms: C_4  and  N_5
REMARK    3  A    between atoms: C_16  and  N_17
REMARK    4  A    between atoms: N_17  and  C_18
REMARK                            x       y       z     vdW  Elec       q    Type
REMARK                         _______ _______ _______ _____ _____    ______ ____
ROOT
ATOM      1  O   UNL     1      -4.879   1.009  25.311  0.00  0.00    -0.219 OA
ATOM      2  C   UNL     1      -4.255   0.845  24.797  0.00  0.00    +0.199 C 
ATOM      3  C   UNL     1      -3.700   1.389  24.518  0.00  0.00    +0.169 C 
ATOM     14  O   UNL     1      -3.179   0.988  24.020  0.00  0.00    -0.350 OA
ATOM     15  C   UNL     1      -3.411   0.197  23.991  0.00  0.00    +0.162 C 
ATOM     16  C   UNL     1      -4.076   0.109  24.471  0.00  0.00    +0.135 C 
ENDROOT
BRANCH   3   4
ATOM      4  C   UNL     1      -3.672   2.191  24.704  0.00  0.00    +0.149 C 
BRANCH   4   5
ATOM      5  N   UNL     1      -2.945   2.576  24.765  0.00  0.00    -0.186 NA
ATOM      6  C   UNL     1      -2.918   3.385  24.922  0.00  0.00    +0.323 C 
ATOM      7  O   UNL     1      -3.618   3.810  25.018  0.00  0.00    -0.251 OA
ATOM      8  N   UNL     1      -2.190   3.769  24.984  0.00  0.00    -0.258 N 
ATOM      9  C   UNL     1      -2.163   4.579  25.141  0.00  0.00    +0.127 C 
ATOM     10  C   UNL     1      -1.436   4.963  25.202  0.00  0.00    +0.164 C 
ATOM     11  O   UNL     1      -0.735   4.538  25.106  0.00  0.00    -0.350 OA
ATOM     12  C   UNL     1      -0.762   3.729  24.949  0.00  0.00    +0.164 C 
ATOM     13  C   UNL     1      -1.490   3.345  24.888  0.00  0.00    +0.127 C 
ENDBRANCH   4   5
ENDBRANCH   3   4
BRANCH  16  17
ATOM     17  N   UNL     1      -4.489  -0.594  24.603  0.00  0.00    -0.216 NA
BRANCH  17  18
ATOM     18  C   UNL     1      -4.094  -1.317  24.571  0.00  0.00    +0.073 C 
ATOM     19  C   UNL     1      -4.104  -1.847  23.938  0.00  0.00    +0.017 C 
ATOM     20  C   UNL     1      -3.636  -2.495  24.141  0.00  0.00    +0.001 C 
ATOM     21  C   UNL     1      -3.336  -2.366  24.899  0.00  0.00    +0.001 C 
ATOM     22  C   UNL     1      -3.619  -1.637  25.164  0.00  0.00    +0.017 C 
ENDBRANCH  17  18
ENDBRANCH  16  17
TORSDOF 4
ENDMDL
MODEL 2
REMARK VINA RESULT:      -9.2      1.718      5.443
REMARK  Name = 
REMARK  4 active torsions:
REMARK  status: ('A' for Active; 'I' for Inactive)
REMARK    1  A    between atoms: C_3  and  C_4
REMARK    2  A    between atoms: C_4  and  N_5
REMARK    3  A    between atoms: C_16  and  N_17
REMARK    4  A    between atoms: N_17  and  C_18
REMARK                            x       y       z     vdW  Elec       q    Type
REMARK                         _______ _______ _______ _____ _____    ______ ____
ROOT
ATOM      1  O   UNL     1      -0.536   1.305  25.982  0.00  0.00    -0.219 OA
ATOM      2  C   UNL     1      -1.152   1.568  25.499  0.00  0.00    +0.199 C 
ATOM      3  C   UNL     1      -1.635   1.093  25.027  0.00  0.00    +0.169 C 
ATOM     14  O   UNL     1      -2.173   1.583  24.641  0.00  0.00    -0.350 OA
ATOM     15  C   UNL     1      -2.024   2.360  24.873  0.00  0.00    +0.162 C 
ATOM     16  C   UNL     1      -1.393   2.351  25.404  0.00  0.00    +0.135 C 
ENDROOT
BRANCH   3   4
ATOM      4  C   UNL     1      -1.586   0.273  24.955  0.00  0.00    +0.149 C 
BRANCH   4   5
ATOM      5  N   UNL     1      -2.252  -0.161  24.736  0.00  0.00    -0.186 NA
ATOM      6  C   UNL     1      -2.221  -0.986  24.722  0.00  0.00    +0.323 C 
ATOM      7  O   UNL     1      -1.523  -1.375  24.926  0.00  0.00    -0.251 OA
ATOM      8  N   UNL     1      -2.887  -1.421  24.503  0.00  0.00    -0.258 N 
ATOM      9  C   UNL     1      -2.855  -2.245  24.488  0.00  0.00    +0.127 C 
ATOM     10  C   UNL     1      -3.521  -2.680  24.269  0.00  0.00    +0.164 C 
ATOM     11  O   UNL     1      -4.219  -2.290  24.065  0.00  0.00    -0.350 OA
ATOM     12  C   UNL     1      -4.251  -1.466  24.079  0.00  0.00    +0.164 C 
ATOM     13  C   UNL     1      -3.585  -1.031  24.298  0.00  0.00    +0.127 C 
ENDBRANCH   4   5
ENDBRANCH   3   4
BRANCH  16  17
ATOM     17  N   UNL     1      -1.061   3.009  25.774  0.00  0.00    -0.216 NA
BRANCH  17  18
ATOM     18  C   UNL     1      -1.217   3.766  25.486  0.00  0.00    +0.073 C 
ATOM     19  C   UNL     1      -0.737   4.198  24.971  0.00  0.00    +0.017 C 
ATOM     20  C   UNL     1      -1.103   4.923  24.829  0.00  0.00    +0.001 C 
ATOM     21  C   UNL     1      -1.809   4.941  25.256  0.00  0.00    +0.001 C 
ATOM     22  C   UNL     1      -1.879   4.226  25.663  0.00  0.00    +0.017 C 
ENDBRANCH  17  18
ENDBRANCH  16  17
TORSDOF 4
ENDMDL
MODEL 3
REMARK VINA RESULT:      -9.0      1.148      1.589
REMARK  Name = 
REMARK  4 active torsions:
REMARK  status: ('A' for Active; 'I' for Inactive)
REMARK    1  A    between atoms: C_3  and  C_4
REMARK    2  A    between atoms: C_4  and  N_5
REMARK    3  A    between atoms: C_16  and  N_17
REMARK    4  A    between atoms: N_17  and  C_18
REMARK                            x       y       z     vdW  Elec       q    Type
REMARK                         _______ _______ _______ _____ _____    ______ ____
ROOT
ATOM      1  O   UNL     1      -1.744  -0.078  25.718  0.00  0.00    -0.219 OA
ATOM      2  C   UNL     1      -2.276   0.164  25.136  0.00  0.00    +0.199 C 
ATOM      3  C   UNL     1      -2.201   0.833  24.657  0.00  0.00    +0.169 C 
ATOM     14  O   UNL     1      -2.854   0.861  24.155  0.00  0.00    -0.350 OA
ATOM     15  C   UNL     1      -3.333   0.211  24.323  0.00  0.00    +0.162 C 
ATOM     16  C   UNL     1      -2.976  -0.220  24.929  0.00  0.00    +0.135 C 
ENDROOT
BRANCH   3   4
ATOM      4  C   UNL     1      -1.581   1.376  24.678  0.00  0.00    +0.149 C 
BRANCH   4   5
ATOM      5  N   UNL     1      -1.732   2.167  24.859  0.00  0.00    -0.186 NA
ATOM      6  C   UNL     1      -1.145   2.736  24.743  0.00  0.00    +0.323 C 
ATOM      7  O   UNL     1      -0.408   2.513  24.446  0.00  0.00    -0.251 OA
ATOM      8  N   UNL     1      -1.296   3.526  24.923  0.00  0.00    -0.258 N 
ATOM      9  C   UNL     1      -0.710   4.095  24.807  0.00  0.00    +0.127 C 
ATOM     10  C   UNL     1      -0.860   4.886  24.988  0.00  0.00    +0.164 C 
ATOM     11  O   UNL     1      -1.598   5.107  25.284  0.00  0.00    -0.350 OA
ATOM     12  C   UNL     1      -2.184   4.539  25.400  0.00  0.00    +0.164 C 
ATOM     13  C   UNL     1      -2.033   3.749  25.220  0.00  0.00    +0.127 C 
ENDBRANCH   4   5
ENDBRANCH   3   4
BRANCH  16  17
ATOM     17  N   UNL     1      -3.268  -0.913  25.268  0.00  0.00    -0.216 NA
BRANCH  17  18
ATOM     18  C   UNL     1      -3.525  -1.531  24.786  0.00  0.00    +0.073 C 
ATOM     19  C   UNL     1      -4.182  -1.515  24.286  0.00  0.00    +0.017 C 
ATOM     20  C   UNL     1      -4.234  -2.247  23.910  0.00  0.00    +0.001 C 
ATOM     21  C   UNL     1      -3.610  -2.717  24.177  0.00  0.00    +0.001 C 
ATOM     22  C   UNL     1      -3.172  -2.274  24.719  0.00  0.00    +0.017 C 
ENDBRANCH  17  18
ENDBRANCH  16  17
TORSDOF 4
ENDMDL
MODEL 4
REMARK VINA RESULT:      -8.8      1.287      5.080
REMARK  Name = 
REMARK  4 active torsions:
REMARK  status: ('A' for Active; 'I' for Inactive)
REMARK    1  A    between atoms: C_3  and  C_4
REMARK    2  A    between atoms: C_4  and  N_5
REMARK    3  A    between atoms: C_16  and  N_17
REMARK    4  A    between atoms: N_17  and  C_18
REMARK                            x       y       z     vdW  Elec       q    Type
REMARK                         _______ _______ _______ _____ _____    ______ ____
ROOT
ATOM      1  O   UNL     1      -4.675   2.207  24.503  0.00  0.00    -0.219 OA
ATOM      2  C   UNL     1      -3.865   2.068  24.431  0.00  0.00    +0.199 C 
ATOM      3  C   UNL     1      -3.507   1.334  24.312  0.00  0.00    +0.169 C 
ATOM     14  O   UNL     1      -2.692   1.452  24.273  0.00  0.00    -0.350 OA
ATOM     15  C   UNL     1      -2.546   2.258  24.367  0.00  0.00    +0.162 C 
ATOM     16  C   UNL     1      -3.271   2.639  24.465  0.00  0.00    +0.135 C 
ENDROOT
BRANCH   3   4
ATOM      4  C   UNL     1      -3.896   0.610  24.245  0.00  0.00    +0.149 C 
BRANCH   4   5
ATOM      5  N   UNL     1      -3.477  -0.094  24.343  0.00  0.00    -0.186 NA
ATOM      6  C   UNL     1      -3.867  -0.818  24.277  0.00  0.00    +0.323 C 
ATOM      7  O   UNL     1      -4.675  -0.838  24.114  0.00  0.00    -0.251 OA
ATOM      8  N   UNL     1      -3.448  -1.522  24.375  0.00  0.00    -0.258 N 
ATOM      9  C   UNL     1      -3.838  -2.247  24.310  0.00  0.00    +0.127 C 
ATOM     10  C   UNL     1      -3.419  -2.951  24.408  0.00  0.00    +0.164 C 
ATOM     11  O   UNL     1      -2.611  -2.930  24.572  0.00  0.00    -0.350 OA
ATOM     12  C   UNL     1      -2.221  -2.206  24.637  0.00  0.00    +0.164 C 
ATOM     13  C   UNL     1      -2.640  -1.502  24.539  0.00  0.00    +0.127 C 
ENDBRANCH   4   5
ENDBRANCH   3   4
BRANCH  16  17
ATOM     17  N   UNL     1      -3.382   3.449  24.577  0.00  0.00    -0.216 NA
BRANCH  17  18
ATOM     18  C   UNL     1      -2.829   3.885  25.006  0.00  0.00    +0.073 C 
ATOM     19  C   UNL     1      -2.825   3.991  25.825  0.00  0.00    +0.017 C 
ATOM     20  C   UNL     1      -2.178   4.463  26.018  0.00  0.00    +0.001 C 
ATOM     21  C   UNL     1      -1.780   4.650  25.319  0.00  0.00    +0.001 C 
ATOM     22  C   UNL     1      -2.184   4.293  24.694  0.00  0.00    +0.017 C 
ENDBRANCH  17  18
ENDBRANCH  16  17
TORSDOF 4
ENDMDL
MODEL 5
REMARK VINA RESULT:      -8.1      1.741      2.386
REMARK  Name = 
REMARK  4 active torsions:
REMARK  status: ('A' for Active; 'I' for Inactive)
REMARK    1  A    between atoms: C_3  and  C_4
REMARK    2  A    between atoms: C_4  and  N_5
REMARK    3  A    between atoms: C_16  and  N_17
REMARK    4  A    between atoms: N_17  and  C_18
REMARK                            x       y       z     vdW  Elec       q    Type
REMARK                         _______ _______ _______ _____ _____    ______ ____
ROOT
ATOM      1  O   UNL     1      -1.911   0.430  25.399  0.00  0.00    -0.219 OA
ATOM      2  C   UNL     1      -2.488   0.256  24.835  0.00  0.00    +0.199 C 
ATOM      3  C   UNL     1      -2.997   0.799  24.479  0.00  0.00    +0.169 C 
ATOM     14  O   UNL     1      -3.480   0.387  23.952  0.00  0.00    -0.350 OA
ATOM     15  C   UNL     1      -3.270  -0.410  23.984  0.00  0.00    +0.162 C 
ATOM     16  C   UNL     1      -2.657  -0.491  24.529  0.00  0.00    +0.135 C 
ENDROOT
BRANCH   3   4
ATOM      4  C   UNL     1      -3.018   1.610  24.623  0.00  0.00    +0.149 C 
BRANCH   4   5
ATOM      5  N   UNL     1      -3.714   1.963  24.891  0.00  0.00    -0.186 NA
ATOM      6  C   UNL     1      -3.763   2.785  24.952  0.00  0.00    +0.323 C 
ATOM      7  O   UNL     1      -3.116   3.253  24.746  0.00  0.00    -0.251 OA
ATOM      8  N   UNL     1      -4.459   3.138  25.220  0.00  0.00    -0.258 N 
ATOM      9  C   UNL     1      -4.508   3.959  25.281  0.00  0.00    +0.127 C 
ATOM     10  C   UNL     1      -5.204   4.312  25.549  0.00  0.00    +0.164 C 
ATOM     11  O   UNL     1      -5.851   3.843  25.755  0.00  0.00    -0.350 OA
ATOM     12  C   UNL     1      -5.803   3.023  25.693  0.00  0.00    +0.164 C 
ATOM     13  C   UNL     1      -5.107   2.670  25.426  0.00  0.00    +0.127 C 
ENDBRANCH   4   5
ENDBRANCH   3   4
BRANCH  16  17
ATOM     17  N   UNL     1      -2.279  -1.196  24.733  0.00  0.00    -0.216 NA
BRANCH  17  18
ATOM     18  C   UNL     1      -2.707  -1.901  24.758  0.00  0.00    +0.073 C 
ATOM     19  C   UNL     1      -2.689  -2.500  24.190  0.00  0.00    +0.017 C 
ATOM     20  C   UNL     1      -3.198  -3.100  24.435  0.00  0.00    +0.001 C 
ATOM     21  C   UNL     1      -3.532  -2.873  25.154  0.00  0.00    +0.001 C 
ATOM     22  C   UNL     1      -3.228  -2.131  25.354  0.00  0.00    +0.017 C 
ENDBRANCH  17  18
ENDBRANCH  16  17
TORSDOF 4
ENDMDL
MODEL 6
REMARK VINA RESULT:      -8.0      2.360      4.343
REMARK  Name = 
REMARK  4 active torsions:
REMARK  status: ('A' for Active; 'I' for Inactive)
REMARK    1  A    between atoms: C_3  and  C_4
REMARK    2  A    between atoms: C_4  and  N_5
REMARK    3  A    between atoms: C_16  and  N_17
REMARK    4  A    between atoms: N_17  and  C_18
REMARK                            x       y       z     vdW  Elec       q    Type
REMARK                         _______ _______ _______ _____ _____    ______ ____
ROOT
ATOM      1  O   UNL     1      -3.177   2.061  23.175  0.00  0.00    -0.219 OA
ATOM      2  C   UNL     1      -2.951   2.331  23.921  0.00  0.00    +0.199 C 
ATOM      3  C   UNL     1      -2.249   2.143  24.312  0.00  0.00    +0.169 C 
ATOM     14  O   UNL     1      -2.250   2.531  25.039  0.00  0.00    -0.350 OA
ATOM     15  C   UNL     1      -2.953   2.959  25.098  0.00  0.00    +0.162 C 
ATOM     16  C   UNL     1      -3.386   2.836  24.407  0.00  0.00    +0.135 C 
ENDROOT
BRANCH   3   4
ATOM      4  C   UNL     1      -1.651   1.652  24.026  0.00  0.00    +0.149 C 
BRANCH   4   5
ATOM      5  N   UNL     1      -1.491   0.935  24.401  0.00  0.00    -0.186 NA
ATOM      6  C   UNL     1      -0.874   0.457  24.132  0.00  0.00    +0.323 C 
ATOM      7  O   UNL     1      -0.419   0.697  23.487  0.00  0.00    -0.251 OA
ATOM      8  N   UNL     1      -0.714  -0.260  24.507  0.00  0.00    -0.258 N 
ATOM      9  C   UNL     1      -0.098  -0.738  24.237  0.00  0.00    +0.127 C 
ATOM     10  C   UNL     1       0.063  -1.455  24.613  0.00  0.00    +0.164 C 
ATOM     11  O   UNL     1      -0.394  -1.694  25.257  0.00  0.00    -0.350 OA
ATOM     12  C   UNL     1      -1.010  -1.216  25.527  0.00  0.00    +0.164 C 
ATOM     13  C   UNL     1      -1.170  -0.499  25.151  0.00  0.00    +0.127 C 
ENDBRANCH   4   5
ENDBRANCH   3   4
BRANCH  16  17
ATOM     17  N   UNL     1      -4.124   3.160  24.232  0.00  0.00    -0.216 NA
BRANCH  17  18
ATOM     18  C   UNL     1      -4.746   3.082  24.769  0.00  0.00    +0.073 C 
ATOM     19  C   UNL     1      -4.973   3.641  25.333  0.00  0.00    +0.017 C 
ATOM     20  C   UNL     1      -5.616   3.337  25.749  0.00  0.00    +0.001 C 
ATOM     21  C   UNL     1      -5.788   2.590  25.444  0.00  0.00    +0.001 C 
ATOM     22  C   UNL     1      -5.249   2.432  24.838  0.00  0.00    +0.017 C 
ENDBRANCH  17  18
ENDBRANCH  16  17
TORSDOF 4
ENDMDL
MODEL 7
REMARK VINA RESULT:      -7.7     15.809     18.587
REMARK  Name = 
REMARK  4 active torsions:
REMARK  status: ('A' for Active; 'I' for Inactive)
REMARK    1  A    between atoms: C_3  and  C_4
REMARK    2  A    between atoms: C_4  and  N_5
REMARK    3  A    between atoms: C_16  and  N_17
REMARK    4  A    between atoms: N_17  and  C_18
REMARK                            x       y       z     vdW  Elec       q    Type
REMARK                         _______ _______ _______ _____ _____    ______ ____
ROOT
ATOM      1  O   UNL     1      13.858   7.190  18.768  0.00  0.00    -0.219 OA
ATOM      2  C   UNL     1      14.158   7.020  19.517  0.00  0.00    +0.199 C 
ATOM      3  C   UNL     1      13.712   6.852  20.191  0.00  0.00    +0.169 C 
ATOM     14  O   UNL     1      14.235   6.717  20.814  0.00  0.00    -0.350 OA
ATOM     15  C   UNL     1      15.003   6.801  20.526  0.00  0.00    +0.162 C 
ATOM     16  C   UNL     1      14.956   6.988  19.724  0.00  0.00    +0.135 C 
ENDROOT
BRANCH   3   4
ATOM      4  C   UNL     1      12.890   6.825  20.234  0.00  0.00    +0.149 C 
BRANCH   4   5
ATOM      5  N   UNL     1      12.492   7.264  20.809  0.00  0.00    -0.186 NA
ATOM      6  C   UNL     1      11.719   7.065  21.018  0.00  0.00    +0.323 C 
ATOM      7  O   UNL     1      11.344   6.427  20.652  0.00  0.00    -0.251 OA
ATOM      8  N   UNL     1      11.321   7.503  21.592  0.00  0.00    -0.258 N 
ATOM      9  C   UNL     1      10.548   7.304  21.801  0.00  0.00    +0.127 C 
ATOM     10  C   UNL     1      10.150   7.742  22.376  0.00  0.00    +0.164 C 
ATOM     11  O   UNL     1      10.526   8.379  22.742  0.00  0.00    -0.350 OA
ATOM     12  C   UNL     1      11.298   8.578  22.533  0.00  0.00    +0.164 C 
ATOM     13  C   UNL     1      11.696   8.140  21.958  0.00  0.00    +0.127 C 
ENDBRANCH   4   5
ENDBRANCH   3   4
BRANCH  16  17
ATOM     17  N   UNL     1      15.594   7.120  19.218  0.00  0.00    -0.216 NA
BRANCH  17  18
ATOM     18  C   UNL     1      16.266   6.644  19.269  0.00  0.00    +0.073 C 
ATOM     19  C   UNL     1      16.832   6.667  19.868  0.00  0.00    +0.017 C 
ATOM     20  C   UNL     1      17.405   6.098  19.700  0.00  0.00    +0.001 C 
ATOM     21  C   UNL     1      17.194   5.724  18.996  0.00  0.00    +0.001 C 
ATOM     22  C   UNL     1      16.489   6.061  18.729  0.00  0.00    +0.017 C 
ENDBRANCH  17  18
ENDBRANCH  16  17
TORSDOF 4
ENDMDL
MODEL 8
REMARK VINA RESULT:      -7.6     15.903     18.594
REMARK  Name = 
REMARK  4 active torsions:
REMARK  status: ('A' for Active; 'I' for Inactive)
REMARK    1  A    between atoms: C_3  and  C_4
REMARK    2  A    between atoms: C_4  and  N_5
REMARK    3  A    between atoms: C_16  and  N_17
REMARK    4  A    between atoms: N_17  and  C_18
REMARK                            x       y       z     vdW  Elec       q    Type
REMARK                         _______ _______ _______ _____ _____    ______ ____
ROOT
ATOM      1  O   UNL     1      12.205   6.487  19.329  0.00  0.00    -0.219 OA
ATOM      2  C   UNL     1      12.486   7.136  19.755  0.00  0.00    +0.199 C 
ATOM      3  C   UNL     1      13.271   7.390  19.789  0.00  0.00    +0.169 C 
ATOM     14  O   UNL     1      13.301   8.055  20.276  0.00  0.00    -0.350 OA
ATOM     15  C   UNL     1      12.537   8.212  20.542  0.00  0.00    +0.162 C 
ATOM     16  C   UNL     1      12.033   7.644  20.220  0.00  0.00    +0.135 C 
ENDROOT
BRANCH   3   4
ATOM      4  C   UNL     1      13.910   7.040  19.404  0.00  0.00    +0.149 C 
BRANCH   4   5
ATOM      5  N   UNL     1      14.613   6.902  19.815  0.00  0.00    -0.186 NA
ATOM      6  C   UNL     1      15.298   6.699  19.402  0.00  0.00    +0.323 C 
ATOM      7  O   UNL     1      15.281   6.634  18.580  0.00  0.00    -0.251 OA
ATOM      8  N   UNL     1      16.001   6.562  19.813  0.00  0.00    -0.258 N 
ATOM      9  C   UNL     1      16.686   6.358  19.400  0.00  0.00    +0.127 C 
ATOM     10  C   UNL     1      17.389   6.221  19.811  0.00  0.00    +0.164 C 
ATOM     11  O   UNL     1      17.405   6.286  20.633  0.00  0.00    -0.350 OA
ATOM     12  C   UNL     1      16.721   6.489  21.045  0.00  0.00    +0.164 C 
ATOM     13  C   UNL     1      16.018   6.627  20.635  0.00  0.00    +0.127 C 
ENDBRANCH   4   5
ENDBRANCH   3   4
BRANCH  16  17
ATOM     17  N   UNL     1      11.218   7.593  20.342  0.00  0.00    -0.216 NA
BRANCH  17  18
ATOM     18  C   UNL     1      10.896   7.814  21.069  0.00  0.00    +0.073 C 
ATOM     19  C   UNL     1      10.741   7.310  21.704  0.00  0.00    +0.017 C 
ATOM     20  C   UNL     1      10.421   7.761  22.315  0.00  0.00    +0.001 C 
ATOM     21  C   UNL     1      10.378   8.544  22.059  0.00  0.00    +0.001 C 
ATOM     22  C   UNL     1      10.671   8.577  21.288  0.00  0.00    +0.017 C 
ENDBRANCH  17  18
ENDBRANCH  16  17
TORSDOF 4
ENDMDL
MODEL 9
REMARK VINA RESULT:      -7.3     17.898     19.398
REMARK  Name = 
REMARK  4 active torsions:
REMARK  status: ('A' for Active; 'I' for Inactive)
REMARK    1  A    between atoms: C_3  and  C_4
REMARK    2  A    between atoms: C_4  and  N_5
REMARK    3  A    between atoms: C_16  and  N_17
REMARK    4  A    between atoms: N_17  and  C_18
REMARK                            x       y       z     vdW  Elec       q    Type
REMARK                         _______ _______ _______ _____ _____    ______ ____
ROOT
ATOM      1  O   UNL     1      13.469   6.465  20.046  0.00  0.00    -0.219 OA
ATOM      2  C   UNL     1      13.953   7.037  19.701  0.00  0.00    +0.199 C 
ATOM      3  C   UNL     1      13.705   7.642  19.197  0.00  0.00    +0.169 C 
ATOM     14  O   UNL     1      14.369   8.083  18.985  0.00  0.00    -0.350 OA
ATOM     15  C   UNL     1      15.026   7.751  19.357  0.00  0.00    +0.162 C 
ATOM     16  C   UNL     1      14.769   7.105  19.800  0.00  0.00    +0.135 C 
ENDROOT
BRANCH   3   4
ATOM      4  C   UNL     1      12.931   7.781  18.950  0.00  0.00    +0.149 C 
BRANCH   4   5
ATOM      5  N   UNL     1      12.787   8.084  18.196  0.00  0.00    -0.186 NA
ATOM      6  C   UNL     1      12.011   8.185  17.934  0.00  0.00    +0.323 C 
ATOM      7  O   UNL     1      11.380   7.984  18.426  0.00  0.00    -0.251 OA
ATOM      8  N   UNL     1      11.867   8.488  17.180  0.00  0.00    -0.258 N 
ATOM      9  C   UNL     1      11.091   8.589  16.918  0.00  0.00    +0.127 C 
ATOM     10  C   UNL     1      10.947   8.892  16.164  0.00  0.00    +0.164 C 
ATOM     11  O   UNL     1      11.579   9.094  15.673  0.00  0.00    -0.350 OA
ATOM     12  C   UNL     1      12.354   8.992  15.935  0.00  0.00    +0.164 C 
ATOM     13  C   UNL     1      12.498   8.690  16.689  0.00  0.00    +0.127 C 
ENDBRANCH   4   5
ENDBRANCH   3   4
BRANCH  16  17
ATOM     17  N   UNL     1      15.245   6.612  20.260  0.00  0.00    -0.216 NA
BRANCH  17  18
ATOM     18  C   UNL     1      16.054   6.562  20.109  0.00  0.00    +0.073 C 
ATOM     19  C   UNL     1      16.410   6.104  19.522  0.00  0.00    +0.017 C 
ATOM     20  C   UNL     1      17.225   6.220  19.568  0.00  0.00    +0.001 C 
ATOM     21  C   UNL     1      17.374   6.750  20.183  0.00  0.00    +0.001 C 
ATOM     22  C   UNL     1      16.649   6.961  20.517  0.00  0.00    +0.017 C 
ENDBRANCH  17  18
ENDBRANCH  16  17
TORSDOF 4
ENDMDL
MODEL 10
REMARK VINA RESULT:      -7.2      2.480      3.692
REMARK  Name = 
REMARK  4 active torsions:
REMARK  status: ('A' for Active; 'I' for Inactive)
REMARK    1  A    between atoms: C_3  and  C_4
REMARK    2  A    between atoms: C_4  and  N_5
REMARK    3  A    between atoms: C_16  and  N_17
REMARK    4  A    between atoms: N_17  and  C_18
REMARK                            x       y       z     vdW  Elec       q    Type
REMARK                         _______ _______ _______ _____ _____    ______ ____
ROOT
ATOM      1  O   UNL     1      -2.012  -0.282  25.368  0.00  0.00    -0.219 OA
ATOM      2  C   UNL     1      -1.918   0.279  24.771  0.00  0.00    +0.199 C 
ATOM      3  C   UNL     1      -2.511   0.761  24.461  0.00  0.00    +0.169 C 
ATOM     14  O   UNL     1      -2.174   1.236  23.877  0.00  0.00    -0.350 OA
ATOM     15  C   UNL     1      -1.373   1.049  23.827  0.00  0.00    +0.162 C 
ATOM     16  C   UNL     1      -1.214   0.457  24.379  0.00  0.00    +0.135 C 
ENDROOT
BRANCH   3   4
ATOM      4  C   UNL     1      -3.302   0.766  24.693  0.00  0.00    +0.149 C 
BRANCH   4   5
ATOM      5  N   UNL     1      -3.673   1.480  24.877  0.00  0.00    -0.186 NA
ATOM      6  C   UNL     1      -4.476   1.490  25.067  0.00  0.00    +0.323 C 
ATOM      7  O   UNL     1      -4.908   0.787  25.073  0.00  0.00    -0.251 OA
ATOM      8  N   UNL     1      -4.847   2.204  25.252  0.00  0.00    -0.258 N 
ATOM      9  C   UNL     1      -5.650   2.214  25.442  0.00  0.00    +0.127 C 
ATOM     10  C   UNL     1      -6.021   2.928  25.626  0.00  0.00    +0.164 C 
ATOM     11  O   UNL     1      -5.589   3.631  25.620  0.00  0.00    -0.350 OA
ATOM     12  C   UNL     1      -4.787   3.620  25.431  0.00  0.00    +0.164 C 
ATOM     13  C   UNL     1      -4.416   2.907  25.246  0.00  0.00    +0.127 C 
ENDBRANCH   4   5
ENDBRANCH   3   4
BRANCH  16  17
ATOM     17  N   UNL     1      -0.480   0.105  24.516  0.00  0.00    -0.216 NA
BRANCH  17  18
ATOM     18  C   UNL     1       0.102   0.126  23.932  0.00  0.00    +0.073 C 
ATOM     19  C   UNL     1       0.635   0.743  23.801  0.00  0.00    +0.017 C 
ATOM     20  C   UNL     1       1.117   0.534  23.165  0.00  0.00    +0.001 C 
ATOM     21  C   UNL     1       0.882  -0.212  22.902  0.00  0.00    +0.001 C 
ATOM     22  C   UNL     1       0.254  -0.464  23.376  0.00  0.00    +0.017 C 
ENDBRANCH  17  18
ENDBRANCH  16  17
TORSDOF 4
ENDMDL
