MODEL 1
REMARK VINA RESULT:     -15.4      0.000      0.000
REMARK  Name = 
REMARK  4 active torsions:
REMARK  status: ('A' for Active; 'I' for Inactive)
REMARK    1  A    between atoms: C_5  and  C_8
REMARK    2  A    between atoms: C_16  and  C_18
REMARK    3  A    between atoms: C_18  and  O_19
REMARK    4  A    between atoms: O_19  and  C_20
REMARK                            x       y       z     vdW  Elec       q    Type
REMARK                         _______ _______ _______ _____ _____    ______ ____
ROOT
ATOM      8  C   UNL     1      -3.400   0.504  24.492  0.00  0.00    +0.012 A 
ATOM      9  C   UNL     1      -3.983   1.026  24.753  0.00  0.00    +0.041 A 
ATOM     10  C   UNL     1      -4.845   1.032  25.071  0.00  0.00    +0.058 C 
ATOM     11  C   UNL     1      -5.377   0.602  25.228  0.00  0.00    +0.011 C 
ATOM     12  C   UNL     1      -5.225   1.402  25.243  0.00  0.00    +0.043 C 
ATOM     13  C   UNL     1      -5.234   2.386  25.333  0.00  0.00    +0.095 C 
ATOM     14  N   UNL     1      -4.462   2.558  25.064  0.00  0.00    -0.276 N 
ATOM     15  C   UNL     1      -4.869   1.982  25.163  0.00  0.00    +0.099 C 
ATOM     16  C   UNL     1      -3.801   3.007  24.860  0.00  0.00    +0.270 C 
ATOM     17  O   UNL     1      -3.819   3.828  24.939  0.00  0.00    -0.271 OA
ATOM     26  C   UNL     1      -4.324   1.406  24.912  0.00  0.00    +0.110 C 
ATOM     27  N   UNL     1      -3.833   1.837  24.769  0.00  0.00    -0.299 N 
ATOM     28  C   UNL     1      -3.100   2.127  24.524  0.00  0.00    +0.261 A 
ATOM     29  O   UNL     1      -2.532   2.703  24.366  0.00  0.00    -0.267 OA
ATOM     30  C   UNL     1      -2.517   1.604  24.264  0.00  0.00    +0.061 A 
ATOM     31  C   UNL     1      -2.667   0.793  24.248  0.00  0.00    +0.006 A 
ENDROOT
BRANCH   8   5
ATOM      1 CL   UNL     1      -3.999  -2.740  24.428  0.00  0.00    -0.082 Cl
ATOM      2  C   UNL     1      -3.850  -1.930  24.444  0.00  0.00    +0.058 A 
ATOM      3  C   UNL     1      -4.044  -1.461  23.794  0.00  0.00    +0.011 A 
ATOM      4  C   UNL     1      -3.894  -0.650  23.810  0.00  0.00    +0.001 A 
ATOM      5  C   UNL     1      -3.550  -0.307  24.476  0.00  0.00    +0.001 A 
ATOM      6  C   UNL     1      -3.355  -0.776  25.127  0.00  0.00    +0.001 A 
ATOM      7  C   UNL     1      -3.505  -1.587  25.111  0.00  0.00    +0.011 A 
ENDBRANCH   8   5
BRANCH  16  18
ATOM     18  C   UNL     1      -3.120   2.635  24.577  0.00  0.00    +0.290 C 
BRANCH  18  19
ATOM     19  O   UNL     1      -2.546   3.074  24.179  0.00  0.00    -0.466 OA
BRANCH  19  20
ATOM     20  C   UNL     1      -2.029   3.557  24.602  0.00  0.00    +0.139 A 
ATOM     21  C   UNL     1      -2.188   4.364  24.676  0.00  0.00    +0.037 A 
ATOM     22  C   UNL     1      -1.671   4.849  25.099  0.00  0.00    +0.003 A 
ATOM     23  C   UNL     1      -0.996   4.527  25.447  0.00  0.00    +0.000 A 
ATOM     24  C   UNL     1      -0.837   3.720  25.372  0.00  0.00    +0.003 A 
ATOM     25  C   UNL     1      -1.354   3.236  24.950  0.00  0.00    +0.037 A 
ENDBRANCH  19  20
ENDBRANCH  18  19
ENDBRANCH  16  18
TORSDOF 4
ENDMDL
MODEL 2
REMARK VINA RESULT:     -15.3      1.925      4.245
REMARK  Name = 
REMARK  4 active torsions:
REMARK  status: ('A' for Active; 'I' for Inactive)
REMARK    1  A    between atoms: C_5  and  C_8
REMARK    2  A    between atoms: C_16  and  C_18
REMARK    3  A    between atoms: C_18  and  O_19
REMARK    4  A    between atoms: O_19  and  C_20
REMARK                            x       y       z     vdW  Elec       q    Type
REMARK                         _______ _______ _______ _____ _____    ______ ____
ROOT
ATOM      8  C   UNL     1      -2.856   2.323  24.821  0.00  0.00    +0.012 A 
ATOM      9  C   UNL     1      -3.668   2.220  24.924  0.00  0.00    +0.041 A 
ATOM     10  C   UNL     1      -4.423   2.690  25.158  0.00  0.00    +0.058 C 
ATOM     11  C   UNL     1      -4.635   3.331  25.350  0.00  0.00    +0.011 C 
ATOM     12  C   UNL     1      -4.969   2.599  25.222  0.00  0.00    +0.043 C 
ATOM     13  C   UNL     1      -5.550   1.806  25.118  0.00  0.00    +0.095 C 
ATOM     14  N   UNL     1      -4.978   1.242  24.890  0.00  0.00    -0.276 N 
ATOM     15  C   UNL     1      -4.997   1.933  25.063  0.00  0.00    +0.099 C 
ATOM     16  C   UNL     1      -4.663   0.514  24.661  0.00  0.00    +0.270 C 
ATOM     17  O   UNL     1      -5.157  -0.141  24.577  0.00  0.00    -0.271 OA
ATOM     26  C   UNL     1      -4.187   2.100  24.976  0.00  0.00    +0.110 C 
ATOM     27  N   UNL     1      -4.010   1.480  24.796  0.00  0.00    -0.299 N 
ATOM     28  C   UNL     1      -3.540   0.843  24.565  0.00  0.00    +0.261 A 
ATOM     29  O   UNL     1      -3.381   0.064  24.348  0.00  0.00    -0.267 OA
ATOM     30  C   UNL     1      -2.728   0.946  24.462  0.00  0.00    +0.061 A 
ATOM     31  C   UNL     1      -2.386   1.686  24.591  0.00  0.00    +0.006 A 
ENDROOT
BRANCH   8   5
ATOM      1 CL   UNL     1      -1.490   5.282  25.335  0.00  0.00    -0.082 Cl
ATOM      2  C   UNL     1      -1.831   4.543  25.206  0.00  0.00    +0.058 A 
ATOM      3  C   UNL     1      -1.878   3.998  25.823  0.00  0.00    +0.011 A 
ATOM      4  C   UNL     1      -2.220   3.258  25.695  0.00  0.00    +0.001 A 
ATOM      5  C   UNL     1      -2.515   3.063  24.950  0.00  0.00    +0.001 A 
ATOM      6  C   UNL     1      -2.468   3.608  24.333  0.00  0.00    +0.001 A 
ATOM      7  C   UNL     1      -2.126   4.348  24.461  0.00  0.00    +0.011 A 
ENDBRANCH   8   5
BRANCH  16  18
ATOM     18  C   UNL     1      -3.854   0.442  24.516  0.00  0.00    +0.290 C 
BRANCH  18  19
ATOM     19  O   UNL     1      -3.576  -0.159  24.024  0.00  0.00    -0.466 OA
BRANCH  19  20
ATOM     20  C   UNL     1      -3.589  -0.942  24.281  0.00  0.00    +0.139 A 
ATOM     21  C   UNL     1      -4.022  -1.506  23.862  0.00  0.00    +0.037 A 
ATOM     22  C   UNL     1      -4.036  -2.291  24.118  0.00  0.00    +0.003 A 
ATOM     23  C   UNL     1      -3.617  -2.511  24.793  0.00  0.00    +0.000 A 
ATOM     24  C   UNL     1      -3.183  -1.947  25.213  0.00  0.00    +0.003 A 
ATOM     25  C   UNL     1      -3.170  -1.163  24.956  0.00  0.00    +0.037 A 
ENDBRANCH  19  20
ENDBRANCH  18  19
ENDBRANCH  16  18
TORSDOF 4
ENDMDL
MODEL 3
REMARK VINA RESULT:     -14.4      2.360      4.951
REMARK  Name = 
REMARK  4 active torsions:
REMARK  status: ('A' for Active; 'I' for Inactive)
REMARK    1  A    between atoms: C_5  and  C_8
REMARK    2  A    between atoms: C_16  and  C_18
REMARK    3  A    between atoms: C_18  and  O_19
REMARK    4  A    between atoms: O_19  and  C_20
REMARK                            x       y       z     vdW  Elec       q    Type
REMARK                         _______ _______ _______ _____ _____    ______ ____
ROOT
ATOM      8  C   UNL     1      -2.084   1.769  25.026  0.00  0.00    +0.012 A 
ATOM      9  C   UNL     1      -1.473   1.270  24.785  0.00  0.00    +0.041 A 
ATOM     10  C   UNL     1      -0.592   1.294  24.526  0.00  0.00    +0.058 C 
ATOM     11  C   UNL     1      -0.061   1.741  24.421  0.00  0.00    +0.011 C 
ATOM     12  C   UNL     1      -0.193   0.939  24.365  0.00  0.00    +0.043 C 
ATOM     13  C   UNL     1      -0.155  -0.040  24.237  0.00  0.00    +0.095 C 
ATOM     14  N   UNL     1      -0.939  -0.238  24.446  0.00  0.00    -0.276 N 
ATOM     15  C   UNL     1      -0.539   0.349  24.397  0.00  0.00    +0.099 C 
ATOM     16  C   UNL     1      -1.602  -0.709  24.587  0.00  0.00    +0.270 C 
ATOM     17  O   UNL     1      -1.560  -1.525  24.477  0.00  0.00    -0.271 OA
ATOM     26  C   UNL     1      -1.113   0.904  24.634  0.00  0.00    +0.110 C 
ATOM     27  N   UNL     1      -1.603   0.457  24.726  0.00  0.00    -0.299 N 
ATOM     28  C   UNL     1      -2.344   0.143  24.909  0.00  0.00    +0.261 A 
ATOM     29  O   UNL     1      -2.907  -0.451  25.005  0.00  0.00    -0.267 OA
ATOM     30  C   UNL     1      -2.955   0.642  25.150  0.00  0.00    +0.061 A 
ATOM     31  C   UNL     1      -2.825   1.455  25.208  0.00  0.00    +0.006 A 
ENDROOT
BRANCH   8   5
ATOM      1 CL   UNL     1      -1.564   5.019  25.259  0.00  0.00    -0.082 Cl
ATOM      2  C   UNL     1      -1.694   4.207  25.201  0.00  0.00    +0.058 A 
ATOM      3  C   UNL     1      -1.998   3.887  24.504  0.00  0.00    +0.011 A 
ATOM      4  C   UNL     1      -2.128   3.074  24.446  0.00  0.00    +0.001 A 
ATOM      5  C   UNL     1      -1.954   2.581  25.084  0.00  0.00    +0.001 A 
ATOM      6  C   UNL     1      -1.650   2.901  25.781  0.00  0.00    +0.001 A 
ATOM      7  C   UNL     1      -1.520   3.714  25.839  0.00  0.00    +0.011 A 
ENDBRANCH   8   5
BRANCH  16  18
ATOM     18  C   UNL     1      -2.308  -0.362  24.838  0.00  0.00    +0.290 C 
BRANCH  18  19
ATOM     19  O   UNL     1      -2.878  -0.819  25.221  0.00  0.00    -0.466 OA
BRANCH  19  20
ATOM     20  C   UNL     1      -3.306  -1.385  24.801  0.00  0.00    +0.139 A 
ATOM     21  C   UNL     1      -3.180  -2.188  24.946  0.00  0.00    +0.037 A 
ATOM     22  C   UNL     1      -3.608  -2.755  24.526  0.00  0.00    +0.003 A 
ATOM     23  C   UNL     1      -4.161  -2.519  23.961  0.00  0.00    +0.000 A 
ATOM     24  C   UNL     1      -4.287  -1.716  23.816  0.00  0.00    +0.003 A 
ATOM     25  C   UNL     1      -3.859  -1.150  24.237  0.00  0.00    +0.037 A 
ENDBRANCH  19  20
ENDBRANCH  18  19
ENDBRANCH  16  18
TORSDOF 4
ENDMDL
MODEL 4
REMARK VINA RESULT:     -14.4      1.345      2.502
REMARK  Name = 
REMARK  4 active torsions:
REMARK  status: ('A' for Active; 'I' for Inactive)
REMARK    1  A    between atoms: C_5  and  C_8
REMARK    2  A    between atoms: C_16  and  C_18
REMARK    3  A    between atoms: C_18  and  O_19
REMARK    4  A    between atoms: O_19  and  C_20
REMARK                            x       y       z     vdW  Elec       q    Type
REMARK                         _______ _______ _______ _____ _____    ______ ____
ROOT
ATOM      8  C   UNL     1      -3.578  -0.331  24.713  0.00  0.00    +0.012 A 
ATOM      9  C   UNL     1      -2.903   0.130  24.822  0.00  0.00    +0.041 A 
ATOM     10  C   UNL     1      -2.003   0.049  24.989  0.00  0.00    +0.058 C 
ATOM     11  C   UNL     1      -1.504  -0.433  25.094  0.00  0.00    +0.011 C 
ATOM     12  C   UNL     1      -1.559   0.379  25.060  0.00  0.00    +0.043 C 
ATOM     13  C   UNL     1      -1.423   1.358  25.055  0.00  0.00    +0.095 C 
ATOM     14  N   UNL     1      -2.206   1.607  24.905  0.00  0.00    -0.276 N 
ATOM     15  C   UNL     1      -1.856   0.992  24.987  0.00  0.00    +0.099 C 
ATOM     16  C   UNL     1      -2.839   2.121  24.774  0.00  0.00    +0.270 C 
ATOM     17  O   UNL     1      -2.714   2.936  24.773  0.00  0.00    -0.271 OA
ATOM     26  C   UNL     1      -2.499   0.473  24.886  0.00  0.00    +0.110 C 
ATOM     27  N   UNL     1      -2.955   0.953  24.788  0.00  0.00    -0.299 N 
ATOM     28  C   UNL     1      -3.683   1.314  24.645  0.00  0.00    +0.261 A 
ATOM     29  O   UNL     1      -4.201   1.946  24.532  0.00  0.00    -0.267 OA
ATOM     30  C   UNL     1      -4.358   0.853  24.536  0.00  0.00    +0.061 A 
ATOM     31  C   UNL     1      -4.306   0.031  24.570  0.00  0.00    +0.006 A 
ENDROOT
BRANCH   8   5
ATOM      1 CL   UNL     1      -3.369  -3.621  24.849  0.00  0.00    -0.082 Cl
ATOM      2  C   UNL     1      -3.422  -2.799  24.815  0.00  0.00    +0.058 A 
ATOM      3  C   UNL     1      -3.475  -2.360  25.511  0.00  0.00    +0.011 A 
ATOM      4  C   UNL     1      -3.527  -1.538  25.477  0.00  0.00    +0.001 A 
ATOM      5  C   UNL     1      -3.526  -1.154  24.747  0.00  0.00    +0.001 A 
ATOM      6  C   UNL     1      -3.473  -1.593  24.051  0.00  0.00    +0.001 A 
ATOM      7  C   UNL     1      -3.420  -2.416  24.085  0.00  0.00    +0.011 A 
ENDBRANCH   8   5
BRANCH  16  18
ATOM     18  C   UNL     1      -3.596   1.819  24.645  0.00  0.00    +0.290 C 
BRANCH  18  19
ATOM     19  O   UNL     1      -4.179   2.297  24.310  0.00  0.00    -0.466 OA
BRANCH  19  20
ATOM     20  C   UNL     1      -4.573   2.854  24.773  0.00  0.00    +0.139 A 
ATOM     21  C   UNL     1      -4.312   3.637  24.786  0.00  0.00    +0.037 A 
ATOM     22  C   UNL     1      -4.706   4.196  25.249  0.00  0.00    +0.003 A 
ATOM     23  C   UNL     1      -5.361   3.971  25.697  0.00  0.00    +0.000 A 
ATOM     24  C   UNL     1      -5.622   3.187  25.683  0.00  0.00    +0.003 A 
ATOM     25  C   UNL     1      -5.228   2.630  25.221  0.00  0.00    +0.037 A 
ENDBRANCH  19  20
ENDBRANCH  18  19
ENDBRANCH  16  18
TORSDOF 4
ENDMDL
