MODEL 1
REMARK VINA RESULT:      -9.9      0.000      0.000
REMARK  Name = 
REMARK  5 active torsions:
REMARK  status: ('A' for Active; 'I' for Inactive)
REMARK    1  A    between atoms: C_2  and  N_4
REMARK    2  A    between atoms: N_7  and  C_8
REMARK    3  A    between atoms: C_8  and  C_9
REMARK    4  A    between atoms: C_12  and  N_13
REMARK    5  A    between atoms: N_13  and  C_14
REMARK                            x       y       z     vdW  Elec       q    Type
REMARK                         _______ _______ _______ _____ _____    ______ ____
ROOT
ATOM      9  C   UNL     1      -3.256   1.411  24.496  0.00  0.00    +0.169 C 
ATOM     10  O   UNL     1      -2.693   0.878  24.213  0.00  0.00    -0.350 OA
ATOM     11  C   UNL     1      -3.023   0.122  24.239  0.00  0.00    +0.162 C 
ATOM     12  C   UNL     1      -3.789   0.189  24.538  0.00  0.00    +0.135 C 
ATOM     20  C   UNL     1      -3.933   0.986  24.696  0.00  0.00    +0.199 C 
ATOM     21  O   UNL     1      -4.632   1.301  25.001  0.00  0.00    -0.219 OA
ENDROOT
BRANCH   9   8
ATOM      8  C   UNL     1      -3.157   2.228  24.565  0.00  0.00    +0.149 C 
BRANCH   8   7
ATOM      4  N   UNL     1      -1.641   3.647  25.234  0.00  0.00    -0.189 NA
ATOM      5  C   UNL     1      -2.319   3.342  24.879  0.00  0.00    +0.339 C 
ATOM      6  O   UNL     1      -2.840   3.845  24.481  0.00  0.00    -0.249 OA
ATOM      7  N   UNL     1      -2.479   2.533  24.920  0.00  0.00    -0.185 NA
BRANCH   4   2
ATOM      1  C   UNL     1      -1.979   4.995  25.570  0.00  0.00    +0.023 C 
ATOM      2  C   UNL     1      -1.481   4.456  25.193  0.00  0.00    +0.097 C 
ATOM      3  C   UNL     1      -0.822   4.725  24.774  0.00  0.00    +0.023 C 
ENDBRANCH   4   2
ENDBRANCH   8   7
ENDBRANCH   9   8
BRANCH  12  13
ATOM     13  N   UNL     1      -4.319  -0.433  24.657  0.00  0.00    -0.216 NA
BRANCH  13  14
ATOM     14  C   UNL     1      -4.055  -1.214  24.613  0.00  0.00    +0.073 C 
ATOM     15  C   UNL     1      -3.656  -1.550  25.252  0.00  0.00    +0.017 C 
ATOM     16  C   UNL     1      -3.393  -2.331  25.208  0.00  0.00    +0.001 C 
ATOM     17  C   UNL     1      -3.528  -2.774  24.526  0.00  0.00    +0.000 C 
ATOM     18  C   UNL     1      -3.926  -2.437  23.887  0.00  0.00    +0.001 C 
ATOM     19  C   UNL     1      -4.190  -1.657  23.931  0.00  0.00    +0.017 C 
ENDBRANCH  13  14
ENDBRANCH  12  13
TORSDOF 5
ENDMDL
MODEL 2
REMARK VINA RESULT:      -9.4      1.184      5.411
REMARK  Name = 
REMARK  5 active torsions:
REMARK  status: ('A' for Active; 'I' for Inactive)
REMARK    1  A    between atoms: C_2  and  N_4
REMARK    2  A    between atoms: N_7  and  C_8
REMARK    3  A    between atoms: C_8  and  C_9
REMARK    4  A    between atoms: C_12  and  N_13
REMARK    5  A    between atoms: N_13  and  C_14
REMARK                            x       y       z     vdW  Elec       q    Type
REMARK                         _______ _______ _______ _____ _____    ______ ____
ROOT
ATOM      9  C   UNL     1      -2.106   1.091  24.923  0.00  0.00    +0.169 C 
ATOM     10  O   UNL     1      -2.640   1.668  24.670  0.00  0.00    -0.350 OA
ATOM     11  C   UNL     1      -2.372   2.399  24.944  0.00  0.00    +0.162 C 
ATOM     12  C   UNL     1      -1.673   2.273  25.365  0.00  0.00    +0.135 C 
ATOM     20  C   UNL     1      -1.510   1.464  25.352  0.00  0.00    +0.199 C 
ATOM     21  O   UNL     1      -0.862   1.095  25.707  0.00  0.00    -0.219 OA
ENDROOT
BRANCH   9   8
ATOM      8  C   UNL     1      -2.162   0.282  24.772  0.00  0.00    +0.149 C 
BRANCH   8   7
ATOM      4  N   UNL     1      -3.679  -1.286  24.724  0.00  0.00    -0.189 NA
ATOM      5  C   UNL     1      -2.957  -0.898  24.637  0.00  0.00    +0.339 C 
ATOM      6  O   UNL     1      -2.307  -1.301  24.325  0.00  0.00    -0.249 OA
ATOM      7  N   UNL     1      -2.884  -0.107  24.860  0.00  0.00    -0.185 NA
BRANCH   4   2
ATOM      1  C   UNL     1      -3.447  -2.672  24.983  0.00  0.00    +0.023 C 
ATOM      2  C   UNL     1      -3.753  -2.077  24.501  0.00  0.00    +0.097 C 
ATOM      3  C   UNL     1      -4.134  -2.272  23.795  0.00  0.00    +0.023 C 
ENDBRANCH   4   2
ENDBRANCH   8   7
ENDBRANCH   9   8
BRANCH  12  13
ATOM     13  N   UNL     1      -1.219   2.854  25.735  0.00  0.00    -0.216 NA
BRANCH  13  14
ATOM     14  C   UNL     1      -1.265   3.638  25.480  0.00  0.00    +0.073 C 
ATOM     15  C   UNL     1      -1.889   4.116  25.728  0.00  0.00    +0.017 C 
ATOM     16  C   UNL     1      -1.935   4.900  25.474  0.00  0.00    +0.001 C 
ATOM     17  C   UNL     1      -1.357   5.204  24.971  0.00  0.00    +0.000 C 
ATOM     18  C   UNL     1      -0.732   4.725  24.722  0.00  0.00    +0.001 C 
ATOM     19  C   UNL     1      -0.687   3.942  24.977  0.00  0.00    +0.017 C 
ENDBRANCH  13  14
ENDBRANCH  12  13
TORSDOF 5
ENDMDL
MODEL 3
REMARK VINA RESULT:      -8.9      1.025      5.160
REMARK  Name = 
REMARK  5 active torsions:
REMARK  status: ('A' for Active; 'I' for Inactive)
REMARK    1  A    between atoms: C_2  and  N_4
REMARK    2  A    between atoms: N_7  and  C_8
REMARK    3  A    between atoms: C_8  and  C_9
REMARK    4  A    between atoms: C_12  and  N_13
REMARK    5  A    between atoms: N_13  and  C_14
REMARK                            x       y       z     vdW  Elec       q    Type
REMARK                         _______ _______ _______ _____ _____    ______ ____
ROOT
ATOM      9  C   UNL     1      -3.528   1.211  24.163  0.00  0.00    +0.169 C 
ATOM     10  O   UNL     1      -2.728   1.370  24.036  0.00  0.00    -0.350 OA
ATOM     11  C   UNL     1      -2.617   2.185  24.100  0.00  0.00    +0.162 C 
ATOM     12  C   UNL     1      -3.348   2.529  24.265  0.00  0.00    +0.135 C 
ATOM     20  C   UNL     1      -3.911   1.927  24.305  0.00  0.00    +0.199 C 
ATOM     21  O   UNL     1      -4.716   2.026  24.458  0.00  0.00    -0.219 OA
ENDROOT
BRANCH   9   8
ATOM      8  C   UNL     1      -3.882   0.466  24.150  0.00  0.00    +0.149 C 
BRANCH   8   7
ATOM      4  N   UNL     1      -3.283  -1.632  24.192  0.00  0.00    -0.189 NA
ATOM      5  C   UNL     1      -3.750  -0.954  24.239  0.00  0.00    +0.339 C 
ATOM      6  O   UNL     1      -4.553  -1.018  24.422  0.00  0.00    -0.249 OA
ATOM      7  N   UNL     1      -3.415  -0.212  24.103  0.00  0.00    -0.185 NA
BRANCH   4   2
ATOM      1  C   UNL     1      -4.101  -2.720  23.757  0.00  0.00    +0.023 C 
ATOM      2  C   UNL     1      -3.618  -2.374  24.328  0.00  0.00    +0.097 C 
ATOM      3  C   UNL     1      -3.467  -2.771  25.037  0.00  0.00    +0.023 C 
ENDBRANCH   4   2
ENDBRANCH   8   7
ENDBRANCH   9   8
BRANCH  12  13
ATOM     13  N   UNL     1      -3.491   3.335  24.373  0.00  0.00    -0.216 NA
BRANCH  13  14
ATOM     14  C   UNL     1      -3.000   3.779  24.866  0.00  0.00    +0.073 C 
ATOM     15  C   UNL     1      -2.334   4.153  24.556  0.00  0.00    +0.017 C 
ATOM     16  C   UNL     1      -1.842   4.596  25.049  0.00  0.00    +0.001 C 
ATOM     17  C   UNL     1      -2.018   4.666  25.851  0.00  0.00    +0.000 C 
ATOM     18  C   UNL     1      -2.685   4.291  26.162  0.00  0.00    +0.001 C 
ATOM     19  C   UNL     1      -3.175   3.848  25.669  0.00  0.00    +0.017 C 
ENDBRANCH  13  14
ENDBRANCH  12  13
TORSDOF 5
ENDMDL
