MODEL 1
REMARK VINA RESULT:     -12.4      0.000      0.000
REMARK  Name = 
REMARK  7 active torsions:
REMARK  status: ('A' for Active; 'I' for Inactive)
REMARK    1  A    between atoms: N_2  and  C_3
REMARK    2  A    between atoms: N_2  and  C_25
REMARK    3  A    between atoms: C_3  and  C_4
REMARK    4  A    between atoms: N_6  and  C_7
REMARK    5  A    between atoms: C_7  and  C_8
REMARK    6  A    between atoms: C_15  and  C_16
REMARK    7  A    between atoms: C_25  and  C_26
REMARK                            x       y       z     vdW  Elec       q    Type
REMARK                         _______ _______ _______ _____ _____    ______ ____
ROOT
ATOM      7  C   UNL     1      -5.020   0.712  25.458  0.00  0.00    +0.145 C 
ENDROOT
BRANCH   7   8
ATOM      8  C   UNL     1      -4.646   0.084  25.076  0.00  0.00    +0.082 C 
ATOM      9  C   UNL     1      -4.560  -0.418  24.487  0.00  0.00    +0.019 C 
ATOM     10  C   UNL     1      -3.991  -0.993  24.438  0.00  0.00    +0.013 C 
ATOM     11  C   UNL     1      -4.062  -1.467  23.680  0.00  0.00    +0.018 C 
ATOM     12  C   UNL     1      -4.227  -1.004  24.109  0.00  0.00    +0.072 C 
ATOM     13  N   UNL     1      -4.070  -0.505  25.018  0.00  0.00    -0.272 NA
ATOM     14  C   UNL     1      -3.391  -0.751  25.576  0.00  0.00    +0.081 C 
ATOM     15  C   UNL     1      -3.340  -1.225  24.979  0.00  0.00    +0.093 C 
BRANCH  15  16
ATOM     16  C   UNL     1      -2.789  -1.829  24.867  0.00  0.00    +0.227 C 
ATOM     17  O   UNL     1      -3.039  -2.574  24.619  0.00  0.00    -0.275 OA
ATOM     18  N   UNL     1      -1.988  -1.685  25.003  0.00  0.00    -0.280 N 
ATOM     19  C   UNL     1      -1.658  -0.971  25.251  0.00  0.00    +0.093 C 
ATOM     20  C   UNL     1      -0.842  -1.076  25.316  0.00  0.00    +0.023 C 
ATOM     21  C   UNL     1      -0.668  -1.855  25.108  0.00  0.00    +0.023 C 
ATOM     22  C   UNL     1      -1.377  -2.232  24.914  0.00  0.00    +0.093 C 
ENDBRANCH  15  16
ENDBRANCH   7   8
BRANCH   7   6
ATOM      4  C   UNL     1      -4.460   2.719  24.996  0.00  0.00    +0.117 A 
ATOM      5  C   UNL     1      -4.352   2.020  25.422  0.00  0.00    +0.115 A 
ATOM      6  N   UNL     1      -4.925   1.482  25.176  0.00  0.00    -0.229 N 
ATOM     23  N   UNL     1      -5.388   1.847  24.599  0.00  0.00    -0.064 NA
ATOM     24  N   UNL     1      -5.100   2.612  24.488  0.00  0.00    -0.132 NA
BRANCH   4   3
ATOM      3  C   UNL     1      -4.006   3.405  25.068  0.00  0.00    +0.122 C 
BRANCH   3   2
ATOM      1  C   UNL     1      -2.977   3.224  24.093  0.00  0.00    +0.090 C 
ATOM      2  N   UNL     1      -3.206   3.393  24.868  0.00  0.00    -0.263 NA
BRANCH   2  25
ATOM     25  C   UNL     1      -2.635   3.551  25.441  0.00  0.00    +0.099 C 
BRANCH  25  26
ATOM     26  C   UNL     1      -2.001   4.050  25.266  0.00  0.00    -0.006 A 
ATOM     27  C   UNL     1      -2.102   4.869  25.287  0.00  0.00    -0.003 A 
ATOM     28  C   UNL     1      -1.469   5.367  25.112  0.00  0.00    -0.000 A 
ATOM     29  C   UNL     1      -0.735   5.048  24.914  0.00  0.00    -0.000 A 
ATOM     30  C   UNL     1      -0.633   4.230  24.893  0.00  0.00    -0.000 A 
ATOM     31  C   UNL     1      -1.267   3.731  25.068  0.00  0.00    -0.003 A 
ENDBRANCH  25  26
ENDBRANCH   2  25
ENDBRANCH   3   2
ENDBRANCH   4   3
ENDBRANCH   7   6
TORSDOF 7
ENDMDL
MODEL 2
REMARK VINA RESULT:     -11.8      1.903      5.469
REMARK  Name = 
REMARK  7 active torsions:
REMARK  status: ('A' for Active; 'I' for Inactive)
REMARK    1  A    between atoms: N_2  and  C_3
REMARK    2  A    between atoms: N_2  and  C_25
REMARK    3  A    between atoms: C_3  and  C_4
REMARK    4  A    between atoms: N_6  and  C_7
REMARK    5  A    between atoms: C_7  and  C_8
REMARK    6  A    between atoms: C_15  and  C_16
REMARK    7  A    between atoms: C_25  and  C_26
REMARK                            x       y       z     vdW  Elec       q    Type
REMARK                         _______ _______ _______ _____ _____    ______ ____
ROOT
ATOM      7  C   UNL     1      -1.102   2.813  24.236  0.00  0.00    +0.145 C 
ENDROOT
BRANCH   7   8
ATOM      8  C   UNL     1      -1.716   3.124  24.690  0.00  0.00    +0.082 C 
ATOM      9  C   UNL     1      -1.998   3.540  25.284  0.00  0.00    +0.019 C 
ATOM     10  C   UNL     1      -2.782   3.648  25.454  0.00  0.00    +0.013 C 
ATOM     11  C   UNL     1      -2.899   4.160  26.181  0.00  0.00    +0.018 C 
ATOM     12  C   UNL     1      -2.554   3.843  25.726  0.00  0.00    +0.072 C 
ATOM     13  N   UNL     1      -2.513   3.239  24.870  0.00  0.00    -0.272 NA
ATOM     14  C   UNL     1      -3.278   2.944  24.469  0.00  0.00    +0.081 C 
ATOM     15  C   UNL     1      -3.513   3.360  25.063  0.00  0.00    +0.093 C 
BRANCH  15  16
ATOM     16  C   UNL     1      -4.293   3.509  25.291  0.00  0.00    +0.227 C 
ATOM     17  O   UNL     1      -4.515   4.267  25.528  0.00  0.00    -0.275 OA
ATOM     18  N   UNL     1      -4.848   2.899  25.281  0.00  0.00    -0.280 N 
ATOM     19  C   UNL     1      -4.708   2.118  25.058  0.00  0.00    +0.093 C 
ATOM     20  C   UNL     1      -5.415   1.700  25.132  0.00  0.00    +0.023 C 
ATOM     21  C   UNL     1      -5.993   2.224  25.400  0.00  0.00    +0.023 C 
ATOM     22  C   UNL     1      -5.643   2.966  25.492  0.00  0.00    +0.093 C 
ENDBRANCH  15  16
ENDBRANCH   7   8
BRANCH   7   6
ATOM      4  C   UNL     1      -0.632   0.748  24.510  0.00  0.00    +0.117 A 
ATOM      5  C   UNL     1      -1.127   1.343  24.222  0.00  0.00    +0.115 A 
ATOM      6  N   UNL     1      -0.790   2.070  24.417  0.00  0.00    -0.229 N 
ATOM     23  N   UNL     1      -0.088   1.925  24.826  0.00  0.00    -0.064 NA
ATOM     24  N   UNL     1       0.009   1.108  24.883  0.00  0.00    -0.132 NA
BRANCH   4   3
ATOM      3  C   UNL     1      -0.758  -0.064  24.437  0.00  0.00    +0.122 C 
BRANCH   3   2
ATOM      1  C   UNL     1      -1.198  -0.658  25.659  0.00  0.00    +0.090 C 
ATOM      2  N   UNL     1      -1.348  -0.432  24.880  0.00  0.00    -0.263 NA
BRANCH   2  25
ATOM     25  C   UNL     1      -2.089  -0.573  24.546  0.00  0.00    +0.099 C 
BRANCH  25  26
ATOM     26  C   UNL     1      -2.477  -1.286  24.691  0.00  0.00    -0.006 A 
ATOM     27  C   UNL     1      -2.187  -1.988  24.367  0.00  0.00    -0.003 A 
ATOM     28  C   UNL     1      -2.576  -2.700  24.512  0.00  0.00    -0.000 A 
ATOM     29  C   UNL     1      -3.254  -2.713  24.981  0.00  0.00    -0.000 A 
ATOM     30  C   UNL     1      -3.544  -2.012  25.305  0.00  0.00    -0.000 A 
ATOM     31  C   UNL     1      -3.156  -1.299  25.160  0.00  0.00    -0.003 A 
ENDBRANCH  25  26
ENDBRANCH   2  25
ENDBRANCH   3   2
ENDBRANCH   4   3
ENDBRANCH   7   6
TORSDOF 7
ENDMDL
MODEL 3
REMARK VINA RESULT:     -11.6      1.735      4.876
REMARK  Name = 
REMARK  7 active torsions:
REMARK  status: ('A' for Active; 'I' for Inactive)
REMARK    1  A    between atoms: N_2  and  C_3
REMARK    2  A    between atoms: N_2  and  C_25
REMARK    3  A    between atoms: C_3  and  C_4
REMARK    4  A    between atoms: N_6  and  C_7
REMARK    5  A    between atoms: C_7  and  C_8
REMARK    6  A    between atoms: C_15  and  C_16
REMARK    7  A    between atoms: C_25  and  C_26
REMARK                            x       y       z     vdW  Elec       q    Type
REMARK                         _______ _______ _______ _____ _____    ______ ____
ROOT
ATOM      7  C   UNL     1      -4.352   3.218  24.530  0.00  0.00    +0.145 C 
ENDROOT
BRANCH   7   8
ATOM      8  C   UNL     1      -3.596   3.440  24.772  0.00  0.00    +0.082 C 
ATOM      9  C   UNL     1      -3.099   3.833  25.224  0.00  0.00    +0.019 C 
ATOM     10  C   UNL     1      -2.291   3.807  25.171  0.00  0.00    +0.013 C 
ATOM     11  C   UNL     1      -1.900   4.333  25.783  0.00  0.00    +0.018 C 
ATOM     12  C   UNL     1      -2.402   4.057  25.470  0.00  0.00    +0.072 C 
ATOM     13  N   UNL     1      -2.772   3.419  24.724  0.00  0.00    -0.272 NA
ATOM     14  C   UNL     1      -2.204   2.966  24.172  0.00  0.00    +0.081 C 
ATOM     15  C   UNL     1      -1.751   3.368  24.636  0.00  0.00    +0.093 C 
BRANCH  15  16
ATOM     16  C   UNL     1      -0.926   3.387  24.636  0.00  0.00    +0.227 C 
ATOM     17  O   UNL     1      -0.530   4.101  24.751  0.00  0.00    -0.275 OA
ATOM     18  N   UNL     1      -0.498   2.691  24.520  0.00  0.00    -0.280 N 
ATOM     19  C   UNL     1      -0.817   1.940  24.399  0.00  0.00    +0.093 C 
ATOM     20  C   UNL     1      -0.192   1.409  24.309  0.00  0.00    +0.023 C 
ATOM     21  C   UNL     1       0.513   1.832  24.375  0.00  0.00    +0.023 C 
ATOM     22  C   UNL     1       0.324   2.625  24.505  0.00  0.00    +0.093 C 
ENDBRANCH  15  16
ENDBRANCH   7   8
BRANCH   7   6
ATOM      4  C   UNL     1      -4.964   1.206  24.897  0.00  0.00    +0.117 A 
ATOM      5  C   UNL     1      -4.527   1.760  24.469  0.00  0.00    +0.115 A 
ATOM      6  N   UNL     1      -4.676   2.505  24.790  0.00  0.00    -0.229 N 
ATOM     23  N   UNL     1      -5.205   2.412  25.416  0.00  0.00    -0.064 NA
ATOM     24  N   UNL     1      -5.383   1.609  25.482  0.00  0.00    -0.132 NA
BRANCH   4   3
ATOM      3  C   UNL     1      -4.979   0.392  24.762  0.00  0.00    +0.122 C 
BRANCH   3   2
ATOM      1  C   UNL     1      -4.054  -0.155  25.702  0.00  0.00    +0.090 C 
ATOM      2  N   UNL     1      -4.313  -0.065  24.924  0.00  0.00    -0.263 NA
BRANCH   2  25
ATOM     25  C   UNL     1      -3.905  -0.433  24.309  0.00  0.00    +0.099 C 
BRANCH  25  26
ATOM     26  C   UNL     1      -3.797  -1.251  24.317  0.00  0.00    -0.006 A 
ATOM     27  C   UNL     1      -3.172  -1.581  24.744  0.00  0.00    -0.003 A 
ATOM     28  C   UNL     1      -3.065  -2.399  24.752  0.00  0.00    -0.000 A 
ATOM     29  C   UNL     1      -3.581  -2.887  24.333  0.00  0.00    -0.000 A 
ATOM     30  C   UNL     1      -4.205  -2.558  23.905  0.00  0.00    -0.000 A 
ATOM     31  C   UNL     1      -4.313  -1.740  23.898  0.00  0.00    -0.003 A 
ENDBRANCH  25  26
ENDBRANCH   2  25
ENDBRANCH   3   2
ENDBRANCH   4   3
ENDBRANCH   7   6
TORSDOF 7
ENDMDL
MODEL 4
REMARK VINA RESULT:     -10.9      1.378      3.272
REMARK  Name = 
REMARK  7 active torsions:
REMARK  status: ('A' for Active; 'I' for Inactive)
REMARK    1  A    between atoms: N_2  and  C_3
REMARK    2  A    between atoms: N_2  and  C_25
REMARK    3  A    between atoms: C_3  and  C_4
REMARK    4  A    between atoms: N_6  and  C_7
REMARK    5  A    between atoms: C_7  and  C_8
REMARK    6  A    between atoms: C_15  and  C_16
REMARK    7  A    between atoms: C_25  and  C_26
REMARK                            x       y       z     vdW  Elec       q    Type
REMARK                         _______ _______ _______ _____ _____    ______ ____
ROOT
ATOM      7  C   UNL     1      -0.723   1.545  24.481  0.00  0.00    +0.145 C 
ENDROOT
BRANCH   7   8
ATOM      8  C   UNL     1      -0.945   0.820  24.805  0.00  0.00    +0.082 C 
ATOM      9  C   UNL     1      -0.978   0.299  25.382  0.00  0.00    +0.019 C 
ATOM     10  C   UNL     1      -1.335  -0.427  25.342  0.00  0.00    +0.013 C 
ATOM     11  C   UNL     1      -1.263  -0.877  26.114  0.00  0.00    +0.018 C 
ATOM     12  C   UNL     1      -1.174  -0.373  25.709  0.00  0.00    +0.072 C 
ATOM     13  N   UNL     1      -1.307   0.079  24.772  0.00  0.00    -0.272 NA
ATOM     14  C   UNL     1      -1.756  -0.352  24.105  0.00  0.00    +0.081 C 
ATOM     15  C   UNL     1      -1.766  -0.835  24.696  0.00  0.00    +0.093 C 
BRANCH  15  16
ATOM     16  C   UNL     1      -2.110  -1.585  24.722  0.00  0.00    +0.227 C 
ATOM     17  O   UNL     1      -1.680  -2.226  25.012  0.00  0.00    -0.275 OA
ATOM     18  N   UNL     1      -2.884  -1.693  24.457  0.00  0.00    -0.280 N 
ATOM     19  C   UNL     1      -3.379  -1.107  24.154  0.00  0.00    +0.093 C 
ATOM     20  C   UNL     1      -4.100  -1.457  23.958  0.00  0.00    +0.023 C 
ATOM     21  C   UNL     1      -4.050  -2.260  24.140  0.00  0.00    +0.023 C 
ATOM     22  C   UNL     1      -3.298  -2.406  24.449  0.00  0.00    +0.093 C 
ENDBRANCH  15  16
ENDBRANCH   7   8
BRANCH   7   6
ATOM      4  C   UNL     1      -1.892   3.283  24.891  0.00  0.00    +0.117 A 
ATOM      5  C   UNL     1      -1.747   2.599  24.453  0.00  0.00    +0.115 A 
ATOM      6  N   UNL     1      -1.068   2.243  24.755  0.00  0.00    -0.229 N 
ATOM     23  N   UNL     1      -0.793   2.706  25.380  0.00  0.00    -0.064 NA
ATOM     24  N   UNL     1      -1.303   3.349  25.464  0.00  0.00    -0.132 NA
BRANCH   4   3
ATOM      3  C   UNL     1      -2.518   3.809  24.776  0.00  0.00    +0.122 C 
BRANCH   3   2
ATOM      1  C   UNL     1      -3.340   3.589  25.924  0.00  0.00    +0.090 C 
ATOM      2  N   UNL     1      -3.257   3.649  25.105  0.00  0.00    -0.263 NA
BRANCH   2  25
ATOM     25  C   UNL     1      -3.914   3.548  24.616  0.00  0.00    +0.099 C 
BRANCH  25  26
ATOM     26  C   UNL     1      -4.563   3.112  24.881  0.00  0.00    -0.006 A 
ATOM     27  C   UNL     1      -5.082   3.439  25.434  0.00  0.00    -0.003 A 
ATOM     28  C   UNL     1      -5.729   3.002  25.699  0.00  0.00    -0.000 A 
ATOM     29  C   UNL     1      -5.860   2.240  25.412  0.00  0.00    -0.000 A 
ATOM     30  C   UNL     1      -5.341   1.914  24.860  0.00  0.00    -0.000 A 
ATOM     31  C   UNL     1      -4.693   2.350  24.595  0.00  0.00    -0.003 A 
ENDBRANCH  25  26
ENDBRANCH   2  25
ENDBRANCH   3   2
ENDBRANCH   4   3
ENDBRANCH   7   6
TORSDOF 7
ENDMDL
