MODEL 1
REMARK VINA RESULT:     -11.2      0.000      0.000
REMARK  Name = 
REMARK  4 active torsions:
REMARK  status: ('A' for Active; 'I' for Inactive)
REMARK    1  A    between atoms: C_6  and  C_7
REMARK    2  A    between atoms: C_13  and  C_15
REMARK    3  A    between atoms: N_17  and  C_18
REMARK    4  A    between atoms: C_25  and  C_27
REMARK                            x       y       z     vdW  Elec       q    Type
REMARK                         _______ _______ _______ _____ _____    ______ ____
ROOT
ATOM      7  C   UNL     1      -4.858   2.126  24.866  0.00  0.00    +0.265 C 
ATOM      8  O   UNL     1      -5.545   1.681  24.766  0.00  0.00    -0.268 OA
ATOM      9  N   UNL     1      -4.119   1.761  24.818  0.00  0.00    -0.271 N 
ATOM     10  C   UNL     1      -3.432   2.207  24.918  0.00  0.00    +0.115 C 
ATOM     11  C   UNL     1      -2.694   1.842  24.871  0.00  0.00    +0.116 C 
ATOM     12  N   UNL     1      -2.643   1.032  24.723  0.00  0.00    -0.265 N 
ATOM     13  C   UNL     1      -3.330   0.587  24.623  0.00  0.00    +0.174 C 
ATOM     14  C   UNL     1      -4.068   0.952  24.670  0.00  0.00    +0.123 C 
ATOM     25  C   UNL     1      -1.904   0.667  24.675  0.00  0.00    +0.269 C 
ATOM     26  O   UNL     1      -1.852  -0.143  24.527  0.00  0.00    -0.268 OA
ENDROOT
BRANCH   7   6
ATOM      1  C   UNL     1      -5.793   2.900  26.188  0.00  0.00    +0.131 C 
ATOM      2  N   UNL     1      -5.339   3.292  25.621  0.00  0.00    -0.320 N 
ATOM      3  C   UNL     1      -5.235   4.109  25.563  0.00  0.00    +0.076 A 
ATOM      4  C   UNL     1      -4.741   4.257  24.919  0.00  0.00    +0.020 A 
ATOM      5  C   UNL     1      -4.539   3.533  24.580  0.00  0.00    +0.023 A 
ATOM      6  C   UNL     1      -4.909   2.936  25.014  0.00  0.00    +0.114 A 
ENDBRANCH   7   6
BRANCH  25  27
ATOM     27  C   UNL     1      -1.217   1.112  24.775  0.00  0.00    +0.154 A 
ATOM     28  C   UNL     1      -0.899   1.216  25.530  0.00  0.00    +0.123 A 
ATOM     29  N   UNL     1      -0.212   1.661  25.631  0.00  0.00    -0.239 NA
ATOM     30  C   UNL     1       0.158   2.002  24.977  0.00  0.00    +0.120 A 
ATOM     31  C   UNL     1      -0.159   1.898  24.223  0.00  0.00    +0.120 A 
ATOM     32  N   UNL     1      -0.846   1.453  24.122  0.00  0.00    -0.236 NA
ENDBRANCH  25  27
BRANCH  13  15
ATOM     15  C   UNL     1      -3.278  -0.223  24.475  0.00  0.00    +0.262 C 
ATOM     16  O   UNL     1      -2.810  -0.499  23.853  0.00  0.00    -0.271 OA
ATOM     17  N   UNL     1      -3.693  -0.757  24.947  0.00  0.00    -0.196 NA
BRANCH  17  18
ATOM     18  C   UNL     1      -3.640  -1.567  24.798  0.00  0.00    +0.173 C 
ATOM     19  C   UNL     1      -3.740  -1.853  24.031  0.00  0.00    +0.033 C 
ATOM     20  C   UNL     1      -3.687  -2.663  23.882  0.00  0.00    +0.026 C 
ATOM     21  C   UNL     1      -3.534  -3.186  24.501  0.00  0.00    +0.115 C 
ATOM     22  N   UNL     1      -3.434  -2.900  25.269  0.00  0.00    -0.204 NA
ATOM     23  C   UNL     1      -3.486  -2.090  25.417  0.00  0.00    +0.261 C 
ATOM     24  O   UNL     1      -3.386  -1.804  26.185  0.00  0.00    -0.271 OA
ENDBRANCH  17  18
ENDBRANCH  13  15
TORSDOF 4
ENDMDL
MODEL 2
REMARK VINA RESULT:     -10.9      0.992      3.348
REMARK  Name = 
REMARK  4 active torsions:
REMARK  status: ('A' for Active; 'I' for Inactive)
REMARK    1  A    between atoms: C_6  and  C_7
REMARK    2  A    between atoms: C_13  and  C_15
REMARK    3  A    between atoms: N_17  and  C_18
REMARK    4  A    between atoms: C_25  and  C_27
REMARK                            x       y       z     vdW  Elec       q    Type
REMARK                         _______ _______ _______ _____ _____    ______ ____
ROOT
ATOM      7  C   UNL     1      -1.168   1.943  24.660  0.00  0.00    +0.265 C 
ATOM      8  O   UNL     1      -0.639   1.354  24.428  0.00  0.00    -0.268 OA
ATOM      9  N   UNL     1      -1.973   1.775  24.719  0.00  0.00    -0.271 N 
ATOM     10  C   UNL     1      -2.501   2.365  24.952  0.00  0.00    +0.115 C 
ATOM     11  C   UNL     1      -3.307   2.197  25.011  0.00  0.00    +0.116 C 
ATOM     12  N   UNL     1      -3.584   1.439  24.838  0.00  0.00    -0.265 N 
ATOM     13  C   UNL     1      -3.055   0.850  24.606  0.00  0.00    +0.174 C 
ATOM     14  C   UNL     1      -2.250   1.018  24.547  0.00  0.00    +0.123 C 
ATOM     25  C   UNL     1      -4.390   1.271  24.898  0.00  0.00    +0.269 C 
ATOM     26  O   UNL     1      -4.668   0.513  24.725  0.00  0.00    -0.268 OA
ENDROOT
BRANCH   7   6
ATOM      1  C   UNL     1      -0.026   2.374  25.976  0.00  0.00    +0.131 C 
ATOM      2  N   UNL     1      -0.366   2.899  25.437  0.00  0.00    -0.320 N 
ATOM      3  C   UNL     1      -0.240   3.714  25.410  0.00  0.00    +0.076 A 
ATOM      4  C   UNL     1      -0.688   4.020  24.787  0.00  0.00    +0.020 A 
ATOM      5  C   UNL     1      -1.090   3.394  24.431  0.00  0.00    +0.023 A 
ATOM      6  C   UNL     1      -0.891   2.701  24.833  0.00  0.00    +0.114 A 
ENDBRANCH   7   6
BRANCH  25  27
ATOM     27  C   UNL     1      -4.918   1.860  25.130  0.00  0.00    +0.154 A 
ATOM     28  C   UNL     1      -5.155   2.438  24.590  0.00  0.00    +0.123 A 
ATOM     29  N   UNL     1      -5.683   3.027  24.822  0.00  0.00    -0.239 NA
ATOM     30  C   UNL     1      -5.976   3.039  25.594  0.00  0.00    +0.120 A 
ATOM     31  C   UNL     1      -5.740   2.461  26.133  0.00  0.00    +0.120 A 
ATOM     32  N   UNL     1      -5.211   1.872  25.901  0.00  0.00    -0.236 NA
ENDBRANCH  25  27
BRANCH  13  15
ATOM     15  C   UNL     1      -3.333   0.092  24.434  0.00  0.00    +0.262 C 
ATOM     16  O   UNL     1      -3.870  -0.019  23.817  0.00  0.00    -0.271 OA
ATOM     17  N   UNL     1      -3.075  -0.554  24.877  0.00  0.00    -0.196 NA
BRANCH  17  18
ATOM     18  C   UNL     1      -3.354  -1.311  24.704  0.00  0.00    +0.173 C 
ATOM     19  C   UNL     1      -3.622  -1.488  23.944  0.00  0.00    +0.033 C 
ATOM     20  C   UNL     1      -3.901  -2.245  23.771  0.00  0.00    +0.026 C 
ATOM     21  C   UNL     1      -3.911  -2.825  24.358  0.00  0.00    +0.115 C 
ATOM     22  N   UNL     1      -3.643  -2.648  25.117  0.00  0.00    -0.204 NA
ATOM     23  C   UNL     1      -3.365  -1.890  25.291  0.00  0.00    +0.261 C 
ATOM     24  O   UNL     1      -3.097  -1.713  26.051  0.00  0.00    -0.271 OA
ENDBRANCH  17  18
ENDBRANCH  13  15
TORSDOF 4
ENDMDL
MODEL 3
REMARK VINA RESULT:     -10.4      1.423      4.950
REMARK  Name = 
REMARK  4 active torsions:
REMARK  status: ('A' for Active; 'I' for Inactive)
REMARK    1  A    between atoms: C_6  and  C_7
REMARK    2  A    between atoms: C_13  and  C_15
REMARK    3  A    between atoms: N_17  and  C_18
REMARK    4  A    between atoms: C_25  and  C_27
REMARK                            x       y       z     vdW  Elec       q    Type
REMARK                         _______ _______ _______ _____ _____    ______ ____
ROOT
ATOM      7  C   UNL     1      -2.594  -0.863  24.352  0.00  0.00    +0.265 C 
ATOM      8  O   UNL     1      -1.793  -0.899  24.156  0.00  0.00    -0.268 OA
ATOM      9  N   UNL     1      -2.951  -0.134  24.497  0.00  0.00    -0.271 N 
ATOM     10  C   UNL     1      -3.752  -0.099  24.693  0.00  0.00    +0.115 C 
ATOM     11  C   UNL     1      -4.109   0.631  24.838  0.00  0.00    +0.116 C 
ATOM     12  N   UNL     1      -3.665   1.325  24.788  0.00  0.00    -0.265 N 
ATOM     13  C   UNL     1      -2.864   1.289  24.592  0.00  0.00    +0.174 C 
ATOM     14  C   UNL     1      -2.507   0.559  24.447  0.00  0.00    +0.123 C 
ATOM     25  C   UNL     1      -4.022   2.054  24.933  0.00  0.00    +0.269 C 
ATOM     26  O   UNL     1      -3.580   2.748  24.883  0.00  0.00    -0.268 OA
ENDROOT
BRANCH   7   6
ATOM      1  C   UNL     1      -2.174  -2.316  25.319  0.00  0.00    +0.131 C 
ATOM      2  N   UNL     1      -2.844  -2.224  24.846  0.00  0.00    -0.320 N 
ATOM      3  C   UNL     1      -3.440  -2.786  24.735  0.00  0.00    +0.076 A 
ATOM      4  C   UNL     1      -4.000  -2.464  24.222  0.00  0.00    +0.020 A 
ATOM      5  C   UNL     1      -3.752  -1.705  24.016  0.00  0.00    +0.023 A 
ATOM      6  C   UNL     1      -3.037  -1.557  24.402  0.00  0.00    +0.114 A 
ENDBRANCH   7   6
BRANCH  25  27
ATOM     27  C   UNL     1      -4.823   2.090  25.129  0.00  0.00    +0.154 A 
ATOM     28  C   UNL     1      -5.395   2.023  24.538  0.00  0.00    +0.123 A 
ATOM     29  N   UNL     1      -6.196   2.059  24.732  0.00  0.00    -0.239 NA
ATOM     30  C   UNL     1      -6.425   2.162  25.519  0.00  0.00    +0.120 A 
ATOM     31  C   UNL     1      -5.853   2.229  26.109  0.00  0.00    +0.120 A 
ATOM     32  N   UNL     1      -5.052   2.193  25.915  0.00  0.00    -0.236 NA
ENDBRANCH  25  27
BRANCH  13  15
ATOM     15  C   UNL     1      -2.422   1.983  24.542  0.00  0.00    +0.262 C 
ATOM     16  O   UNL     1      -2.656   2.586  24.030  0.00  0.00    -0.271 OA
ATOM     17  N   UNL     1      -1.745   2.076  25.005  0.00  0.00    -0.196 NA
BRANCH  17  18
ATOM     18  C   UNL     1      -1.302   2.771  24.954  0.00  0.00    +0.173 C 
ATOM     19  C   UNL     1      -1.224   3.158  24.230  0.00  0.00    +0.033 C 
ATOM     20  C   UNL     1      -0.781   3.853  24.179  0.00  0.00    +0.026 C 
ATOM     21  C   UNL     1      -0.418   4.160  24.853  0.00  0.00    +0.115 C 
ATOM     22  N   UNL     1      -0.497   3.773  25.578  0.00  0.00    -0.204 NA
ATOM     23  C   UNL     1      -0.939   3.078  25.628  0.00  0.00    +0.261 C 
ATOM     24  O   UNL     1      -1.018   2.691  26.352  0.00  0.00    -0.271 OA
ENDBRANCH  17  18
ENDBRANCH  13  15
TORSDOF 4
ENDMDL
MODEL 4
REMARK VINA RESULT:     -10.0      1.012      3.479
REMARK  Name = 
REMARK  4 active torsions:
REMARK  status: ('A' for Active; 'I' for Inactive)
REMARK    1  A    between atoms: C_6  and  C_7
REMARK    2  A    between atoms: C_13  and  C_15
REMARK    3  A    between atoms: N_17  and  C_18
REMARK    4  A    between atoms: C_25  and  C_27
REMARK                            x       y       z     vdW  Elec       q    Type
REMARK                         _______ _______ _______ _____ _____    ______ ____
ROOT
ATOM      7  C   UNL     1      -4.482   2.259  24.843  0.00  0.00    +0.265 C 
ATOM      8  O   UNL     1      -4.150   3.002  24.709  0.00  0.00    -0.268 OA
ATOM      9  N   UNL     1      -4.013   1.582  24.791  0.00  0.00    -0.271 N 
ATOM     10  C   UNL     1      -4.346   0.839  24.925  0.00  0.00    +0.115 C 
ATOM     11  C   UNL     1      -3.878   0.162  24.873  0.00  0.00    +0.116 C 
ATOM     12  N   UNL     1      -3.077   0.227  24.686  0.00  0.00    -0.265 N 
ATOM     13  C   UNL     1      -2.745   0.971  24.552  0.00  0.00    +0.174 C 
ATOM     14  C   UNL     1      -3.213   1.648  24.604  0.00  0.00    +0.123 C 
ATOM     25  C   UNL     1      -2.609  -0.450  24.634  0.00  0.00    +0.269 C 
ATOM     26  O   UNL     1      -1.807  -0.385  24.448  0.00  0.00    -0.268 OA
ENDROOT
BRANCH   7   6
ATOM      1  C   UNL     1      -5.333   3.130  26.160  0.00  0.00    +0.131 C 
ATOM      2  N   UNL     1      -5.674   2.594  25.635  0.00  0.00    -0.320 N 
ATOM      3  C   UNL     1      -6.467   2.363  25.622  0.00  0.00    +0.076 A 
ATOM      4  C   UNL     1      -6.565   1.820  25.009  0.00  0.00    +0.020 A 
ATOM      5  C   UNL     1      -5.833   1.715  24.642  0.00  0.00    +0.023 A 
ATOM      6  C   UNL     1      -5.283   2.193  25.029  0.00  0.00    +0.114 A 
ENDBRANCH   7   6
BRANCH  25  27
ATOM     27  C   UNL     1      -2.941  -1.193  24.768  0.00  0.00    +0.154 A 
ATOM     28  C   UNL     1      -2.945  -1.511  25.529  0.00  0.00    +0.123 A 
ATOM     29  N   UNL     1      -3.277  -2.254  25.664  0.00  0.00    -0.239 NA
ATOM     30  C   UNL     1      -3.605  -2.679  25.037  0.00  0.00    +0.120 A 
ATOM     31  C   UNL     1      -3.600  -2.361  24.276  0.00  0.00    +0.120 A 
ATOM     32  N   UNL     1      -3.268  -1.618  24.141  0.00  0.00    -0.236 NA
ENDBRANCH  25  27
BRANCH  13  15
ATOM     15  C   UNL     1      -1.944   1.035  24.366  0.00  0.00    +0.262 C 
ATOM     16  O   UNL     1      -1.630   0.600  23.739  0.00  0.00    -0.271 OA
ATOM     17  N   UNL     1      -1.456   1.535  24.806  0.00  0.00    -0.196 NA
BRANCH  17  18
ATOM     18  C   UNL     1      -0.655   1.599  24.619  0.00  0.00    +0.173 C 
ATOM     19  C   UNL     1      -0.397   1.450  23.849  0.00  0.00    +0.033 C 
ATOM     20  C   UNL     1       0.404   1.514  23.662  0.00  0.00    +0.026 C 
ATOM     21  C   UNL     1       0.947   1.727  24.245  0.00  0.00    +0.115 C 
ATOM     22  N   UNL     1       0.690   1.877  25.015  0.00  0.00    -0.204 NA
ATOM     23  C   UNL     1      -0.112   1.813  25.202  0.00  0.00    +0.261 C 
ATOM     24  O   UNL     1      -0.369   1.962  25.971  0.00  0.00    -0.271 OA
ENDBRANCH  17  18
ENDBRANCH  13  15
TORSDOF 4
ENDMDL
MODEL 5
REMARK VINA RESULT:      -9.9      1.686      4.419
REMARK  Name = 
REMARK  4 active torsions:
REMARK  status: ('A' for Active; 'I' for Inactive)
REMARK    1  A    between atoms: C_6  and  C_7
REMARK    2  A    between atoms: C_13  and  C_15
REMARK    3  A    between atoms: N_17  and  C_18
REMARK    4  A    between atoms: C_25  and  C_27
REMARK                            x       y       z     vdW  Elec       q    Type
REMARK                         _______ _______ _______ _____ _____    ______ ____
ROOT
ATOM      7  C   UNL     1      -3.435  -0.842  25.108  0.00  0.00    +0.265 C 
ATOM      8  O   UNL     1      -4.041  -0.472  25.528  0.00  0.00    -0.268 OA
ATOM      9  N   UNL     1      -2.760  -0.417  24.896  0.00  0.00    -0.271 N 
ATOM     10  C   UNL     1      -2.155  -0.789  24.476  0.00  0.00    +0.115 C 
ATOM     11  C   UNL     1      -1.480  -0.364  24.264  0.00  0.00    +0.116 C 
ATOM     12  N   UNL     1      -1.410   0.431  24.473  0.00  0.00    -0.265 N 
ATOM     13  C   UNL     1      -2.016   0.801  24.893  0.00  0.00    +0.174 C 
ATOM     14  C   UNL     1      -2.691   0.377  25.105  0.00  0.00    +0.123 C 
ATOM     25  C   UNL     1      -0.735   0.856  24.262  0.00  0.00    +0.269 C 
ATOM     26  O   UNL     1      -0.665   1.651  24.470  0.00  0.00    -0.268 OA
ENDROOT
BRANCH   7   6
ATOM      1  C   UNL     1      -4.518  -1.509  23.842  0.00  0.00    +0.131 C 
ATOM      2  N   UNL     1      -4.003  -1.944  24.317  0.00  0.00    -0.320 N 
ATOM      3  C   UNL     1      -3.894  -2.762  24.294  0.00  0.00    +0.076 A 
ATOM      4  C   UNL     1      -3.329  -2.960  24.862  0.00  0.00    +0.020 A 
ATOM      5  C   UNL     1      -3.089  -2.266  25.235  0.00  0.00    +0.023 A 
ATOM      6  C   UNL     1      -3.505  -1.637  24.899  0.00  0.00    +0.114 A 
ENDBRANCH   7   6
BRANCH  25  27
ATOM     27  C   UNL     1      -0.130   0.486  23.841  0.00  0.00    +0.154 A 
ATOM     28  C   UNL     1      -0.016   0.660  23.043  0.00  0.00    +0.123 A 
ATOM     29  N   UNL     1       0.589   0.290  22.621  0.00  0.00    -0.239 NA
ATOM     30  C   UNL     1       1.082  -0.254  23.000  0.00  0.00    +0.120 A 
ATOM     31  C   UNL     1       0.968  -0.428  23.798  0.00  0.00    +0.120 A 
ATOM     32  N   UNL     1       0.363  -0.058  24.219  0.00  0.00    -0.236 NA
ENDBRANCH  25  27
BRANCH  13  15
ATOM     15  C   UNL     1      -1.945   1.597  25.102  0.00  0.00    +0.262 C 
ATOM     16  O   UNL     1      -1.277   1.858  25.508  0.00  0.00    -0.271 OA
ATOM     17  N   UNL     1      -2.543   2.130  24.904  0.00  0.00    -0.196 NA
BRANCH  17  18
ATOM     18  C   UNL     1      -2.471   2.926  25.113  0.00  0.00    +0.173 C 
ATOM     19  C   UNL     1      -2.060   3.137  25.796  0.00  0.00    +0.033 C 
ATOM     20  C   UNL     1      -1.988   3.933  26.005  0.00  0.00    +0.026 C 
ATOM     21  C   UNL     1      -2.329   4.515  25.530  0.00  0.00    +0.115 C 
ATOM     22  N   UNL     1      -2.741   4.304  24.848  0.00  0.00    -0.204 NA
ATOM     23  C   UNL     1      -2.812   3.508  24.639  0.00  0.00    +0.261 C 
ATOM     24  O   UNL     1      -3.224   3.296  23.956  0.00  0.00    -0.271 OA
ENDBRANCH  17  18
ENDBRANCH  13  15
TORSDOF 4
ENDMDL
MODEL 6
REMARK VINA RESULT:      -9.9      0.962      4.192
REMARK  Name = 
REMARK  4 active torsions:
REMARK  status: ('A' for Active; 'I' for Inactive)
REMARK    1  A    between atoms: C_6  and  C_7
REMARK    2  A    between atoms: C_13  and  C_15
REMARK    3  A    between atoms: N_17  and  C_18
REMARK    4  A    between atoms: C_25  and  C_27
REMARK                            x       y       z     vdW  Elec       q    Type
REMARK                         _______ _______ _______ _____ _____    ______ ____
ROOT
ATOM      7  C   UNL     1      -3.941  -0.924  24.683  0.00  0.00    +0.265 C 
ATOM      8  O   UNL     1      -4.765  -0.899  24.664  0.00  0.00    -0.268 OA
ATOM      9  N   UNL     1      -3.507  -0.222  24.714  0.00  0.00    -0.271 N 
ATOM     10  C   UNL     1      -2.683  -0.248  24.734  0.00  0.00    +0.115 C 
ATOM     11  C   UNL     1      -2.250   0.454  24.765  0.00  0.00    +0.116 C 
ATOM     12  N   UNL     1      -2.641   1.180  24.778  0.00  0.00    -0.265 N 
ATOM     13  C   UNL     1      -3.465   1.204  24.759  0.00  0.00    +0.174 C 
ATOM     14  C   UNL     1      -3.899   0.503  24.727  0.00  0.00    +0.123 C 
ATOM     25  C   UNL     1      -2.208   1.881  24.810  0.00  0.00    +0.269 C 
ATOM     26  O   UNL     1      -2.598   2.608  24.822  0.00  0.00    -0.268 OA
ENDROOT
BRANCH   7   6
ATOM      1  C   UNL     1      -4.261  -2.275  23.546  0.00  0.00    +0.131 C 
ATOM      2  N   UNL     1      -3.697  -2.271  24.148  0.00  0.00    -0.320 N 
ATOM      3  C   UNL     1      -3.180  -2.888  24.333  0.00  0.00    +0.076 A 
ATOM      4  C   UNL     1      -2.714  -2.648  24.970  0.00  0.00    +0.020 A 
ATOM      5  C   UNL     1      -2.942  -1.883  25.179  0.00  0.00    +0.023 A 
ATOM      6  C   UNL     1      -3.549  -1.650  24.670  0.00  0.00    +0.114 A 
ENDBRANCH   7   6
BRANCH  25  27
ATOM     27  C   UNL     1      -1.384   1.857  24.829  0.00  0.00    +0.154 A 
ATOM     28  C   UNL     1      -0.988   1.875  25.553  0.00  0.00    +0.123 A 
ATOM     29  N   UNL     1      -0.163   1.851  25.573  0.00  0.00    -0.239 NA
ATOM     30  C   UNL     1       0.265   1.809  24.868  0.00  0.00    +0.120 A 
ATOM     31  C   UNL     1      -0.131   1.791  24.145  0.00  0.00    +0.120 A 
ATOM     32  N   UNL     1      -0.955   1.815  24.125  0.00  0.00    -0.236 NA
ENDBRANCH  25  27
BRANCH  13  15
ATOM     15  C   UNL     1      -3.856   1.931  24.771  0.00  0.00    +0.262 C 
ATOM     16  O   UNL     1      -3.731   2.477  24.165  0.00  0.00    -0.271 OA
ATOM     17  N   UNL     1      -4.371   2.113  25.389  0.00  0.00    -0.196 NA
BRANCH  17  18
ATOM     18  C   UNL     1      -4.761   2.840  25.401  0.00  0.00    +0.173 C 
ATOM     19  C   UNL     1      -4.433   3.491  25.014  0.00  0.00    +0.033 C 
ATOM     20  C   UNL     1      -4.823   4.218  25.026  0.00  0.00    +0.026 C 
ATOM     21  C   UNL     1      -5.541   4.294  25.424  0.00  0.00    +0.115 C 
ATOM     22  N   UNL     1      -5.869   3.644  25.811  0.00  0.00    -0.204 NA
ATOM     23  C   UNL     1      -5.479   2.916  25.799  0.00  0.00    +0.261 C 
ATOM     24  O   UNL     1      -5.808   2.266  26.186  0.00  0.00    -0.271 OA
ENDBRANCH  17  18
ENDBRANCH  13  15
TORSDOF 4
ENDMDL
MODEL 7
REMARK VINA RESULT:      -9.7      1.123      4.542
REMARK  Name = 
REMARK  4 active torsions:
REMARK  status: ('A' for Active; 'I' for Inactive)
REMARK    1  A    between atoms: C_6  and  C_7
REMARK    2  A    between atoms: C_13  and  C_15
REMARK    3  A    between atoms: N_17  and  C_18
REMARK    4  A    between atoms: C_25  and  C_27
REMARK                            x       y       z     vdW  Elec       q    Type
REMARK                         _______ _______ _______ _____ _____    ______ ____
ROOT
ATOM      7  C   UNL     1      -1.151   1.636  24.009  0.00  0.00    +0.265 C 
ATOM      8  O   UNL     1      -1.230   2.456  23.954  0.00  0.00    -0.268 OA
ATOM      9  N   UNL     1      -1.805   1.171  24.202  0.00  0.00    -0.271 N 
ATOM     10  C   UNL     1      -1.725   0.352  24.258  0.00  0.00    +0.115 C 
ATOM     11  C   UNL     1      -2.378  -0.114  24.451  0.00  0.00    +0.116 C 
ATOM     12  N   UNL     1      -3.111   0.240  24.589  0.00  0.00    -0.265 N 
ATOM     13  C   UNL     1      -3.189   1.060  24.533  0.00  0.00    +0.174 C 
ATOM     14  C   UNL     1      -2.536   1.525  24.340  0.00  0.00    +0.123 C 
ATOM     25  C   UNL     1      -3.764  -0.225  24.782  0.00  0.00    +0.269 C 
ATOM     26  O   UNL     1      -4.497   0.128  24.920  0.00  0.00    -0.268 OA
ENDROOT
BRANCH   7   6
ATOM      1  C   UNL     1       0.388   2.039  24.840  0.00  0.00    +0.131 C 
ATOM      2  N   UNL     1       0.288   1.468  24.253  0.00  0.00    -0.320 N 
ATOM      3  C   UNL     1       0.880   0.981  23.945  0.00  0.00    +0.076 A 
ATOM      4  C   UNL     1       0.537   0.495  23.373  0.00  0.00    +0.020 A 
ATOM      5  C   UNL     1      -0.265   0.681  23.327  0.00  0.00    +0.023 A 
ATOM      6  C   UNL     1      -0.419   1.282  23.871  0.00  0.00    +0.114 A 
ENDBRANCH   7   6
BRANCH  25  27
ATOM     27  C   UNL     1      -3.685  -1.044  24.837  0.00  0.00    +0.154 A 
ATOM     28  C   UNL     1      -3.477  -1.391  25.557  0.00  0.00    +0.123 A 
ATOM     29  N   UNL     1      -3.398  -2.210  25.614  0.00  0.00    -0.239 NA
ATOM     30  C   UNL     1      -3.528  -2.683  24.949  0.00  0.00    +0.120 A 
ATOM     31  C   UNL     1      -3.735  -2.337  24.230  0.00  0.00    +0.120 A 
ATOM     32  N   UNL     1      -3.814  -1.518  24.174  0.00  0.00    -0.236 NA
ENDBRANCH  25  27
BRANCH  13  15
ATOM     15  C   UNL     1      -3.922   1.413  24.671  0.00  0.00    +0.262 C 
ATOM     16  O   UNL     1      -4.582   1.177  24.235  0.00  0.00    -0.271 OA
ATOM     17  N   UNL     1      -3.996   2.001  25.245  0.00  0.00    -0.196 NA
BRANCH  17  18
ATOM     18  C   UNL     1      -4.730   2.353  25.382  0.00  0.00    +0.173 C 
ATOM     19  C   UNL     1      -5.424   1.941  25.214  0.00  0.00    +0.033 C 
ATOM     20  C   UNL     1      -6.157   2.293  25.351  0.00  0.00    +0.026 C 
ATOM     21  C   UNL     1      -6.196   3.058  25.657  0.00  0.00    +0.115 C 
ATOM     22  N   UNL     1      -5.502   3.471  25.826  0.00  0.00    -0.204 NA
ATOM     23  C   UNL     1      -4.768   3.118  25.688  0.00  0.00    +0.261 C 
ATOM     24  O   UNL     1      -4.074   3.531  25.857  0.00  0.00    -0.271 OA
ENDBRANCH  17  18
ENDBRANCH  13  15
TORSDOF 4
ENDMDL
