MODEL 1
REMARK VINA RESULT:     -12.0      0.000      0.000
REMARK  Name = 
REMARK  6 active torsions:
REMARK  status: ('A' for Active; 'I' for Inactive)
REMARK    1  A    between atoms: C_2  and  C_3
REMARK    2  A    between atoms: C_2  and  C_25
REMARK    3  A    between atoms: C_10  and  N_11
REMARK    4  A    between atoms: C_12  and  C_14
REMARK    5  A    between atoms: N_27  and  C_28
REMARK    6  A    between atoms: C_28  and  C_29
REMARK                            x       y       z     vdW  Elec       q    Type
REMARK                         _______ _______ _______ _____ _____    ______ ____
ROOT
ATOM      3  C   UNL     1      -3.954   3.125  24.584  0.00  0.00    +0.039 C 
ATOM      4  C   UNL     1      -4.582   3.243  25.107  0.00  0.00    +0.003 C 
ATOM      5  C   UNL     1      -5.031   2.600  25.363  0.00  0.00    +0.000 C 
ATOM      6  C   UNL     1      -4.852   1.840  25.098  0.00  0.00    +0.002 C 
ATOM      7  C   UNL     1      -5.479   1.958  25.619  0.00  0.00    +0.000 C 
ATOM      8  C   UNL     1      -5.301   1.197  25.354  0.00  0.00    +0.002 C 
ATOM      9  C   UNL     1      -5.122   0.437  25.089  0.00  0.00    +0.022 C 
ATOM     10  C   UNL     1      -4.494   0.319  24.566  0.00  0.00    +0.096 C 
ATOM     20  C   UNL     1      -4.045   0.962  24.310  0.00  0.00    +0.022 C 
ATOM     21  C   UNL     1      -3.418   0.844  23.788  0.00  0.00    +0.002 C 
ATOM     22  C   UNL     1      -4.224   1.723  24.575  0.00  0.00    +0.032 C 
ATOM     23  C   UNL     1      -3.775   2.365  24.319  0.00  0.00    +0.152 C 
ATOM     24  O   UNL     1      -3.148   2.247  23.796  0.00  0.00    -0.223 OA
ENDROOT
BRANCH  10  11
ATOM     11  N   UNL     1      -4.316  -0.441  24.301  0.00  0.00    -0.202 NA
ATOM     12  C   UNL     1      -4.101  -1.027  24.840  0.00  0.00    +0.284 C 
ATOM     13  O   UNL     1      -4.064  -0.852  25.647  0.00  0.00    -0.267 OA
BRANCH  12  14
ATOM     14  C   UNL     1      -3.922  -1.788  24.575  0.00  0.00    +0.155 A 
ATOM     15  C   UNL     1      -3.333  -2.227  24.948  0.00  0.00    +0.123 A 
ATOM     16  N   UNL     1      -3.155  -2.988  24.683  0.00  0.00    -0.239 NA
ATOM     17  C   UNL     1      -3.567  -3.309  24.044  0.00  0.00    +0.120 A 
ATOM     18  C   UNL     1      -4.157  -2.869  23.671  0.00  0.00    +0.120 A 
ATOM     19  N   UNL     1      -4.335  -2.109  23.937  0.00  0.00    -0.236 NA
ENDBRANCH  12  14
ENDBRANCH  10  11
BRANCH   3   2
ATOM      1  C   UNL     1      -3.655   4.110  23.591  0.00  0.00    +0.010 C 
ATOM      2  C   UNL     1      -3.505   3.768  24.327  0.00  0.00    +0.081 C 
BRANCH   2  25
ATOM     25  C   UNL     1      -2.906   4.070  24.807  0.00  0.00    +0.241 C 
ATOM     26  O   UNL     1      -3.041   4.748  25.259  0.00  0.00    -0.273 OA
ATOM     27  N   UNL     1      -2.171   3.695  24.836  0.00  0.00    -0.201 NA
BRANCH  27  28
ATOM     28  C   UNL     1      -1.573   3.996  25.315  0.00  0.00    +0.143 C 
BRANCH  28  29
ATOM     29  C   UNL     1      -0.928   3.523  25.519  0.00  0.00    +0.019 A 
ATOM     30  C   UNL     1      -0.942   3.084  26.217  0.00  0.00    +0.001 A 
ATOM     31  C   UNL     1      -0.298   2.611  26.420  0.00  0.00    +0.020 A 
ATOM     32  C   UNL     1       0.361   2.576  25.924  0.00  0.00    +0.099 A 
ATOM     33  N   UNL     1       0.375   3.015  25.226  0.00  0.00    -0.243 NA
ATOM     34  C   UNL     1      -0.270   3.489  25.023  0.00  0.00    +0.096 A 
ENDBRANCH  28  29
ENDBRANCH  27  28
ENDBRANCH   2  25
ENDBRANCH   3   2
TORSDOF 6
ENDMDL
MODEL 2
REMARK VINA RESULT:     -11.0      3.145      4.961
REMARK  Name = 
REMARK  6 active torsions:
REMARK  status: ('A' for Active; 'I' for Inactive)
REMARK    1  A    between atoms: C_2  and  C_3
REMARK    2  A    between atoms: C_2  and  C_25
REMARK    3  A    between atoms: C_10  and  N_11
REMARK    4  A    between atoms: C_12  and  C_14
REMARK    5  A    between atoms: N_27  and  C_28
REMARK    6  A    between atoms: C_28  and  C_29
REMARK                            x       y       z     vdW  Elec       q    Type
REMARK                         _______ _______ _______ _____ _____    ______ ____
ROOT
ATOM      3  C   UNL     1      -0.046   0.694  23.998  0.00  0.00    +0.039 C 
ATOM      4  C   UNL     1       0.370   1.405  24.060  0.00  0.00    +0.003 C 
ATOM      5  C   UNL     1      -0.015   2.086  24.319  0.00  0.00    +0.000 C 
ATOM      6  C   UNL     1      -0.815   2.059  24.516  0.00  0.00    +0.002 C 
ATOM      7  C   UNL     1      -0.400   2.768  24.578  0.00  0.00    +0.000 C 
ATOM      8  C   UNL     1      -1.201   2.740  24.776  0.00  0.00    +0.002 C 
ATOM      9  C   UNL     1      -2.001   2.713  24.973  0.00  0.00    +0.022 C 
ATOM     10  C   UNL     1      -2.417   2.002  24.911  0.00  0.00    +0.096 C 
ATOM     20  C   UNL     1      -2.032   1.321  24.652  0.00  0.00    +0.022 C 
ATOM     21  C   UNL     1      -2.448   0.611  24.590  0.00  0.00    +0.002 C 
ATOM     22  C   UNL     1      -1.231   1.348  24.454  0.00  0.00    +0.032 C 
ATOM     23  C   UNL     1      -0.846   0.666  24.195  0.00  0.00    +0.152 C 
ATOM     24  O   UNL     1      -1.262  -0.044  24.133  0.00  0.00    -0.223 OA
ENDROOT
BRANCH  10  11
ATOM     11  N   UNL     1      -3.217   1.975  25.108  0.00  0.00    -0.202 NA
ATOM     12  C   UNL     1      -3.707   2.615  24.936  0.00  0.00    +0.284 C 
ATOM     13  O   UNL     1      -3.397   3.284  24.565  0.00  0.00    -0.267 OA
BRANCH  12  14
ATOM     14  C   UNL     1      -4.508   2.588  25.134  0.00  0.00    +0.155 A 
ATOM     15  C   UNL     1      -4.795   3.042  25.759  0.00  0.00    +0.123 A 
ATOM     16  N   UNL     1      -5.596   3.015  25.956  0.00  0.00    -0.239 NA
ATOM     17  C   UNL     1      -6.109   2.533  25.528  0.00  0.00    +0.120 A 
ATOM     18  C   UNL     1      -5.823   2.077  24.901  0.00  0.00    +0.120 A 
ATOM     19  N   UNL     1      -5.022   2.106  24.705  0.00  0.00    -0.236 NA
ENDBRANCH  12  14
ENDBRANCH  10  11
BRANCH   3   2
ATOM      1  C   UNL     1       0.198  -0.711  24.111  0.00  0.00    +0.010 C 
ATOM      2  C   UNL     1       0.339   0.012  23.739  0.00  0.00    +0.081 C 
BRANCH   2  25
ATOM     25  C   UNL     1       0.867   0.053  23.106  0.00  0.00    +0.241 C 
ATOM     26  O   UNL     1       0.582   0.090  22.332  0.00  0.00    -0.273 OA
ATOM     27  N   UNL     1       1.681   0.057  23.247  0.00  0.00    -0.201 NA
BRANCH  27  28
ATOM     28  C   UNL     1       2.208   0.097  22.615  0.00  0.00    +0.143 C 
BRANCH  28  29
ATOM     29  C   UNL     1       3.016   0.185  22.756  0.00  0.00    +0.019 A 
ATOM     30  C   UNL     1       3.387   0.905  22.600  0.00  0.00    +0.001 A 
ATOM     31  C   UNL     1       4.194   0.992  22.742  0.00  0.00    +0.020 A 
ATOM     32  C   UNL     1       4.632   0.360  23.039  0.00  0.00    +0.099 A 
ATOM     33  N   UNL     1       4.261  -0.361  23.195  0.00  0.00    -0.243 NA
ATOM     34  C   UNL     1       3.453  -0.448  23.053  0.00  0.00    +0.096 A 
ENDBRANCH  28  29
ENDBRANCH  27  28
ENDBRANCH   2  25
ENDBRANCH   3   2
TORSDOF 6
ENDMDL
MODEL 3
REMARK VINA RESULT:     -10.7      1.377      5.002
REMARK  Name = 
REMARK  6 active torsions:
REMARK  status: ('A' for Active; 'I' for Inactive)
REMARK    1  A    between atoms: C_2  and  C_3
REMARK    2  A    between atoms: C_2  and  C_25
REMARK    3  A    between atoms: C_10  and  N_11
REMARK    4  A    between atoms: C_12  and  C_14
REMARK    5  A    between atoms: N_27  and  C_28
REMARK    6  A    between atoms: C_28  and  C_29
REMARK                            x       y       z     vdW  Elec       q    Type
REMARK                         _______ _______ _______ _____ _____    ______ ____
ROOT
ATOM      3  C   UNL     1      -4.301   0.302  24.544  0.00  0.00    +0.039 C 
ATOM      4  C   UNL     1      -4.984   0.484  24.972  0.00  0.00    +0.003 C 
ATOM      5  C   UNL     1      -5.103   1.250  25.252  0.00  0.00    +0.000 C 
ATOM      6  C   UNL     1      -4.541   1.835  25.104  0.00  0.00    +0.002 C 
ATOM      7  C   UNL     1      -5.221   2.017  25.531  0.00  0.00    +0.000 C 
ATOM      8  C   UNL     1      -4.659   2.602  25.384  0.00  0.00    +0.002 C 
ATOM      9  C   UNL     1      -4.097   3.187  25.236  0.00  0.00    +0.022 C 
ATOM     10  C   UNL     1      -3.415   3.005  24.808  0.00  0.00    +0.096 C 
ATOM     20  C   UNL     1      -3.296   2.239  24.528  0.00  0.00    +0.022 C 
ATOM     21  C   UNL     1      -2.614   2.057  24.101  0.00  0.00    +0.002 C 
ATOM     22  C   UNL     1      -3.858   1.653  24.676  0.00  0.00    +0.032 C 
ATOM     23  C   UNL     1      -3.739   0.887  24.396  0.00  0.00    +0.152 C 
ATOM     24  O   UNL     1      -3.058   0.705  23.969  0.00  0.00    -0.223 OA
ENDROOT
BRANCH  10  11
ATOM     11  N   UNL     1      -2.852   3.591  24.661  0.00  0.00    -0.202 NA
ATOM     12  C   UNL     1      -2.471   3.964  25.289  0.00  0.00    +0.284 C 
ATOM     13  O   UNL     1      -2.651   3.753  26.066  0.00  0.00    -0.267 OA
BRANCH  12  14
ATOM     14  C   UNL     1      -1.908   4.550  25.141  0.00  0.00    +0.155 A 
ATOM     15  C   UNL     1      -2.124   5.345  25.168  0.00  0.00    +0.123 A 
ATOM     16  N   UNL     1      -1.561   5.931  25.021  0.00  0.00    -0.239 NA
ATOM     17  C   UNL     1      -0.783   5.720  24.846  0.00  0.00    +0.120 A 
ATOM     18  C   UNL     1      -0.567   4.924  24.819  0.00  0.00    +0.120 A 
ATOM     19  N   UNL     1      -1.130   4.339  24.966  0.00  0.00    -0.236 NA
ENDBRANCH  12  14
ENDBRANCH  10  11
BRANCH   3   2
ATOM      1  C   UNL     1      -4.419  -0.668  23.500  0.00  0.00    +0.010 C 
ATOM      2  C   UNL     1      -4.183  -0.465  24.264  0.00  0.00    +0.081 C 
BRANCH   2  25
ATOM     25  C   UNL     1      -3.828  -1.030  24.749  0.00  0.00    +0.241 C 
ATOM     26  O   UNL     1      -4.253  -1.365  25.373  0.00  0.00    -0.273 OA
ATOM     27  N   UNL     1      -3.047  -1.261  24.611  0.00  0.00    -0.201 NA
BRANCH  27  28
ATOM     28  C   UNL     1      -2.693  -1.825  25.096  0.00  0.00    +0.143 C 
BRANCH  28  29
ATOM     29  C   UNL     1      -1.873  -1.918  25.091  0.00  0.00    +0.019 A 
ATOM     30  C   UNL     1      -1.401  -1.443  25.573  0.00  0.00    +0.001 A 
ATOM     31  C   UNL     1      -0.582  -1.535  25.567  0.00  0.00    +0.020 A 
ATOM     32  C   UNL     1      -0.233  -2.103  25.080  0.00  0.00    +0.099 A 
ATOM     33  N   UNL     1      -0.705  -2.578  24.598  0.00  0.00    -0.243 NA
ATOM     34  C   UNL     1      -1.526  -2.485  24.603  0.00  0.00    +0.096 A 
ENDBRANCH  28  29
ENDBRANCH  27  28
ENDBRANCH   2  25
ENDBRANCH   3   2
TORSDOF 6
ENDMDL
MODEL 4
REMARK VINA RESULT:     -10.6      2.643      4.733
REMARK  Name = 
REMARK  6 active torsions:
REMARK  status: ('A' for Active; 'I' for Inactive)
REMARK    1  A    between atoms: C_2  and  C_3
REMARK    2  A    between atoms: C_2  and  C_25
REMARK    3  A    between atoms: C_10  and  N_11
REMARK    4  A    between atoms: C_12  and  C_14
REMARK    5  A    between atoms: N_27  and  C_28
REMARK    6  A    between atoms: C_28  and  C_29
REMARK                            x       y       z     vdW  Elec       q    Type
REMARK                         _______ _______ _______ _____ _____    ______ ____
ROOT
ATOM      3  C   UNL     1      -3.367  -0.047  24.751  0.00  0.00    +0.039 C 
ATOM      4  C   UNL     1      -3.265  -0.591  25.364  0.00  0.00    +0.003 C 
ATOM      5  C   UNL     1      -2.508  -0.853  25.560  0.00  0.00    +0.000 C 
ATOM      6  C   UNL     1      -1.854  -0.573  25.144  0.00  0.00    +0.002 C 
ATOM      7  C   UNL     1      -1.751  -1.115  25.757  0.00  0.00    +0.000 C 
ATOM      8  C   UNL     1      -1.096  -0.835  25.340  0.00  0.00    +0.002 C 
ATOM      9  C   UNL     1      -0.442  -0.555  24.924  0.00  0.00    +0.022 C 
ATOM     10  C   UNL     1      -0.544  -0.012  24.310  0.00  0.00    +0.096 C 
ATOM     20  C   UNL     1      -1.301   0.250  24.114  0.00  0.00    +0.022 C 
ATOM     21  C   UNL     1      -1.403   0.793  23.501  0.00  0.00    +0.002 C 
ATOM     22  C   UNL     1      -1.956  -0.030  24.531  0.00  0.00    +0.032 C 
ATOM     23  C   UNL     1      -2.713   0.232  24.335  0.00  0.00    +0.152 C 
ATOM     24  O   UNL     1      -2.815   0.775  23.722  0.00  0.00    -0.223 OA
ENDROOT
BRANCH  10  11
ATOM     11  N   UNL     1       0.111   0.268  23.894  0.00  0.00    -0.202 NA
ATOM     12  C   UNL     1       0.687  -0.259  23.628  0.00  0.00    +0.284 C 
ATOM     13  O   UNL     1       0.608  -1.067  23.778  0.00  0.00    -0.267 OA
BRANCH  12  14
ATOM     14  C   UNL     1       1.342   0.021  23.212  0.00  0.00    +0.155 A 
ATOM     15  C   UNL     1       1.562  -0.333  22.501  0.00  0.00    +0.123 A 
ATOM     16  N   UNL     1       2.217  -0.053  22.084  0.00  0.00    -0.239 NA
ATOM     17  C   UNL     1       2.652   0.582  22.380  0.00  0.00    +0.120 A 
ATOM     18  C   UNL     1       2.433   0.937  23.093  0.00  0.00    +0.120 A 
ATOM     19  N   UNL     1       1.777   0.656  23.508  0.00  0.00    -0.236 NA
ENDBRANCH  12  14
ENDBRANCH  10  11
BRANCH   3   2
ATOM      1  C   UNL     1      -4.438   0.053  23.809  0.00  0.00    +0.010 C 
ATOM      2  C   UNL     1      -4.125   0.215  24.555  0.00  0.00    +0.081 C 
BRANCH   2  25
ATOM     25  C   UNL     1      -4.569   0.639  25.105  0.00  0.00    +0.241 C 
ATOM     26  O   UNL     1      -4.954   0.242  25.719  0.00  0.00    -0.273 OA
ATOM     27  N   UNL     1      -4.629   1.460  25.044  0.00  0.00    -0.201 NA
BRANCH  27  28
ATOM     28  C   UNL     1      -5.073   1.883  25.594  0.00  0.00    +0.143 C 
BRANCH  28  29
ATOM     29  C   UNL     1      -5.069   2.708  25.581  0.00  0.00    +0.019 A 
ATOM     30  C   UNL     1      -4.354   3.116  25.528  0.00  0.00    +0.001 A 
ATOM     31  C   UNL     1      -4.350   3.941  25.516  0.00  0.00    +0.020 A 
ATOM     32  C   UNL     1      -5.061   4.358  25.556  0.00  0.00    +0.099 A 
ATOM     33  N   UNL     1      -5.776   3.949  25.609  0.00  0.00    -0.243 NA
ATOM     34  C   UNL     1      -5.780   3.124  25.622  0.00  0.00    +0.096 A 
ENDBRANCH  28  29
ENDBRANCH  27  28
ENDBRANCH   2  25
ENDBRANCH   3   2
TORSDOF 6
ENDMDL
MODEL 5
REMARK VINA RESULT:     -10.5      2.881      5.129
REMARK  Name = 
REMARK  6 active torsions:
REMARK  status: ('A' for Active; 'I' for Inactive)
REMARK    1  A    between atoms: C_2  and  C_3
REMARK    2  A    between atoms: C_2  and  C_25
REMARK    3  A    between atoms: C_10  and  N_11
REMARK    4  A    between atoms: C_12  and  C_14
REMARK    5  A    between atoms: N_27  and  C_28
REMARK    6  A    between atoms: C_28  and  C_29
REMARK                            x       y       z     vdW  Elec       q    Type
REMARK                         _______ _______ _______ _____ _____    ______ ____
ROOT
ATOM      3  C   UNL     1      -1.781   2.245  25.043  0.00  0.00    +0.039 C 
ATOM      4  C   UNL     1      -2.132   1.509  25.177  0.00  0.00    +0.003 C 
ATOM      5  C   UNL     1      -1.731   0.819  24.974  0.00  0.00    +0.000 C 
ATOM      6  C   UNL     1      -0.980   0.861  24.638  0.00  0.00    +0.002 C 
ATOM      7  C   UNL     1      -1.330   0.128  24.771  0.00  0.00    +0.000 C 
ATOM      8  C   UNL     1      -0.578   0.170  24.434  0.00  0.00    +0.002 C 
ATOM      9  C   UNL     1       0.174   0.213  24.098  0.00  0.00    +0.022 C 
ATOM     10  C   UNL     1       0.525   0.949  23.964  0.00  0.00    +0.096 C 
ATOM     20  C   UNL     1       0.124   1.639  24.167  0.00  0.00    +0.022 C 
ATOM     21  C   UNL     1       0.474   2.374  24.034  0.00  0.00    +0.002 C 
ATOM     22  C   UNL     1      -0.629   1.597  24.504  0.00  0.00    +0.032 C 
ATOM     23  C   UNL     1      -1.030   2.288  24.707  0.00  0.00    +0.152 C 
ATOM     24  O   UNL     1      -0.679   3.023  24.574  0.00  0.00    -0.223 OA
ENDROOT
BRANCH  10  11
ATOM     11  N   UNL     1       1.277   0.991  23.627  0.00  0.00    -0.202 NA
ATOM     12  C   UNL     1       1.555   0.373  23.159  0.00  0.00    +0.284 C 
ATOM     13  O   UNL     1       1.081  -0.290  23.026  0.00  0.00    -0.267 OA
BRANCH  12  14
ATOM     14  C   UNL     1       2.307   0.415  22.822  0.00  0.00    +0.155 A 
ATOM     15  C   UNL     1       2.448   0.081  22.081  0.00  0.00    +0.123 A 
ATOM     16  N   UNL     1       3.200   0.124  21.745  0.00  0.00    -0.239 NA
ATOM     17  C   UNL     1       3.812   0.501  22.150  0.00  0.00    +0.120 A 
ATOM     18  C   UNL     1       3.672   0.835  22.892  0.00  0.00    +0.120 A 
ATOM     19  N   UNL     1       2.919   0.792  23.227  0.00  0.00    -0.236 NA
ENDBRANCH  12  14
ENDBRANCH  10  11
BRANCH   3   2
ATOM      1  C   UNL     1      -1.866   3.448  25.812  0.00  0.00    +0.010 C 
ATOM      2  C   UNL     1      -2.183   2.936  25.247  0.00  0.00    +0.081 C 
BRANCH   2  25
ATOM     25  C   UNL     1      -2.902   3.117  24.885  0.00  0.00    +0.241 C 
ATOM     26  O   UNL     1      -2.912   3.489  24.148  0.00  0.00    -0.273 OA
ATOM     27  N   UNL     1      -3.612   2.925  25.260  0.00  0.00    -0.201 NA
BRANCH  27  28
ATOM     28  C   UNL     1      -4.331   3.105  24.898  0.00  0.00    +0.143 C 
BRANCH  28  29
ATOM     29  C   UNL     1      -5.031   2.777  25.186  0.00  0.00    +0.019 A 
ATOM     30  C   UNL     1      -5.380   2.139  24.795  0.00  0.00    +0.001 A 
ATOM     31  C   UNL     1      -6.080   1.813  25.083  0.00  0.00    +0.020 A 
ATOM     32  C   UNL     1      -6.432   2.123  25.761  0.00  0.00    +0.099 A 
ATOM     33  N   UNL     1      -6.084   2.760  26.152  0.00  0.00    -0.243 NA
ATOM     34  C   UNL     1      -5.383   3.088  25.864  0.00  0.00    +0.096 A 
ENDBRANCH  28  29
ENDBRANCH  27  28
ENDBRANCH   2  25
ENDBRANCH   3   2
TORSDOF 6
ENDMDL
MODEL 6
REMARK VINA RESULT:     -10.4      2.633      4.634
REMARK  Name = 
REMARK  6 active torsions:
REMARK  status: ('A' for Active; 'I' for Inactive)
REMARK    1  A    between atoms: C_2  and  C_3
REMARK    2  A    between atoms: C_2  and  C_25
REMARK    3  A    between atoms: C_10  and  N_11
REMARK    4  A    between atoms: C_12  and  C_14
REMARK    5  A    between atoms: N_27  and  C_28
REMARK    6  A    between atoms: C_28  and  C_29
REMARK                            x       y       z     vdW  Elec       q    Type
REMARK                         _______ _______ _______ _____ _____    ______ ____
ROOT
ATOM      3  C   UNL     1      -1.694  -1.045  24.676  0.00  0.00    +0.039 C 
ATOM      4  C   UNL     1      -2.214  -1.640  24.436  0.00  0.00    +0.003 C 
ATOM      5  C   UNL     1      -3.026  -1.501  24.434  0.00  0.00    +0.000 C 
ATOM      6  C   UNL     1      -3.320  -0.768  24.671  0.00  0.00    +0.002 C 
ATOM      7  C   UNL     1      -3.839  -1.362  24.432  0.00  0.00    +0.000 C 
ATOM      8  C   UNL     1      -4.133  -0.628  24.670  0.00  0.00    +0.002 C 
ATOM      9  C   UNL     1      -4.427   0.104  24.907  0.00  0.00    +0.022 C 
ATOM     10  C   UNL     1      -3.906   0.699  25.148  0.00  0.00    +0.096 C 
ATOM     20  C   UNL     1      -3.094   0.560  25.150  0.00  0.00    +0.022 C 
ATOM     21  C   UNL     1      -2.574   1.154  25.390  0.00  0.00    +0.002 C 
ATOM     22  C   UNL     1      -2.800  -0.173  24.912  0.00  0.00    +0.032 C 
ATOM     23  C   UNL     1      -1.987  -0.313  24.914  0.00  0.00    +0.152 C 
ATOM     24  O   UNL     1      -1.468   0.282  25.154  0.00  0.00    -0.223 OA
ENDROOT
BRANCH  10  11
ATOM     11  N   UNL     1      -4.201   1.432  25.386  0.00  0.00    -0.202 NA
ATOM     12  C   UNL     1      -4.809   1.791  24.960  0.00  0.00    +0.284 C 
ATOM     13  O   UNL     1      -5.124   1.416  24.295  0.00  0.00    -0.267 OA
BRANCH  12  14
ATOM     14  C   UNL     1      -5.103   2.524  25.198  0.00  0.00    +0.155 A 
ATOM     15  C   UNL     1      -5.744   2.564  25.715  0.00  0.00    +0.123 A 
ATOM     16  N   UNL     1      -6.038   3.297  25.953  0.00  0.00    -0.239 NA
ATOM     17  C   UNL     1      -5.691   3.991  25.673  0.00  0.00    +0.120 A 
ATOM     18  C   UNL     1      -5.049   3.952  25.155  0.00  0.00    +0.120 A 
ATOM     19  N   UNL     1      -4.756   3.218  24.918  0.00  0.00    -0.236 NA
ENDBRANCH  12  14
ENDBRANCH  10  11
BRANCH   3   2
ATOM      1  C   UNL     1      -0.492  -1.360  25.384  0.00  0.00    +0.010 C 
ATOM      2  C   UNL     1      -0.880  -1.185  24.678  0.00  0.00    +0.081 C 
BRANCH   2  25
ATOM     25  C   UNL     1      -0.455  -1.150  23.972  0.00  0.00    +0.241 C 
ATOM     26  O   UNL     1      -0.606  -1.695  23.370  0.00  0.00    -0.273 OA
ATOM     27  N   UNL     1       0.123  -0.569  23.866  0.00  0.00    -0.201 NA
BRANCH  27  28
ATOM     28  C   UNL     1       0.548  -0.533  23.161  0.00  0.00    +0.143 C 
BRANCH  28  29
ATOM     29  C   UNL     1       1.216  -0.054  23.106  0.00  0.00    +0.019 A 
ATOM     30  C   UNL     1       1.878  -0.314  22.688  0.00  0.00    +0.001 A 
ATOM     31  C   UNL     1       2.546   0.166  22.633  0.00  0.00    +0.020 A 
ATOM     32  C   UNL     1       2.553   0.907  22.996  0.00  0.00    +0.099 A 
ATOM     33  N   UNL     1       1.892   1.167  23.415  0.00  0.00    -0.243 NA
ATOM     34  C   UNL     1       1.223   0.687  23.470  0.00  0.00    +0.096 A 
ENDBRANCH  28  29
ENDBRANCH  27  28
ENDBRANCH   2  25
ENDBRANCH   3   2
TORSDOF 6
ENDMDL
MODEL 7
REMARK VINA RESULT:     -10.2      2.227      4.840
REMARK  Name = 
REMARK  6 active torsions:
REMARK  status: ('A' for Active; 'I' for Inactive)
REMARK    1  A    between atoms: C_2  and  C_3
REMARK    2  A    between atoms: C_2  and  C_25
REMARK    3  A    between atoms: C_10  and  N_11
REMARK    4  A    between atoms: C_12  and  C_14
REMARK    5  A    between atoms: N_27  and  C_28
REMARK    6  A    between atoms: C_28  and  C_29
REMARK                            x       y       z     vdW  Elec       q    Type
REMARK                         _______ _______ _______ _____ _____    ______ ____
ROOT
ATOM      3  C   UNL     1      -2.810   2.461  24.633  0.00  0.00    +0.039 C 
ATOM      4  C   UNL     1      -2.627   2.810  25.359  0.00  0.00    +0.003 C 
ATOM      5  C   UNL     1      -1.841   2.880  25.595  0.00  0.00    +0.000 C 
ATOM      6  C   UNL     1      -1.237   2.603  25.107  0.00  0.00    +0.002 C 
ATOM      7  C   UNL     1      -1.054   2.951  25.831  0.00  0.00    +0.000 C 
ATOM      8  C   UNL     1      -0.449   2.673  25.343  0.00  0.00    +0.002 C 
ATOM      9  C   UNL     1       0.155   2.396  24.856  0.00  0.00    +0.022 C 
ATOM     10  C   UNL     1      -0.028   2.047  24.130  0.00  0.00    +0.096 C 
ATOM     20  C   UNL     1      -0.815   1.976  23.893  0.00  0.00    +0.022 C 
ATOM     21  C   UNL     1      -0.998   1.627  23.168  0.00  0.00    +0.002 C 
ATOM     22  C   UNL     1      -1.420   2.254  24.381  0.00  0.00    +0.032 C 
ATOM     23  C   UNL     1      -2.206   2.183  24.145  0.00  0.00    +0.152 C 
ATOM     24  O   UNL     1      -2.389   1.834  23.420  0.00  0.00    -0.223 OA
ENDROOT
BRANCH  10  11
ATOM     11  N   UNL     1       0.576   1.769  23.642  0.00  0.00    -0.202 NA
ATOM     12  C   UNL     1       1.038   1.129  23.880  0.00  0.00    +0.284 C 
ATOM     13  O   UNL     1       0.896   0.766  24.608  0.00  0.00    -0.267 OA
BRANCH  12  14
ATOM     14  C   UNL     1       1.643   0.852  23.392  0.00  0.00    +0.155 A 
ATOM     15  C   UNL     1       1.516   0.196  22.910  0.00  0.00    +0.123 A 
ATOM     16  N   UNL     1       2.121  -0.082  22.422  0.00  0.00    -0.239 NA
ATOM     17  C   UNL     1       2.853   0.297  22.417  0.00  0.00    +0.120 A 
ATOM     18  C   UNL     1       2.981   0.954  22.901  0.00  0.00    +0.120 A 
ATOM     19  N   UNL     1       2.376   1.231  23.388  0.00  0.00    -0.236 NA
ENDBRANCH  12  14
ENDBRANCH  10  11
BRANCH   3   2
ATOM      1  C   UNL     1      -3.904   2.896  23.822  0.00  0.00    +0.010 C 
ATOM      2  C   UNL     1      -3.598   2.390  24.396  0.00  0.00    +0.081 C 
BRANCH   2  25
ATOM     25  C   UNL     1      -4.079   1.812  24.736  0.00  0.00    +0.241 C 
ATOM     26  O   UNL     1      -4.665   2.028  25.276  0.00  0.00    -0.273 OA
ATOM     27  N   UNL     1      -3.976   1.018  24.535  0.00  0.00    -0.201 NA
BRANCH  27  28
ATOM     28  C   UNL     1      -4.457   0.441  24.874  0.00  0.00    +0.143 C 
BRANCH  28  29
ATOM     29  C   UNL     1      -4.257  -0.356  24.804  0.00  0.00    +0.019 A 
ATOM     30  C   UNL     1      -3.840  -0.732  25.408  0.00  0.00    +0.001 A 
ATOM     31  C   UNL     1      -3.641  -1.529  25.337  0.00  0.00    +0.020 A 
ATOM     32  C   UNL     1      -3.859  -1.951  24.662  0.00  0.00    +0.099 A 
ATOM     33  N   UNL     1      -4.276  -1.575  24.058  0.00  0.00    -0.243 NA
ATOM     34  C   UNL     1      -4.475  -0.777  24.128  0.00  0.00    +0.096 A 
ENDBRANCH  28  29
ENDBRANCH  27  28
ENDBRANCH   2  25
ENDBRANCH   3   2
TORSDOF 6
ENDMDL
MODEL 8
REMARK VINA RESULT:     -10.1      1.982      5.210
REMARK  Name = 
REMARK  6 active torsions:
REMARK  status: ('A' for Active; 'I' for Inactive)
REMARK    1  A    between atoms: C_2  and  C_3
REMARK    2  A    between atoms: C_2  and  C_25
REMARK    3  A    between atoms: C_10  and  N_11
REMARK    4  A    between atoms: C_12  and  C_14
REMARK    5  A    between atoms: N_27  and  C_28
REMARK    6  A    between atoms: C_28  and  C_29
REMARK                            x       y       z     vdW  Elec       q    Type
REMARK                         _______ _______ _______ _____ _____    ______ ____
ROOT
ATOM      3  C   UNL     1      -0.658   0.919  24.454  0.00  0.00    +0.039 C 
ATOM      4  C   UNL     1      -0.114   1.266  24.970  0.00  0.00    +0.003 C 
ATOM      5  C   UNL     1      -0.323   1.941  25.395  0.00  0.00    +0.000 C 
ATOM      6  C   UNL     1      -1.074   2.269  25.306  0.00  0.00    +0.002 C 
ATOM      7  C   UNL     1      -0.531   2.615  25.820  0.00  0.00    +0.000 C 
ATOM      8  C   UNL     1      -1.283   2.944  25.732  0.00  0.00    +0.002 C 
ATOM      9  C   UNL     1      -2.034   3.272  25.643  0.00  0.00    +0.022 C 
ATOM     10  C   UNL     1      -2.578   2.925  25.127  0.00  0.00    +0.096 C 
ATOM     20  C   UNL     1      -2.369   2.250  24.702  0.00  0.00    +0.022 C 
ATOM     21  C   UNL     1      -2.913   1.903  24.187  0.00  0.00    +0.002 C 
ATOM     22  C   UNL     1      -1.618   1.921  24.791  0.00  0.00    +0.032 C 
ATOM     23  C   UNL     1      -1.409   1.247  24.365  0.00  0.00    +0.152 C 
ATOM     24  O   UNL     1      -1.952   0.900  23.851  0.00  0.00    -0.223 OA
ENDROOT
BRANCH  10  11
ATOM     11  N   UNL     1      -3.329   3.254  25.039  0.00  0.00    -0.202 NA
ATOM     12  C   UNL     1      -3.789   3.420  25.703  0.00  0.00    +0.284 C 
ATOM     13  O   UNL     1      -3.496   3.257  26.458  0.00  0.00    -0.267 OA
BRANCH  12  14
ATOM     14  C   UNL     1      -4.540   3.748  25.614  0.00  0.00    +0.155 A 
ATOM     15  C   UNL     1      -5.209   3.311  25.817  0.00  0.00    +0.123 A 
ATOM     16  N   UNL     1      -5.960   3.640  25.729  0.00  0.00    -0.239 NA
ATOM     17  C   UNL     1      -6.043   4.407  25.436  0.00  0.00    +0.120 A 
ATOM     18  C   UNL     1      -5.373   4.845  25.232  0.00  0.00    +0.120 A 
ATOM     19  N   UNL     1      -4.622   4.515  25.322  0.00  0.00    -0.236 NA
ENDBRANCH  12  14
ENDBRANCH  10  11
BRANCH   3   2
ATOM      1  C   UNL     1      -0.185   0.310  23.250  0.00  0.00    +0.010 C 
ATOM      2  C   UNL     1      -0.449   0.243  24.029  0.00  0.00    +0.081 C 
BRANCH   2  25
ATOM     25  C   UNL     1      -0.505  -0.500  24.383  0.00  0.00    +0.241 C 
ATOM     26  O   UNL     1       0.155  -0.832  24.752  0.00  0.00    -0.273 OA
ATOM     27  N   UNL     1      -1.220  -0.912  24.367  0.00  0.00    -0.201 NA
BRANCH  27  28
ATOM     28  C   UNL     1      -1.275  -1.655  24.721  0.00  0.00    +0.143 C 
BRANCH  28  29
ATOM     29  C   UNL     1      -2.005  -2.038  24.765  0.00  0.00    +0.019 A 
ATOM     30  C   UNL     1      -2.550  -1.822  25.345  0.00  0.00    +0.001 A 
ATOM     31  C   UNL     1      -3.278  -2.205  25.389  0.00  0.00    +0.020 A 
ATOM     32  C   UNL     1      -3.463  -2.804  24.853  0.00  0.00    +0.099 A 
ATOM     33  N   UNL     1      -2.918  -3.020  24.272  0.00  0.00    -0.243 NA
ATOM     34  C   UNL     1      -2.188  -2.637  24.228  0.00  0.00    +0.096 A 
ENDBRANCH  28  29
ENDBRANCH  27  28
ENDBRANCH   2  25
ENDBRANCH   3   2
TORSDOF 6
ENDMDL
MODEL 9
REMARK VINA RESULT:     -10.0      2.165      6.185
REMARK  Name = 
REMARK  6 active torsions:
REMARK  status: ('A' for Active; 'I' for Inactive)
REMARK    1  A    between atoms: C_2  and  C_3
REMARK    2  A    between atoms: C_2  and  C_25
REMARK    3  A    between atoms: C_10  and  N_11
REMARK    4  A    between atoms: C_12  and  C_14
REMARK    5  A    between atoms: N_27  and  C_28
REMARK    6  A    between atoms: C_28  and  C_29
REMARK                            x       y       z     vdW  Elec       q    Type
REMARK                         _______ _______ _______ _____ _____    ______ ____
ROOT
ATOM      3  C   UNL     1      -0.507  -0.929  24.849  0.00  0.00    +0.039 C 
ATOM      4  C   UNL     1      -0.080  -1.001  24.146  0.00  0.00    +0.003 C 
ATOM      5  C   UNL     1       0.155  -0.326  23.736  0.00  0.00    +0.000 C 
ATOM      6  C   UNL     1      -0.037   0.421  24.026  0.00  0.00    +0.002 C 
ATOM      7  C   UNL     1       0.390   0.349  23.325  0.00  0.00    +0.000 C 
ATOM      8  C   UNL     1       0.198   1.097  23.615  0.00  0.00    +0.002 C 
ATOM      9  C   UNL     1       0.005   1.845  23.906  0.00  0.00    +0.022 C 
ATOM     10  C   UNL     1      -0.422   1.917  24.609  0.00  0.00    +0.096 C 
ATOM     20  C   UNL     1      -0.657   1.241  25.020  0.00  0.00    +0.022 C 
ATOM     21  C   UNL     1      -1.084   1.313  25.722  0.00  0.00    +0.002 C 
ATOM     22  C   UNL     1      -0.465   0.493  24.729  0.00  0.00    +0.032 C 
ATOM     23  C   UNL     1      -0.700  -0.182  25.140  0.00  0.00    +0.152 C 
ATOM     24  O   UNL     1      -1.127  -0.110  25.842  0.00  0.00    -0.223 OA
ENDROOT
BRANCH  10  11
ATOM     11  N   UNL     1      -0.614   2.665  24.899  0.00  0.00    -0.202 NA
ATOM     12  C   UNL     1      -1.021   3.201  24.423  0.00  0.00    +0.284 C 
ATOM     13  O   UNL     1      -1.236   2.990  23.654  0.00  0.00    -0.267 OA
BRANCH  12  14
ATOM     14  C   UNL     1      -1.213   3.949  24.714  0.00  0.00    +0.155 A 
ATOM     15  C   UNL     1      -0.660   4.560  24.678  0.00  0.00    +0.123 A 
ATOM     16  N   UNL     1      -0.852   5.308  24.969  0.00  0.00    -0.239 NA
ATOM     17  C   UNL     1      -1.598   5.445  25.295  0.00  0.00    +0.120 A 
ATOM     18  C   UNL     1      -2.151   4.833  25.330  0.00  0.00    +0.120 A 
ATOM     19  N   UNL     1      -1.958   4.086  25.039  0.00  0.00    -0.236 NA
ENDBRANCH  12  14
ENDBRANCH  10  11
BRANCH   3   2
ATOM      1  C   UNL     1      -0.459  -1.745  26.022  0.00  0.00    +0.010 C 
ATOM      2  C   UNL     1      -0.742  -1.605  25.260  0.00  0.00    +0.081 C 
BRANCH   2  25
ATOM     25  C   UNL     1      -1.261  -2.142  24.908  0.00  0.00    +0.241 C 
ATOM     26  O   UNL     1      -0.967  -2.825  24.548  0.00  0.00    -0.273 OA
ATOM     27  N   UNL     1      -2.073  -1.996  24.915  0.00  0.00    -0.201 NA
BRANCH  27  28
ATOM     28  C   UNL     1      -2.591  -2.532  24.563  0.00  0.00    +0.143 C 
BRANCH  28  29
ATOM     29  C   UNL     1      -3.337  -2.283  24.313  0.00  0.00    +0.019 A 
ATOM     30  C   UNL     1      -3.621  -1.542  24.539  0.00  0.00    +0.001 A 
ATOM     31  C   UNL     1      -4.367  -1.294  24.289  0.00  0.00    +0.020 A 
ATOM     32  C   UNL     1      -4.828  -1.786  23.813  0.00  0.00    +0.099 A 
ATOM     33  N   UNL     1      -4.543  -2.527  23.588  0.00  0.00    -0.243 NA
ATOM     34  C   UNL     1      -3.797  -2.776  23.838  0.00  0.00    +0.096 A 
ENDBRANCH  28  29
ENDBRANCH  27  28
ENDBRANCH   2  25
ENDBRANCH   3   2
TORSDOF 6
ENDMDL
MODEL 10
REMARK VINA RESULT:      -9.9      1.894      3.536
REMARK  Name = 
REMARK  6 active torsions:
REMARK  status: ('A' for Active; 'I' for Inactive)
REMARK    1  A    between atoms: C_2  and  C_3
REMARK    2  A    between atoms: C_2  and  C_25
REMARK    3  A    between atoms: C_10  and  N_11
REMARK    4  A    between atoms: C_12  and  C_14
REMARK    5  A    between atoms: N_27  and  C_28
REMARK    6  A    between atoms: C_28  and  C_29
REMARK                            x       y       z     vdW  Elec       q    Type
REMARK                         _______ _______ _______ _____ _____    ______ ____
ROOT
ATOM      3  C   UNL     1      -0.214   2.089  25.292  0.00  0.00    +0.039 C 
ATOM      4  C   UNL     1       0.277   2.115  24.628  0.00  0.00    +0.003 C 
ATOM      5  C   UNL     1       0.305   1.474  24.111  0.00  0.00    +0.000 C 
ATOM      6  C   UNL     1      -0.157   0.807  24.255  0.00  0.00    +0.002 C 
ATOM      7  C   UNL     1       0.333   0.833  23.593  0.00  0.00    +0.000 C 
ATOM      8  C   UNL     1      -0.129   0.165  23.737  0.00  0.00    +0.002 C 
ATOM      9  C   UNL     1      -0.591  -0.502  23.881  0.00  0.00    +0.022 C 
ATOM     10  C   UNL     1      -1.083  -0.528  24.545  0.00  0.00    +0.096 C 
ATOM     20  C   UNL     1      -1.111   0.113  25.062  0.00  0.00    +0.022 C 
ATOM     21  C   UNL     1      -1.602   0.086  25.725  0.00  0.00    +0.002 C 
ATOM     22  C   UNL     1      -0.648   0.781  24.918  0.00  0.00    +0.032 C 
ATOM     23  C   UNL     1      -0.676   1.422  25.436  0.00  0.00    +0.152 C 
ATOM     24  O   UNL     1      -1.167   1.395  26.098  0.00  0.00    -0.223 OA
ENDROOT
BRANCH  10  11
ATOM     11  N   UNL     1      -1.545  -1.196  24.689  0.00  0.00    -0.202 NA
ATOM     12  C   UNL     1      -2.187  -1.368  24.200  0.00  0.00    +0.284 C 
ATOM     13  O   UNL     1      -2.366  -0.871  23.565  0.00  0.00    -0.267 OA
BRANCH  12  14
ATOM     14  C   UNL     1      -2.649  -2.036  24.344  0.00  0.00    +0.155 A 
ATOM     15  C   UNL     1      -3.471  -1.980  24.330  0.00  0.00    +0.123 A 
ATOM     16  N   UNL     1      -3.934  -2.648  24.474  0.00  0.00    -0.239 NA
ATOM     17  C   UNL     1      -3.573  -3.373  24.631  0.00  0.00    +0.120 A 
ATOM     18  C   UNL     1      -2.749  -3.429  24.645  0.00  0.00    +0.120 A 
ATOM     19  N   UNL     1      -2.288  -2.761  24.501  0.00  0.00    -0.236 NA
ENDBRANCH  12  14
ENDBRANCH  10  11
BRANCH   3   2
ATOM      1  C   UNL     1       0.171   2.705  26.524  0.00  0.00    +0.010 C 
ATOM      2  C   UNL     1      -0.242   2.731  25.810  0.00  0.00    +0.081 C 
BRANCH   2  25
ATOM     25  C   UNL     1      -0.683   3.400  25.613  0.00  0.00    +0.241 C 
ATOM     26  O   UNL     1      -0.308   4.062  25.292  0.00  0.00    -0.273 OA
ATOM     27  N   UNL     1      -1.499   3.407  25.738  0.00  0.00    -0.201 NA
BRANCH  27  28
ATOM     28  C   UNL     1      -1.940   4.076  25.541  0.00  0.00    +0.143 C 
BRANCH  28  29
ATOM     29  C   UNL     1      -2.760   4.025  25.477  0.00  0.00    +0.019 A 
ATOM     30  C   UNL     1      -3.110   3.911  24.738  0.00  0.00    +0.001 A 
ATOM     31  C   UNL     1      -3.931   3.860  24.674  0.00  0.00    +0.020 A 
ATOM     32  C   UNL     1      -4.402   3.923  25.348  0.00  0.00    +0.099 A 
ATOM     33  N   UNL     1      -4.053   4.037  26.087  0.00  0.00    -0.243 NA
ATOM     34  C   UNL     1      -3.231   4.088  26.151  0.00  0.00    +0.096 A 
ENDBRANCH  28  29
ENDBRANCH  27  28
ENDBRANCH   2  25
ENDBRANCH   3   2
TORSDOF 6
ENDMDL
