MODEL 1
REMARK VINA RESULT:     -12.7      0.000      0.000
REMARK  Name = 
REMARK  4 active torsions:
REMARK  status: ('A' for Active; 'I' for Inactive)
REMARK    1  A    between atoms: C_1  and  N_2
REMARK    2  A    between atoms: C_1  and  C_26
REMARK    3  A    between atoms: C_7  and  C_8
REMARK    4  A    between atoms: C_10  and  C_13
REMARK                            x       y       z     vdW  Elec       q    Type
REMARK                         _______ _______ _______ _____ _____    ______ ____
ROOT
ATOM      2  N   UNL     1      -3.599   2.982  24.898  0.00  0.00    -0.257 NA
ATOM      3  C   UNL     1      -3.882   3.675  25.247  0.00  0.00    +0.121 C 
ATOM      4  C   UNL     1      -4.682   3.748  25.430  0.00  0.00    +0.090 A 
ATOM      5  C   UNL     1      -5.202   3.129  25.266  0.00  0.00    +0.077 A 
ATOM      6  C   UNL     1      -4.920   2.436  24.918  0.00  0.00    +0.073 C 
ATOM      7  C   UNL     1      -4.119   2.362  24.734  0.00  0.00    +0.144 C 
ATOM     23  N   UNL     1      -5.957   3.358  25.507  0.00  0.00    -0.227 NA
ATOM     24  C   UNL     1      -5.904   4.120  25.820  0.00  0.00    +0.198 A 
ATOM     25  N   UNL     1      -5.116   4.361  25.773  0.00  0.00    -0.226 NA
ENDROOT
BRANCH   7   8
ATOM      8  C   UNL     1      -3.838   1.670  24.386  0.00  0.00    +0.251 A 
ATOM      9  N   UNL     1      -3.787   0.931  24.749  0.00  0.00    -0.190 NA
ATOM     10  C   UNL     1      -3.475   0.398  24.201  0.00  0.00    +0.203 A 
ATOM     11  N   UNL     1      -3.334   0.808  23.499  0.00  0.00    -0.056 NA
ATOM     12  O   UNL     1      -3.557   1.594  23.613  0.00  0.00    -0.336 OA
BRANCH  10  13
ATOM     13  C   UNL     1      -3.331  -0.404  24.331  0.00  0.00    +0.039 A 
ATOM     14  C   UNL     1      -2.649  -0.640  24.733  0.00  0.00    +0.003 A 
ATOM     15  C   UNL     1      -2.504  -1.441  24.864  0.00  0.00    +0.000 A 
ATOM     16  C   UNL     1      -3.039  -2.006  24.592  0.00  0.00    +0.000 A 
ATOM     17  C   UNL     1      -2.894  -2.808  24.722  0.00  0.00    +0.000 A 
ATOM     18  C   UNL     1      -3.429  -3.374  24.451  0.00  0.00    +0.000 A 
ATOM     19  C   UNL     1      -4.110  -3.137  24.048  0.00  0.00    +0.000 A 
ATOM     20  C   UNL     1      -4.255  -2.337  23.918  0.00  0.00    +0.000 A 
ATOM     21  C   UNL     1      -3.720  -1.770  24.189  0.00  0.00    +0.000 A 
ATOM     22  C   UNL     1      -3.865  -0.969  24.059  0.00  0.00    +0.003 A 
ENDBRANCH  10  13
ENDBRANCH   7   8
BRANCH   2   1
ATOM      1  C   UNL     1      -2.799   2.909  24.715  0.00  0.00    +0.106 C 
BRANCH   1  26
ATOM     26  C   UNL     1      -2.254   3.447  25.021  0.00  0.00    +0.023 A 
ATOM     27  C   UNL     1      -1.873   3.392  25.751  0.00  0.00    +0.004 A 
ATOM     28  C   UNL     1      -1.378   4.046  25.831  0.00  0.00    +0.007 A 
ATOM     29  C   UNL     1      -1.452   4.507  25.151  0.00  0.00    +0.035 A 
ATOM     30  S   UNL     1      -1.993   4.137  24.649  0.00  0.00    -0.089 S 
ENDBRANCH   1  26
ENDBRANCH   2   1
TORSDOF 4
ENDMDL
MODEL 2
REMARK VINA RESULT:     -12.6      1.136      2.338
REMARK  Name = 
REMARK  4 active torsions:
REMARK  status: ('A' for Active; 'I' for Inactive)
REMARK    1  A    between atoms: C_1  and  N_2
REMARK    2  A    between atoms: C_1  and  C_26
REMARK    3  A    between atoms: C_7  and  C_8
REMARK    4  A    between atoms: C_10  and  C_13
REMARK                            x       y       z     vdW  Elec       q    Type
REMARK                         _______ _______ _______ _____ _____    ______ ____
ROOT
ATOM      2  N   UNL     1      -3.122   3.128  24.706  0.00  0.00    -0.257 NA
ATOM      3  C   UNL     1      -2.995   3.882  25.017  0.00  0.00    +0.121 C 
ATOM      4  C   UNL     1      -2.231   4.185  25.068  0.00  0.00    +0.090 A 
ATOM      5  C   UNL     1      -1.590   3.735  24.808  0.00  0.00    +0.077 A 
ATOM      6  C   UNL     1      -1.716   2.981  24.497  0.00  0.00    +0.073 C 
ATOM      7  C   UNL     1      -2.481   2.678  24.446  0.00  0.00    +0.144 C 
ATOM     23  N   UNL     1      -0.903   4.176  24.926  0.00  0.00    -0.227 NA
ATOM     24  C   UNL     1      -1.119   4.900  25.259  0.00  0.00    +0.198 A 
ATOM     25  N   UNL     1      -1.939   4.905  25.347  0.00  0.00    -0.226 NA
ENDROOT
BRANCH   7   8
ATOM      8  C   UNL     1      -2.606   1.924  24.135  0.00  0.00    +0.251 A 
ATOM      9  N   UNL     1      -2.633   1.221  24.565  0.00  0.00    -0.190 NA
ATOM     10  C   UNL     1      -2.770   0.603  24.034  0.00  0.00    +0.203 A 
ATOM     11  N   UNL     1      -2.827   0.925  23.277  0.00  0.00    -0.056 NA
ATOM     12  O   UNL     1      -2.726   1.742  23.339  0.00  0.00    -0.336 OA
BRANCH  10  13
ATOM     13  C   UNL     1      -2.837  -0.196  24.227  0.00  0.00    +0.039 A 
ATOM     14  C   UNL     1      -2.257  -0.559  24.690  0.00  0.00    +0.003 A 
ATOM     15  C   UNL     1      -2.324  -1.358  24.883  0.00  0.00    +0.000 A 
ATOM     16  C   UNL     1      -2.970  -1.795  24.613  0.00  0.00    +0.000 A 
ATOM     17  C   UNL     1      -3.037  -2.594  24.806  0.00  0.00    +0.000 A 
ATOM     18  C   UNL     1      -3.683  -3.031  24.537  0.00  0.00    +0.000 A 
ATOM     19  C   UNL     1      -4.262  -2.668  24.074  0.00  0.00    +0.000 A 
ATOM     20  C   UNL     1      -4.195  -1.869  23.882  0.00  0.00    +0.000 A 
ATOM     21  C   UNL     1      -3.550  -1.432  24.151  0.00  0.00    +0.000 A 
ATOM     22  C   UNL     1      -3.483  -0.633  23.958  0.00  0.00    +0.003 A 
ENDBRANCH  10  13
ENDBRANCH   7   8
BRANCH   2   1
ATOM      1  C   UNL     1      -3.886   2.825  24.656  0.00  0.00    +0.106 C 
BRANCH   1  26
ATOM     26  C   UNL     1      -4.503   3.188  25.067  0.00  0.00    +0.023 A 
ATOM     27  C   UNL     1      -4.907   3.870  24.836  0.00  0.00    +0.004 A 
ATOM     28  C   UNL     1      -5.477   4.034  25.408  0.00  0.00    +0.007 A 
ATOM     29  C   UNL     1      -5.426   3.456  25.993  0.00  0.00    +0.035 A 
ATOM     30  S   UNL     1      -4.825   2.932  25.783  0.00  0.00    -0.089 S 
ENDBRANCH   1  26
ENDBRANCH   2   1
TORSDOF 4
ENDMDL
MODEL 3
REMARK VINA RESULT:     -11.4      1.734      5.207
REMARK  Name = 
REMARK  4 active torsions:
REMARK  status: ('A' for Active; 'I' for Inactive)
REMARK    1  A    between atoms: C_1  and  N_2
REMARK    2  A    between atoms: C_1  and  C_26
REMARK    3  A    between atoms: C_7  and  C_8
REMARK    4  A    between atoms: C_10  and  C_13
REMARK                            x       y       z     vdW  Elec       q    Type
REMARK                         _______ _______ _______ _____ _____    ______ ____
ROOT
ATOM      2  N   UNL     1      -2.592  -0.689  24.373  0.00  0.00    -0.257 NA
ATOM      3  C   UNL     1      -2.695  -1.497  24.508  0.00  0.00    +0.121 C 
ATOM      4  C   UNL     1      -3.411  -1.859  24.317  0.00  0.00    +0.090 A 
ATOM      5  C   UNL     1      -4.025  -1.414  23.991  0.00  0.00    +0.077 A 
ATOM      6  C   UNL     1      -3.922  -0.607  23.857  0.00  0.00    +0.073 C 
ATOM      7  C   UNL     1      -3.206  -0.244  24.047  0.00  0.00    +0.144 C 
ATOM     23  N   UNL     1      -4.664  -1.918  23.860  0.00  0.00    -0.227 NA
ATOM     24  C   UNL     1      -4.445  -2.676  24.105  0.00  0.00    +0.198 A 
ATOM     25  N   UNL     1      -3.671  -2.639  24.387  0.00  0.00    -0.226 NA
ENDROOT
BRANCH   7   8
ATOM      8  C   UNL     1      -3.104   0.563  23.913  0.00  0.00    +0.251 A 
ATOM      9  N   UNL     1      -3.030   1.146  24.492  0.00  0.00    -0.190 NA
ATOM     10  C   UNL     1      -2.938   1.873  24.111  0.00  0.00    +0.203 A 
ATOM     11  N   UNL     1      -2.954   1.739  23.298  0.00  0.00    -0.056 NA
ATOM     12  O   UNL     1      -3.056   0.929  23.174  0.00  0.00    -0.336 OA
BRANCH  10  13
ATOM     13  C   UNL     1      -2.846   2.605  24.480  0.00  0.00    +0.039 A 
ATOM     14  C   UNL     1      -3.480   2.947  24.883  0.00  0.00    +0.003 A 
ATOM     15  C   UNL     1      -3.389   3.679  25.252  0.00  0.00    +0.000 A 
ATOM     16  C   UNL     1      -2.664   4.069  25.218  0.00  0.00    +0.000 A 
ATOM     17  C   UNL     1      -2.571   4.802  25.586  0.00  0.00    +0.000 A 
ATOM     18  C   UNL     1      -1.846   5.193  25.552  0.00  0.00    +0.000 A 
ATOM     19  C   UNL     1      -1.211   4.851  25.149  0.00  0.00    +0.000 A 
ATOM     20  C   UNL     1      -1.303   4.119  24.781  0.00  0.00    +0.000 A 
ATOM     21  C   UNL     1      -2.029   3.728  24.814  0.00  0.00    +0.000 A 
ATOM     22  C   UNL     1      -2.121   2.996  24.446  0.00  0.00    +0.003 A 
ENDBRANCH  10  13
ENDBRANCH   7   8
BRANCH   2   1
ATOM      1  C   UNL     1      -1.876  -0.328  24.564  0.00  0.00    +0.106 C 
BRANCH   1  26
ATOM     26  C   UNL     1      -1.244  -0.781  24.838  0.00  0.00    +0.023 A 
ATOM     27  C   UNL     1      -1.123  -1.029  25.615  0.00  0.00    +0.004 A 
ATOM     28  C   UNL     1      -0.426  -1.467  25.638  0.00  0.00    +0.007 A 
ATOM     29  C   UNL     1      -0.113  -1.490  24.876  0.00  0.00    +0.035 A 
ATOM     30  S   UNL     1      -0.618  -1.067  24.380  0.00  0.00    -0.089 S 
ENDBRANCH   1  26
ENDBRANCH   2   1
TORSDOF 4
ENDMDL
MODEL 4
REMARK VINA RESULT:     -10.9      1.987      4.763
REMARK  Name = 
REMARK  4 active torsions:
REMARK  status: ('A' for Active; 'I' for Inactive)
REMARK    1  A    between atoms: C_1  and  N_2
REMARK    2  A    between atoms: C_1  and  C_26
REMARK    3  A    between atoms: C_7  and  C_8
REMARK    4  A    between atoms: C_10  and  C_13
REMARK                            x       y       z     vdW  Elec       q    Type
REMARK                         _______ _______ _______ _____ _____    ______ ____
ROOT
ATOM      2  N   UNL     1      -1.342   0.137  24.507  0.00  0.00    -0.257 NA
ATOM      3  C   UNL     1      -0.664  -0.297  24.690  0.00  0.00    +0.121 C 
ATOM      4  C   UNL     1      -0.727  -1.093  24.895  0.00  0.00    +0.090 A 
ATOM      5  C   UNL     1      -1.468  -1.456  24.918  0.00  0.00    +0.077 A 
ATOM      6  C   UNL     1      -2.145  -1.022  24.735  0.00  0.00    +0.073 C 
ATOM      7  C   UNL     1      -2.083  -0.226  24.530  0.00  0.00    +0.144 C 
ATOM     23  N   UNL     1      -1.359  -2.243  25.138  0.00  0.00    -0.227 NA
ATOM     24  C   UNL     1      -0.551  -2.368  25.252  0.00  0.00    +0.198 A 
ATOM     25  N   UNL     1      -0.161  -1.657  25.101  0.00  0.00    -0.226 NA
ENDROOT
BRANCH   7   8
ATOM      8  C   UNL     1      -2.760   0.207  24.347  0.00  0.00    +0.251 A 
ATOM      9  N   UNL     1      -3.190   0.678  24.870  0.00  0.00    -0.190 NA
ATOM     10  C   UNL     1      -3.823   1.008  24.455  0.00  0.00    +0.203 A 
ATOM     11  N   UNL     1      -3.784   0.741  23.676  0.00  0.00    -0.056 NA
ATOM     12  O   UNL     1      -3.127   0.246  23.609  0.00  0.00    -0.336 OA
BRANCH  10  13
ATOM     13  C   UNL     1      -4.395   1.516  24.765  0.00  0.00    +0.039 A 
ATOM     14  C   UNL     1      -5.118   1.214  25.025  0.00  0.00    +0.003 A 
ATOM     15  C   UNL     1      -5.689   1.721  25.334  0.00  0.00    +0.000 A 
ATOM     16  C   UNL     1      -5.539   2.530  25.384  0.00  0.00    +0.000 A 
ATOM     17  C   UNL     1      -6.111   3.038  25.694  0.00  0.00    +0.000 A 
ATOM     18  C   UNL     1      -5.961   3.847  25.744  0.00  0.00    +0.000 A 
ATOM     19  C   UNL     1      -5.238   4.150  25.484  0.00  0.00    +0.000 A 
ATOM     20  C   UNL     1      -4.666   3.642  25.174  0.00  0.00    +0.000 A 
ATOM     21  C   UNL     1      -4.816   2.832  25.124  0.00  0.00    +0.000 A 
ATOM     22  C   UNL     1      -4.245   2.325  24.815  0.00  0.00    +0.003 A 
ENDBRANCH  10  13
ENDBRANCH   7   8
BRANCH   2   1
ATOM      1  C   UNL     1      -1.279   0.933  24.301  0.00  0.00    +0.106 C 
BRANCH   1  26
ATOM     26  C   UNL     1      -0.618   1.369  24.533  0.00  0.00    +0.023 A 
ATOM     27  C   UNL     1      -0.492   1.702  25.278  0.00  0.00    +0.004 A 
ATOM     28  C   UNL     1       0.237   2.087  25.265  0.00  0.00    +0.007 A 
ATOM     29  C   UNL     1       0.562   1.992  24.513  0.00  0.00    +0.035 A 
ATOM     30  S   UNL     1       0.035   1.549  24.060  0.00  0.00    -0.089 S 
ENDBRANCH   1  26
ENDBRANCH   2   1
TORSDOF 4
ENDMDL
MODEL 5
REMARK VINA RESULT:     -10.8      2.617      5.547
REMARK  Name = 
REMARK  4 active torsions:
REMARK  status: ('A' for Active; 'I' for Inactive)
REMARK    1  A    between atoms: C_1  and  N_2
REMARK    2  A    between atoms: C_1  and  C_26
REMARK    3  A    between atoms: C_7  and  C_8
REMARK    4  A    between atoms: C_10  and  C_13
REMARK                            x       y       z     vdW  Elec       q    Type
REMARK                         _______ _______ _______ _____ _____    ______ ____
ROOT
ATOM      2  N   UNL     1      -0.530   0.019  24.451  0.00  0.00    -0.257 NA
ATOM      3  C   UNL     1      -0.087  -0.501  23.988  0.00  0.00    +0.121 C 
ATOM      4  C   UNL     1       0.501  -0.210  23.488  0.00  0.00    +0.090 A 
ATOM      5  C   UNL     1       0.648   0.601  23.452  0.00  0.00    +0.077 A 
ATOM      6  C   UNL     1       0.205   1.121  23.915  0.00  0.00    +0.073 C 
ATOM      7  C   UNL     1      -0.383   0.830  24.414  0.00  0.00    +0.144 C 
ATOM     23  N   UNL     1       1.259   0.726  22.912  0.00  0.00    -0.227 NA
ATOM     24  C   UNL     1       1.490  -0.009  22.615  0.00  0.00    +0.198 A 
ATOM     25  N   UNL     1       1.022  -0.587  22.971  0.00  0.00    -0.226 NA
ENDROOT
BRANCH   7   8
ATOM      8  C   UNL     1      -0.825   1.350  24.877  0.00  0.00    +0.251 A 
ATOM      9  N   UNL     1      -1.537   1.707  24.660  0.00  0.00    -0.190 NA
ATOM     10  C   UNL     1      -1.785   2.183  25.288  0.00  0.00    +0.203 A 
ATOM     11  N   UNL     1      -1.227   2.120  25.892  0.00  0.00    -0.056 NA
ATOM     12  O   UNL     1      -0.634   1.605  25.638  0.00  0.00    -0.336 OA
BRANCH  10  13
ATOM     13  C   UNL     1      -2.471   2.641  25.308  0.00  0.00    +0.039 A 
ATOM     14  C   UNL     1      -2.417   3.460  25.402  0.00  0.00    +0.003 A 
ATOM     15  C   UNL     1      -3.102   3.918  25.422  0.00  0.00    +0.000 A 
ATOM     16  C   UNL     1      -3.840   3.560  25.349  0.00  0.00    +0.000 A 
ATOM     17  C   UNL     1      -4.526   4.018  25.369  0.00  0.00    +0.000 A 
ATOM     18  C   UNL     1      -5.265   3.659  25.296  0.00  0.00    +0.000 A 
ATOM     19  C   UNL     1      -5.319   2.840  25.202  0.00  0.00    +0.000 A 
ATOM     20  C   UNL     1      -4.634   2.382  25.182  0.00  0.00    +0.000 A 
ATOM     21  C   UNL     1      -3.894   2.741  25.255  0.00  0.00    +0.000 A 
ATOM     22  C   UNL     1      -3.209   2.282  25.235  0.00  0.00    +0.003 A 
ENDBRANCH  10  13
ENDBRANCH   7   8
BRANCH   2   1
ATOM      1  C   UNL     1      -1.118  -0.272  24.950  0.00  0.00    +0.106 C 
BRANCH   1  26
ATOM     26  C   UNL     1      -1.364  -1.057  24.886  0.00  0.00    +0.023 A 
ATOM     27  C   UNL     1      -1.981  -1.336  24.415  0.00  0.00    +0.004 A 
ATOM     28  C   UNL     1      -2.033  -2.152  24.521  0.00  0.00    +0.007 A 
ATOM     29  C   UNL     1      -1.449  -2.378  25.056  0.00  0.00    +0.035 A 
ATOM     30  S   UNL     1      -1.034  -1.702  25.283  0.00  0.00    -0.089 S 
ENDBRANCH   1  26
ENDBRANCH   2   1
TORSDOF 4
ENDMDL
