MODEL 1
REMARK VINA RESULT:      -8.1      0.000      0.000
REMARK  Name = 
REMARK  11 active torsions:
REMARK  status: ('A' for Active; 'I' for Inactive)
REMARK    1  A    between atoms: O_2  and  C_3
REMARK    2  A    between atoms: C_3  and  C_4
REMARK    3  A    between atoms: C_4  and  N_5
REMARK    4  A    between atoms: N_5  and  C_6
REMARK    5  A    between atoms: C_6  and  C_7
REMARK    6  A    between atoms: C_7  and  O_8
REMARK    7  A    between atoms: C_10  and  C_12
REMARK    8  A    between atoms: C_12  and  C_14
REMARK    9  A    between atoms: C_21  and  N_22
REMARK   10  A    between atoms: C_23  and  C_25
REMARK   11  A    between atoms: C_28  and  O_29
REMARK                            x       y       z     vdW  Elec       q    Type
REMARK                         _______ _______ _______ _____ _____    ______ ____
ROOT
ATOM     14  C   UNL     1      -2.942   0.995  24.267  0.00  0.00    +0.039 C 
ATOM     15  C   UNL     1      -3.099   0.246  24.574  0.00  0.00    +0.003 C 
ATOM     16  C   UNL     1      -2.492  -0.309  24.642  0.00  0.00    +0.000 C 
ATOM     17  C   UNL     1      -1.728  -0.114  24.402  0.00  0.00    +0.002 C 
ATOM     18  C   UNL     1      -1.885  -0.863  24.710  0.00  0.00    +0.000 C 
ATOM     19  C   UNL     1      -1.120  -0.669  24.470  0.00  0.00    +0.002 C 
ATOM     20  C   UNL     1      -0.355  -0.474  24.230  0.00  0.00    +0.022 C 
ATOM     21  C   UNL     1      -0.197   0.274  23.923  0.00  0.00    +0.096 C 
ATOM     33  C   UNL     1      -0.805   0.830  23.855  0.00  0.00    +0.022 C 
ATOM     34  C   UNL     1      -0.646   1.579  23.547  0.00  0.00    +0.002 C 
ATOM     35  C   UNL     1      -1.569   0.635  24.095  0.00  0.00    +0.032 C 
ATOM     36  C   UNL     1      -2.176   1.190  24.027  0.00  0.00    +0.152 C 
ATOM     37  O   UNL     1      -2.019   1.939  23.720  0.00  0.00    -0.223 OA
ENDROOT
BRANCH  21  22
ATOM     22  N   UNL     1       0.568   0.469  23.683  0.00  0.00    -0.203 NA
ATOM     23  C   UNL     1       0.987  -0.041  23.189  0.00  0.00    +0.265 C 
ATOM     24  O   UNL     1       0.642  -0.747  22.935  0.00  0.00    -0.268 OA
BRANCH  23  25
ATOM     25  C   UNL     1       1.752   0.153  22.948  0.00  0.00    +0.055 A 
ATOM     26  C   UNL     1       2.064  -0.175  22.259  0.00  0.00    +0.008 A 
ATOM     27  C   UNL     1       2.829   0.020  22.019  0.00  0.00    +0.037 A 
ATOM     28  C   UNL     1       3.282   0.542  22.469  0.00  0.00    +0.139 A 
ATOM     31  C   UNL     1       2.971   0.870  23.158  0.00  0.00    +0.037 A 
ATOM     32  C   UNL     1       2.206   0.676  23.398  0.00  0.00    +0.008 A 
BRANCH  28  29
ATOM     29  O   UNL     1       4.047   0.736  22.228  0.00  0.00    -0.471 OA
ATOM     30  C   UNL     1       4.679   0.650  22.751  0.00  0.00    +0.252 C 
ENDBRANCH  28  29
ENDBRANCH  23  25
ENDBRANCH  21  22
BRANCH  14  12
ATOM     12  C   UNL     1      -3.548   1.549  24.199  0.00  0.00    +0.079 C 
ATOM     13  C   UNL     1      -3.576   2.053  23.546  0.00  0.00    +0.010 C 
BRANCH  12  10
ATOM      5  N   UNL     1      -4.255   2.314  25.178  0.00  0.00    -0.274 N 
ATOM     10  C   UNL     1      -4.128   1.600  24.784  0.00  0.00    +0.225 C 
ATOM     11  O   UNL     1      -4.580   0.937  24.975  0.00  0.00    -0.275 OA
BRANCH   5   4
ATOM      4  C   UNL     1      -4.836   2.364  25.762  0.00  0.00    +0.125 C 
BRANCH   4   3
ATOM      3  C   UNL     1      -5.621   2.505  25.552  0.00  0.00    +0.164 C 
BRANCH   3   2
ATOM      1  C   UNL     1      -6.708   2.159  26.414  0.00  0.00    +0.174 C 
ATOM      2  O   UNL     1      -6.171   2.717  26.129  0.00  0.00    -0.349 OA
ENDBRANCH   3   2
ENDBRANCH   4   3
ENDBRANCH   5   4
BRANCH   5   6
ATOM      6  C   UNL     1      -3.803   2.977  24.986  0.00  0.00    +0.125 C 
BRANCH   6   7
ATOM      7  C   UNL     1      -3.630   3.539  25.565  0.00  0.00    +0.164 C 
BRANCH   7   8
ATOM      8  O   UNL     1      -3.169   4.197  25.376  0.00  0.00    -0.349 OA
ATOM      9  C   UNL     1      -2.704   4.555  25.956  0.00  0.00    +0.174 C 
ENDBRANCH   7   8
ENDBRANCH   6   7
ENDBRANCH   5   6
ENDBRANCH  12  10
ENDBRANCH  14  12
TORSDOF 11
ENDMDL
MODEL 2
REMARK VINA RESULT:      -7.7      0.898      1.546
REMARK  Name = 
REMARK  11 active torsions:
REMARK  status: ('A' for Active; 'I' for Inactive)
REMARK    1  A    between atoms: O_2  and  C_3
REMARK    2  A    between atoms: C_3  and  C_4
REMARK    3  A    between atoms: C_4  and  N_5
REMARK    4  A    between atoms: N_5  and  C_6
REMARK    5  A    between atoms: C_6  and  C_7
REMARK    6  A    between atoms: C_7  and  O_8
REMARK    7  A    between atoms: C_10  and  C_12
REMARK    8  A    between atoms: C_12  and  C_14
REMARK    9  A    between atoms: C_21  and  N_22
REMARK   10  A    between atoms: C_23  and  C_25
REMARK   11  A    between atoms: C_28  and  O_29
REMARK                            x       y       z     vdW  Elec       q    Type
REMARK                         _______ _______ _______ _____ _____    ______ ____
ROOT
ATOM     14  C   UNL     1      -2.877   1.652  24.349  0.00  0.00    +0.039 C 
ATOM     15  C   UNL     1      -3.048   0.994  24.816  0.00  0.00    +0.003 C 
ATOM     16  C   UNL     1      -2.463   0.433  24.970  0.00  0.00    +0.000 C 
ATOM     17  C   UNL     1      -1.706   0.531  24.658  0.00  0.00    +0.002 C 
ATOM     18  C   UNL     1      -1.877  -0.127  25.125  0.00  0.00    +0.000 C 
ATOM     19  C   UNL     1      -1.120  -0.030  24.813  0.00  0.00    +0.002 C 
ATOM     20  C   UNL     1      -0.363   0.069  24.500  0.00  0.00    +0.022 C 
ATOM     21  C   UNL     1      -0.191   0.726  24.034  0.00  0.00    +0.096 C 
ATOM     33  C   UNL     1      -0.777   1.288  23.879  0.00  0.00    +0.022 C 
ATOM     34  C   UNL     1      -0.604   1.946  23.412  0.00  0.00    +0.002 C 
ATOM     35  C   UNL     1      -1.533   1.190  24.191  0.00  0.00    +0.032 C 
ATOM     36  C   UNL     1      -2.119   1.750  24.037  0.00  0.00    +0.152 C 
ATOM     37  O   UNL     1      -1.948   2.408  23.570  0.00  0.00    -0.223 OA
ENDROOT
BRANCH  21  22
ATOM     22  N   UNL     1       0.567   0.825  23.721  0.00  0.00    -0.203 NA
ATOM     23  C   UNL     1       0.959   0.183  23.383  0.00  0.00    +0.265 C 
ATOM     24  O   UNL     1       0.595  -0.557  23.358  0.00  0.00    -0.268 OA
BRANCH  23  25
ATOM     25  C   UNL     1       1.716   0.280  23.070  0.00  0.00    +0.055 A 
ATOM     26  C   UNL     1       1.931  -0.115  22.380  0.00  0.00    +0.008 A 
ATOM     27  C   UNL     1       2.689  -0.018  22.067  0.00  0.00    +0.037 A 
ATOM     28  C   UNL     1       3.231   0.476  22.446  0.00  0.00    +0.139 A 
ATOM     31  C   UNL     1       3.016   0.871  23.137  0.00  0.00    +0.037 A 
ATOM     32  C   UNL     1       2.259   0.774  23.449  0.00  0.00    +0.008 A 
BRANCH  28  29
ATOM     29  O   UNL     1       3.988   0.573  22.134  0.00  0.00    -0.471 OA
ATOM     30  C   UNL     1       4.650   0.467  22.614  0.00  0.00    +0.252 C 
ENDBRANCH  28  29
ENDBRANCH  23  25
ENDBRANCH  21  22
BRANCH  14  12
ATOM     12  C   UNL     1      -3.462   2.212  24.195  0.00  0.00    +0.079 C 
ATOM     13  C   UNL     1      -3.782   2.276  23.437  0.00  0.00    +0.010 C 
BRANCH  12  10
ATOM      5  N   UNL     1      -4.532   2.747  24.976  0.00  0.00    -0.274 N 
ATOM     10  C   UNL     1      -3.728   2.708  24.798  0.00  0.00    +0.225 C 
ATOM     11  O   UNL     1      -3.188   3.166  25.223  0.00  0.00    -0.275 OA
BRANCH   5   4
ATOM      4  C   UNL     1      -4.797   3.245  25.579  0.00  0.00    +0.125 C 
BRANCH   4   3
ATOM      3  C   UNL     1      -5.121   3.980  25.394  0.00  0.00    +0.164 C 
BRANCH   3   2
ATOM      1  C   UNL     1      -5.979   5.067  25.749  0.00  0.00    +0.174 C 
ATOM      2  O   UNL     1      -5.541   4.402  25.965  0.00  0.00    -0.349 OA
ENDBRANCH   3   2
ENDBRANCH   4   3
ENDBRANCH   5   4
BRANCH   5   6
ATOM      6  C   UNL     1      -5.071   2.290  24.551  0.00  0.00    +0.125 C 
BRANCH   6   7
ATOM      7  C   UNL     1      -5.736   1.980  24.928  0.00  0.00    +0.164 C 
BRANCH   7   8
ATOM      8  O   UNL     1      -6.333   1.622  24.485  0.00  0.00    -0.349 OA
ATOM      9  C   UNL     1      -6.905   1.161  24.859  0.00  0.00    +0.174 C 
ENDBRANCH   7   8
ENDBRANCH   6   7
ENDBRANCH   5   6
ENDBRANCH  12  10
ENDBRANCH  14  12
TORSDOF 11
ENDMDL
MODEL 3
REMARK VINA RESULT:      -6.6      1.558      2.113
REMARK  Name = 
REMARK  11 active torsions:
REMARK  status: ('A' for Active; 'I' for Inactive)
REMARK    1  A    between atoms: O_2  and  C_3
REMARK    2  A    between atoms: C_3  and  C_4
REMARK    3  A    between atoms: C_4  and  N_5
REMARK    4  A    between atoms: N_5  and  C_6
REMARK    5  A    between atoms: C_6  and  C_7
REMARK    6  A    between atoms: C_7  and  O_8
REMARK    7  A    between atoms: C_10  and  C_12
REMARK    8  A    between atoms: C_12  and  C_14
REMARK    9  A    between atoms: C_21  and  N_22
REMARK   10  A    between atoms: C_23  and  C_25
REMARK   11  A    between atoms: C_28  and  O_29
REMARK                            x       y       z     vdW  Elec       q    Type
REMARK                         _______ _______ _______ _____ _____    ______ ____
ROOT
ATOM     14  C   UNL     1      -3.097   3.083  24.748  0.00  0.00    +0.039 C 
ATOM     15  C   UNL     1      -2.915   3.280  25.528  0.00  0.00    +0.003 C 
ATOM     16  C   UNL     1      -2.154   3.155  25.819  0.00  0.00    +0.000 C 
ATOM     17  C   UNL     1      -1.573   2.833  25.330  0.00  0.00    +0.002 C 
ATOM     18  C   UNL     1      -1.392   3.030  26.110  0.00  0.00    +0.000 C 
ATOM     19  C   UNL     1      -0.811   2.707  25.622  0.00  0.00    +0.002 C 
ATOM     20  C   UNL     1      -0.230   2.384  25.132  0.00  0.00    +0.022 C 
ATOM     21  C   UNL     1      -0.411   2.187  24.353  0.00  0.00    +0.096 C 
ATOM     33  C   UNL     1      -1.174   2.312  24.061  0.00  0.00    +0.022 C 
ATOM     34  C   UNL     1      -1.354   2.114  23.281  0.00  0.00    +0.002 C 
ATOM     35  C   UNL     1      -1.754   2.635  24.550  0.00  0.00    +0.032 C 
ATOM     36  C   UNL     1      -2.516   2.760  24.259  0.00  0.00    +0.152 C 
ATOM     37  O   UNL     1      -2.697   2.562  23.479  0.00  0.00    -0.223 OA
ENDROOT
BRANCH  21  22
ATOM     22  N   UNL     1       0.169   1.864  23.863  0.00  0.00    -0.203 NA
ATOM     23  C   UNL     1       0.515   1.140  24.056  0.00  0.00    +0.265 C 
ATOM     24  O   UNL     1       0.281   0.739  24.739  0.00  0.00    -0.268 OA
BRANCH  23  25
ATOM     25  C   UNL     1       1.095   0.816  23.567  0.00  0.00    +0.055 A 
ATOM     26  C   UNL     1       1.841   1.165  23.525  0.00  0.00    +0.008 A 
ATOM     27  C   UNL     1       2.421   0.840  23.036  0.00  0.00    +0.037 A 
ATOM     28  C   UNL     1       2.254   0.167  22.590  0.00  0.00    +0.139 A 
ATOM     31  C   UNL     1       1.509  -0.182  22.632  0.00  0.00    +0.037 A 
ATOM     32  C   UNL     1       0.929   0.142  23.121  0.00  0.00    +0.008 A 
BRANCH  28  29
ATOM     29  O   UNL     1       2.834  -0.157  22.101  0.00  0.00    -0.471 OA
ATOM     30  C   UNL     1       3.577   0.198  22.051  0.00  0.00    +0.252 C 
ENDBRANCH  28  29
ENDBRANCH  23  25
ENDBRANCH  21  22
BRANCH  14  12
ATOM     12  C   UNL     1      -3.858   3.208  24.457  0.00  0.00    +0.079 C 
ATOM     13  C   UNL     1      -4.015   3.862  23.979  0.00  0.00    +0.010 C 
BRANCH  12  10
ATOM      5  N   UNL     1      -5.119   2.937  25.073  0.00  0.00    -0.274 N 
ATOM     10  C   UNL     1      -4.463   2.679  24.644  0.00  0.00    +0.225 C 
ATOM     11  O   UNL     1      -4.412   1.892  24.401  0.00  0.00    -0.275 OA
BRANCH   5   4
ATOM      4  C   UNL     1      -5.724   2.407  25.259  0.00  0.00    +0.125 C 
BRANCH   4   3
ATOM      3  C   UNL     1      -5.746   2.052  26.003  0.00  0.00    +0.164 C 
BRANCH   3   2
ATOM      1  C   UNL     1      -6.499   1.337  26.985  0.00  0.00    +0.174 C 
ATOM      2  O   UNL     1      -6.360   1.537  26.197  0.00  0.00    -0.349 OA
ENDBRANCH   3   2
ENDBRANCH   4   3
ENDBRANCH   5   4
BRANCH   5   6
ATOM      6  C   UNL     1      -5.169   3.723  25.316  0.00  0.00    +0.125 C 
BRANCH   6   7
ATOM      7  C   UNL     1      -5.903   4.100  25.342  0.00  0.00    +0.164 C 
BRANCH   7   8
ATOM      8  O   UNL     1      -5.992   4.799  25.773  0.00  0.00    -0.349 OA
ATOM      9  C   UNL     1      -6.430   5.424  25.459  0.00  0.00    +0.174 C 
ENDBRANCH   7   8
ENDBRANCH   6   7
ENDBRANCH   5   6
ENDBRANCH  12  10
ENDBRANCH  14  12
TORSDOF 11
ENDMDL
MODEL 4
REMARK VINA RESULT:      -6.3      1.325      2.401
REMARK  Name = 
REMARK  11 active torsions:
REMARK  status: ('A' for Active; 'I' for Inactive)
REMARK    1  A    between atoms: O_2  and  C_3
REMARK    2  A    between atoms: C_3  and  C_4
REMARK    3  A    between atoms: C_4  and  N_5
REMARK    4  A    between atoms: N_5  and  C_6
REMARK    5  A    between atoms: C_6  and  C_7
REMARK    6  A    between atoms: C_7  and  O_8
REMARK    7  A    between atoms: C_10  and  C_12
REMARK    8  A    between atoms: C_12  and  C_14
REMARK    9  A    between atoms: C_21  and  N_22
REMARK   10  A    between atoms: C_23  and  C_25
REMARK   11  A    between atoms: C_28  and  O_29
REMARK                            x       y       z     vdW  Elec       q    Type
REMARK                         _______ _______ _______ _____ _____    ______ ____
ROOT
ATOM     14  C   UNL     1      -3.019   3.050  24.729  0.00  0.00    +0.039 C 
ATOM     15  C   UNL     1      -2.768   3.569  25.319  0.00  0.00    +0.003 C 
ATOM     16  C   UNL     1      -1.962   3.676  25.460  0.00  0.00    +0.000 C 
ATOM     17  C   UNL     1      -1.407   3.264  25.011  0.00  0.00    +0.002 C 
ATOM     18  C   UNL     1      -1.156   3.783  25.601  0.00  0.00    +0.000 C 
ATOM     19  C   UNL     1      -0.600   3.371  25.152  0.00  0.00    +0.002 C 
ATOM     20  C   UNL     1      -0.045   2.959  24.702  0.00  0.00    +0.022 C 
ATOM     21  C   UNL     1      -0.295   2.440  24.112  0.00  0.00    +0.096 C 
ATOM     33  C   UNL     1      -1.101   2.333  23.971  0.00  0.00    +0.022 C 
ATOM     34  C   UNL     1      -1.351   1.813  23.381  0.00  0.00    +0.002 C 
ATOM     35  C   UNL     1      -1.656   2.744  24.420  0.00  0.00    +0.032 C 
ATOM     36  C   UNL     1      -2.462   2.637  24.280  0.00  0.00    +0.152 C 
ATOM     37  O   UNL     1      -2.713   2.118  23.690  0.00  0.00    -0.223 OA
ENDROOT
BRANCH  21  22
ATOM     22  N   UNL     1       0.261   2.027  23.662  0.00  0.00    -0.203 NA
ATOM     23  C   UNL     1       0.840   1.575  24.037  0.00  0.00    +0.265 C 
ATOM     24  O   UNL     1       0.864   1.535  24.861  0.00  0.00    -0.268 OA
BRANCH  23  25
ATOM     25  C   UNL     1       1.396   1.162  23.588  0.00  0.00    +0.055 A 
ATOM     26  C   UNL     1       1.213   0.416  23.290  0.00  0.00    +0.008 A 
ATOM     27  C   UNL     1       1.770   0.003  22.841  0.00  0.00    +0.037 A 
ATOM     28  C   UNL     1       2.508   0.338  22.691  0.00  0.00    +0.139 A 
ATOM     31  C   UNL     1       2.691   1.084  22.989  0.00  0.00    +0.037 A 
ATOM     32  C   UNL     1       2.135   1.497  23.438  0.00  0.00    +0.008 A 
BRANCH  28  29
ATOM     29  O   UNL     1       3.064  -0.074  22.242  0.00  0.00    -0.471 OA
ATOM     30  C   UNL     1       3.869   0.079  22.339  0.00  0.00    +0.252 C 
ENDBRANCH  28  29
ENDBRANCH  23  25
ENDBRANCH  21  22
BRANCH  14  12
ATOM     12  C   UNL     1      -3.823   2.943  24.589  0.00  0.00    +0.079 C 
ATOM     13  C   UNL     1      -4.109   2.930  23.814  0.00  0.00    +0.010 C 
BRANCH  12  10
ATOM      5  N   UNL     1      -4.757   2.139  25.313  0.00  0.00    -0.274 N 
ATOM     10  C   UNL     1      -4.344   2.848  25.221  0.00  0.00    +0.225 C 
ATOM     11  O   UNL     1      -4.451   3.462  25.763  0.00  0.00    -0.275 OA
BRANCH   5   4
ATOM      4  C   UNL     1      -5.278   2.046  25.947  0.00  0.00    +0.125 C 
BRANCH   4   3
ATOM      3  C   UNL     1      -6.081   2.206  25.847  0.00  0.00    +0.164 C 
BRANCH   3   2
ATOM      1  C   UNL     1      -6.879   1.703  26.920  0.00  0.00    +0.174 C 
ATOM      2  O   UNL     1      -6.560   2.340  26.505  0.00  0.00    -0.349 OA
ENDBRANCH   3   2
ENDBRANCH   4   3
ENDBRANCH   5   4
BRANCH   5   6
ATOM      6  C   UNL     1      -4.650   1.526  24.773  0.00  0.00    +0.125 C 
BRANCH   6   7
ATOM      7  C   UNL     1      -4.730   0.743  25.017  0.00  0.00    +0.164 C 
BRANCH   7   8
ATOM      8  O   UNL     1      -4.705   0.132  24.462  0.00  0.00    -0.349 OA
ATOM      9  C   UNL     1      -4.338  -0.582  24.650  0.00  0.00    +0.174 C 
ENDBRANCH   7   8
ENDBRANCH   6   7
ENDBRANCH   5   6
ENDBRANCH  12  10
ENDBRANCH  14  12
TORSDOF 11
ENDMDL
MODEL 5
REMARK VINA RESULT:      -6.2      1.266      6.873
REMARK  Name = 
REMARK  11 active torsions:
REMARK  status: ('A' for Active; 'I' for Inactive)
REMARK    1  A    between atoms: O_2  and  C_3
REMARK    2  A    between atoms: C_3  and  C_4
REMARK    3  A    between atoms: C_4  and  N_5
REMARK    4  A    between atoms: N_5  and  C_6
REMARK    5  A    between atoms: C_6  and  C_7
REMARK    6  A    between atoms: C_7  and  O_8
REMARK    7  A    between atoms: C_10  and  C_12
REMARK    8  A    between atoms: C_12  and  C_14
REMARK    9  A    between atoms: C_21  and  N_22
REMARK   10  A    between atoms: C_23  and  C_25
REMARK   11  A    between atoms: C_28  and  O_29
REMARK                            x       y       z     vdW  Elec       q    Type
REMARK                         _______ _______ _______ _____ _____    ______ ____
ROOT
ATOM     14  C   UNL     1       0.389   1.490  24.028  0.00  0.00    +0.039 C 
ATOM     15  C   UNL     1       0.641   2.272  23.957  0.00  0.00    +0.003 C 
ATOM     16  C   UNL     1       0.125   2.890  24.136  0.00  0.00    +0.000 C 
ATOM     17  C   UNL     1      -0.643   2.726  24.387  0.00  0.00    +0.002 C 
ATOM     18  C   UNL     1      -0.392   3.508  24.315  0.00  0.00    +0.000 C 
ATOM     19  C   UNL     1      -1.160   3.345  24.567  0.00  0.00    +0.002 C 
ATOM     20  C   UNL     1      -1.929   3.180  24.818  0.00  0.00    +0.022 C 
ATOM     21  C   UNL     1      -2.181   2.398  24.890  0.00  0.00    +0.096 C 
ATOM     33  C   UNL     1      -1.664   1.780  24.711  0.00  0.00    +0.022 C 
ATOM     34  C   UNL     1      -1.916   0.997  24.783  0.00  0.00    +0.002 C 
ATOM     35  C   UNL     1      -0.896   1.944  24.460  0.00  0.00    +0.032 C 
ATOM     36  C   UNL     1      -0.380   1.326  24.280  0.00  0.00    +0.152 C 
ATOM     37  O   UNL     1      -0.631   0.544  24.352  0.00  0.00    -0.223 OA
ENDROOT
BRANCH  21  22
ATOM     22  N   UNL     1      -2.949   2.233  25.142  0.00  0.00    -0.203 NA
ATOM     23  C   UNL     1      -3.585   2.653  24.825  0.00  0.00    +0.265 C 
ATOM     24  O   UNL     1      -3.453   3.237  24.257  0.00  0.00    -0.268 OA
BRANCH  23  25
ATOM     25  C   UNL     1      -4.354   2.489  25.076  0.00  0.00    +0.055 A 
ATOM     26  C   UNL     1      -4.766   1.853  24.753  0.00  0.00    +0.008 A 
ATOM     27  C   UNL     1      -5.535   1.689  25.004  0.00  0.00    +0.037 A 
ATOM     28  C   UNL     1      -5.891   2.163  25.578  0.00  0.00    +0.139 A 
ATOM     31  C   UNL     1      -5.478   2.799  25.901  0.00  0.00    +0.037 A 
ATOM     32  C   UNL     1      -4.710   2.963  25.651  0.00  0.00    +0.008 A 
BRANCH  28  29
ATOM     29  O   UNL     1      -6.659   1.999  25.829  0.00  0.00    -0.471 OA
ATOM     30  C   UNL     1      -6.791   1.692  26.583  0.00  0.00    +0.252 C 
ENDBRANCH  28  29
ENDBRANCH  23  25
ENDBRANCH  21  22
BRANCH  14  12
ATOM     12  C   UNL     1       0.905   0.873  23.849  0.00  0.00    +0.079 C 
ATOM     13  C   UNL     1       0.660   0.090  23.943  0.00  0.00    +0.010 C 
BRANCH  12  10
ATOM      5  N   UNL     1       1.996   0.581  22.973  0.00  0.00    -0.274 N 
ATOM     10  C   UNL     1       1.666   1.037  23.576  0.00  0.00    +0.225 C 
ATOM     11  O   UNL     1       2.098   1.657  23.908  0.00  0.00    -0.275 OA
BRANCH   5   4
ATOM      4  C   UNL     1       2.757   0.745  22.701  0.00  0.00    +0.125 C 
BRANCH   4   3
ATOM      3  C   UNL     1       3.406   0.357  23.032  0.00  0.00    +0.164 C 
BRANCH   3   2
ATOM      1  C   UNL     1       4.821   0.219  23.171  0.00  0.00    +0.174 C 
ATOM      2  O   UNL     1       4.169   0.543  22.782  0.00  0.00    -0.349 OA
ENDBRANCH   3   2
ENDBRANCH   4   3
ENDBRANCH   5   4
BRANCH   5   6
ATOM      6  C   UNL     1       1.564  -0.039  22.642  0.00  0.00    +0.125 C 
BRANCH   6   7
ATOM      7  C   UNL     1       1.635  -0.208  21.838  0.00  0.00    +0.164 C 
BRANCH   7   8
ATOM      8  O   UNL     1       1.225  -0.846  21.512  0.00  0.00    -0.349 OA
ATOM      9  C   UNL     1       0.876  -0.776  20.768  0.00  0.00    +0.174 C 
ENDBRANCH   7   8
ENDBRANCH   6   7
ENDBRANCH   5   6
ENDBRANCH  12  10
ENDBRANCH  14  12
TORSDOF 11
ENDMDL
MODEL 6
REMARK VINA RESULT:      -6.2      1.328      6.298
REMARK  Name = 
REMARK  11 active torsions:
REMARK  status: ('A' for Active; 'I' for Inactive)
REMARK    1  A    between atoms: O_2  and  C_3
REMARK    2  A    between atoms: C_3  and  C_4
REMARK    3  A    between atoms: C_4  and  N_5
REMARK    4  A    between atoms: N_5  and  C_6
REMARK    5  A    between atoms: C_6  and  C_7
REMARK    6  A    between atoms: C_7  and  O_8
REMARK    7  A    between atoms: C_10  and  C_12
REMARK    8  A    between atoms: C_12  and  C_14
REMARK    9  A    between atoms: C_21  and  N_22
REMARK   10  A    between atoms: C_23  and  C_25
REMARK   11  A    between atoms: C_28  and  O_29
REMARK                            x       y       z     vdW  Elec       q    Type
REMARK                         _______ _______ _______ _____ _____    ______ ____
ROOT
ATOM     14  C   UNL     1      -1.459  -0.852  24.540  0.00  0.00    +0.039 C 
ATOM     15  C   UNL     1      -1.867  -1.513  24.262  0.00  0.00    +0.003 C 
ATOM     16  C   UNL     1      -2.692  -1.518  24.258  0.00  0.00    +0.000 C 
ATOM     17  C   UNL     1      -3.109  -0.862  24.532  0.00  0.00    +0.002 C 
ATOM     18  C   UNL     1      -3.517  -1.523  24.255  0.00  0.00    +0.000 C 
ATOM     19  C   UNL     1      -3.935  -0.867  24.528  0.00  0.00    +0.002 C 
ATOM     20  C   UNL     1      -4.352  -0.210  24.803  0.00  0.00    +0.022 C 
ATOM     21  C   UNL     1      -3.946   0.451  25.081  0.00  0.00    +0.096 C 
ATOM     33  C   UNL     1      -3.120   0.456  25.085  0.00  0.00    +0.022 C 
ATOM     34  C   UNL     1      -2.713   1.118  25.363  0.00  0.00    +0.002 C 
ATOM     35  C   UNL     1      -2.702  -0.200  24.811  0.00  0.00    +0.032 C 
ATOM     36  C   UNL     1      -1.877  -0.195  24.815  0.00  0.00    +0.152 C 
ATOM     37  O   UNL     1      -1.470   0.466  25.092  0.00  0.00    -0.223 OA
ENDROOT
BRANCH  21  22
ATOM     22  N   UNL     1      -4.363   1.108  25.355  0.00  0.00    -0.203 NA
ATOM     23  C   UNL     1      -4.763   1.594  24.821  0.00  0.00    +0.265 C 
ATOM     24  O   UNL     1      -4.745   1.424  24.014  0.00  0.00    -0.268 OA
BRANCH  23  25
ATOM     25  C   UNL     1      -5.180   2.251  25.094  0.00  0.00    +0.055 A 
ATOM     26  C   UNL     1      -5.908   2.152  25.467  0.00  0.00    +0.008 A 
ATOM     27  C   UNL     1      -6.326   2.809  25.740  0.00  0.00    +0.037 A 
ATOM     28  C   UNL     1      -6.013   3.566  25.639  0.00  0.00    +0.139 A 
ATOM     31  C   UNL     1      -5.285   3.666  25.267  0.00  0.00    +0.037 A 
ATOM     32  C   UNL     1      -4.868   3.009  24.994  0.00  0.00    +0.008 A 
BRANCH  28  29
ATOM     29  O   UNL     1      -6.431   4.223  25.912  0.00  0.00    -0.471 OA
ATOM     30  C   UNL     1      -6.197   4.983  25.691  0.00  0.00    +0.252 C 
ENDBRANCH  28  29
ENDBRANCH  23  25
ENDBRANCH  21  22
BRANCH  14  12
ATOM     12  C   UNL     1      -0.635  -0.847  24.544  0.00  0.00    +0.079 C 
ATOM     13  C   UNL     1      -0.226  -0.853  25.261  0.00  0.00    +0.010 C 
BRANCH  12  10
ATOM      5  N   UNL     1       0.294  -0.212  23.663  0.00  0.00    -0.274 N 
ATOM     10  C   UNL     1      -0.219  -0.836  23.832  0.00  0.00    +0.225 C 
ATOM     11  O   UNL     1      -0.316  -1.450  23.289  0.00  0.00    -0.275 OA
BRANCH   5   4
ATOM      4  C   UNL     1       0.710  -0.203  22.950  0.00  0.00    +0.125 C 
BRANCH   4   3
ATOM      3  C   UNL     1       1.534  -0.252  22.953  0.00  0.00    +0.164 C 
BRANCH   3   2
ATOM      1  C   UNL     1       2.762  -0.081  22.243  0.00  0.00    +0.174 C 
ATOM      2  O   UNL     1       1.951  -0.233  22.242  0.00  0.00    -0.349 OA
ENDBRANCH   3   2
ENDBRANCH   4   3
ENDBRANCH   5   4
BRANCH   5   6
ATOM      6  C   UNL     1       0.391   0.401  24.206  0.00  0.00    +0.125 C 
BRANCH   6   7
ATOM      7  C   UNL     1       0.546   1.166  23.940  0.00  0.00    +0.164 C 
BRANCH   7   8
ATOM      8  O   UNL     1       0.755   1.756  24.479  0.00  0.00    -0.349 OA
ATOM      9  C   UNL     1       0.539   2.539  24.338  0.00  0.00    +0.174 C 
ENDBRANCH   7   8
ENDBRANCH   6   7
ENDBRANCH   5   6
ENDBRANCH  12  10
ENDBRANCH  14  12
TORSDOF 11
ENDMDL
MODEL 7
REMARK VINA RESULT:      -5.6     16.173     17.409
REMARK  Name = 
REMARK  11 active torsions:
REMARK  status: ('A' for Active; 'I' for Inactive)
REMARK    1  A    between atoms: O_2  and  C_3
REMARK    2  A    between atoms: C_3  and  C_4
REMARK    3  A    between atoms: C_4  and  N_5
REMARK    4  A    between atoms: N_5  and  C_6
REMARK    5  A    between atoms: C_6  and  C_7
REMARK    6  A    between atoms: C_7  and  O_8
REMARK    7  A    between atoms: C_10  and  C_12
REMARK    8  A    between atoms: C_12  and  C_14
REMARK    9  A    between atoms: C_21  and  N_22
REMARK   10  A    between atoms: C_23  and  C_25
REMARK   11  A    between atoms: C_28  and  O_29
REMARK                            x       y       z     vdW  Elec       q    Type
REMARK                         _______ _______ _______ _____ _____    ______ ____
ROOT
ATOM     14  C   UNL     1      -6.611  -9.732  11.324  0.00  0.00    +0.039 C 
ATOM     15  C   UNL     1      -5.900  -9.861  10.927  0.00  0.00    +0.003 C 
ATOM     16  C   UNL     1      -5.229 -10.095  11.347  0.00  0.00    +0.000 C 
ATOM     17  C   UNL     1      -5.270 -10.198  12.163  0.00  0.00    +0.002 C 
ATOM     18  C   UNL     1      -4.558 -10.328  11.767  0.00  0.00    +0.000 C 
ATOM     19  C   UNL     1      -4.598 -10.432  12.584  0.00  0.00    +0.002 C 
ATOM     20  C   UNL     1      -4.639 -10.535  13.402  0.00  0.00    +0.022 C 
ATOM     21  C   UNL     1      -5.350 -10.406  13.799  0.00  0.00    +0.096 C 
ATOM     33  C   UNL     1      -6.021 -10.172  13.378  0.00  0.00    +0.022 C 
ATOM     34  C   UNL     1      -6.733 -10.043  13.777  0.00  0.00    +0.002 C 
ATOM     35  C   UNL     1      -5.981 -10.069  12.562  0.00  0.00    +0.032 C 
ATOM     36  C   UNL     1      -6.652  -9.836  12.142  0.00  0.00    +0.152 C 
ATOM     37  O   UNL     1      -7.363  -9.706  12.539  0.00  0.00    -0.223 OA
ENDROOT
BRANCH  21  22
ATOM     22  N   UNL     1      -5.391 -10.509  14.617  0.00  0.00    -0.203 NA
ATOM     23  C   UNL     1      -4.728 -10.362  15.084  0.00  0.00    +0.265 C 
ATOM     24  O   UNL     1      -4.023 -10.110  14.735  0.00  0.00    -0.268 OA
BRANCH  23  25
ATOM     25  C   UNL     1      -4.768 -10.465  15.902  0.00  0.00    +0.055 A 
ATOM     26  C   UNL     1      -4.077 -10.474  16.351  0.00  0.00    +0.008 A 
ATOM     27  C   UNL     1      -4.117 -10.577  17.169  0.00  0.00    +0.037 A 
ATOM     28  C   UNL     1      -4.850 -10.671  17.536  0.00  0.00    +0.139 A 
ATOM     31  C   UNL     1      -5.541 -10.662  17.087  0.00  0.00    +0.037 A 
ATOM     32  C   UNL     1      -5.501 -10.559  16.270  0.00  0.00    +0.008 A 
BRANCH  28  29
ATOM     29  O   UNL     1      -4.889 -10.774  18.354  0.00  0.00    -0.471 OA
ATOM     30  C   UNL     1      -5.519 -10.455  18.780  0.00  0.00    +0.252 C 
ENDBRANCH  28  29
ENDBRANCH  23  25
ENDBRANCH  21  22
BRANCH  14  12
ATOM     12  C   UNL     1      -7.281  -9.499  10.904  0.00  0.00    +0.079 C 
ATOM     13  C   UNL     1      -7.699  -8.825  11.135  0.00  0.00    +0.010 C 
BRANCH  12  10
ATOM      5  N   UNL     1      -7.745  -9.556   9.554  0.00  0.00    -0.274 N 
ATOM     10  C   UNL     1      -7.535  -9.938  10.254  0.00  0.00    +0.225 C 
ATOM     11  O   UNL     1      -7.578 -10.761  10.304  0.00  0.00    -0.275 OA
BRANCH   5   4
ATOM      4  C   UNL     1      -7.999  -9.997   8.904  0.00  0.00    +0.125 C 
BRANCH   4   3
ATOM      3  C   UNL     1      -8.775  -9.922   8.633  0.00  0.00    +0.164 C 
BRANCH   3   2
ATOM      1  C   UNL     1      -9.892 -10.701   8.200  0.00  0.00    +0.174 C 
ATOM      2  O   UNL     1      -9.095 -10.497   8.136  0.00  0.00    -0.349 OA
ENDBRANCH   3   2
ENDBRANCH   4   3
ENDBRANCH   5   4
BRANCH   5   6
ATOM      6  C   UNL     1      -7.702  -8.735   9.504  0.00  0.00    +0.125 C 
BRANCH   6   7
ATOM      7  C   UNL     1      -7.555  -8.373   8.777  0.00  0.00    +0.164 C 
BRANCH   7   8
ATOM      8  O   UNL     1      -7.159  -7.649   8.749  0.00  0.00    -0.349 OA
ATOM      9  C   UNL     1      -7.301  -7.125   8.127  0.00  0.00    +0.174 C 
ENDBRANCH   7   8
ENDBRANCH   6   7
ENDBRANCH   5   6
ENDBRANCH  12  10
ENDBRANCH  14  12
TORSDOF 11
ENDMDL
MODEL 8
REMARK VINA RESULT:      -5.3     15.199     16.157
REMARK  Name = 
REMARK  11 active torsions:
REMARK  status: ('A' for Active; 'I' for Inactive)
REMARK    1  A    between atoms: O_2  and  C_3
REMARK    2  A    between atoms: C_3  and  C_4
REMARK    3  A    between atoms: C_4  and  N_5
REMARK    4  A    between atoms: N_5  and  C_6
REMARK    5  A    between atoms: C_6  and  C_7
REMARK    6  A    between atoms: C_7  and  O_8
REMARK    7  A    between atoms: C_10  and  C_12
REMARK    8  A    between atoms: C_12  and  C_14
REMARK    9  A    between atoms: C_21  and  N_22
REMARK   10  A    between atoms: C_23  and  C_25
REMARK   11  A    between atoms: C_28  and  O_29
REMARK                            x       y       z     vdW  Elec       q    Type
REMARK                         _______ _______ _______ _____ _____    ______ ____
ROOT
ATOM     14  C   UNL     1      -8.288  -9.949  15.051  0.00  0.00    +0.039 C 
ATOM     15  C   UNL     1      -9.016 -10.075  14.683  0.00  0.00    +0.003 C 
ATOM     16  C   UNL     1      -9.058 -10.146  13.863  0.00  0.00    +0.000 C 
ATOM     17  C   UNL     1      -8.372 -10.091  13.409  0.00  0.00    +0.002 C 
ATOM     18  C   UNL     1      -9.100 -10.217  13.042  0.00  0.00    +0.000 C 
ATOM     19  C   UNL     1      -8.414 -10.162  12.587  0.00  0.00    +0.002 C 
ATOM     20  C   UNL     1      -7.727 -10.107  12.133  0.00  0.00    +0.022 C 
ATOM     21  C   UNL     1      -6.999  -9.981  12.499  0.00  0.00    +0.096 C 
ATOM     33  C   UNL     1      -6.957  -9.910  13.321  0.00  0.00    +0.022 C 
ATOM     34  C   UNL     1      -6.228  -9.784  13.687  0.00  0.00    +0.002 C 
ATOM     35  C   UNL     1      -7.643  -9.965  13.775  0.00  0.00    +0.032 C 
ATOM     36  C   UNL     1      -7.601  -9.894  14.596  0.00  0.00    +0.152 C 
ATOM     37  O   UNL     1      -6.874  -9.768  14.963  0.00  0.00    -0.223 OA
ENDROOT
BRANCH  21  22
ATOM     22  N   UNL     1      -6.312  -9.926  12.045  0.00  0.00    -0.203 NA
ATOM     23  C   UNL     1      -6.314  -9.488  11.346  0.00  0.00    +0.265 C 
ATOM     24  O   UNL     1      -7.003  -9.105  11.101  0.00  0.00    -0.268 OA
BRANCH  23  25
ATOM     25  C   UNL     1      -5.628  -9.432  10.892  0.00  0.00    +0.055 A 
ATOM     26  C   UNL     1      -5.515  -9.938  10.251  0.00  0.00    +0.008 A 
ATOM     27  C   UNL     1      -4.829  -9.882   9.796  0.00  0.00    +0.037 A 
ATOM     28  C   UNL     1      -4.255  -9.319   9.984  0.00  0.00    +0.139 A 
ATOM     31  C   UNL     1      -4.368  -8.813  10.625  0.00  0.00    +0.037 A 
ATOM     32  C   UNL     1      -5.054  -8.869  11.079  0.00  0.00    +0.008 A 
BRANCH  28  29
ATOM     29  O   UNL     1      -3.569  -9.263   9.530  0.00  0.00    -0.471 OA
ATOM     30  C   UNL     1      -2.882  -8.947   9.857  0.00  0.00    +0.252 C 
ENDBRANCH  28  29
ENDBRANCH  23  25
ENDBRANCH  21  22
BRANCH  14  12
ATOM     12  C   UNL     1      -8.247  -9.878  15.871  0.00  0.00    +0.079 C 
ATOM     13  C   UNL     1      -7.895 -10.475  16.319  0.00  0.00    +0.010 C 
BRANCH  12  10
ATOM      5  N   UNL     1      -8.845  -9.265  17.014  0.00  0.00    -0.274 N 
ATOM     10  C   UNL     1      -8.556  -9.211  16.244  0.00  0.00    +0.225 C 
ATOM     11  O   UNL     1      -8.576  -8.488  15.845  0.00  0.00    -0.275 OA
BRANCH   5   4
ATOM      4  C   UNL     1      -9.155  -8.597  17.387  0.00  0.00    +0.125 C 
BRANCH   4   3
ATOM      3  C   UNL     1      -9.959  -8.424  17.322  0.00  0.00    +0.164 C 
BRANCH   3   2
ATOM      1  C   UNL     1     -10.719  -7.220  17.436  0.00  0.00    +0.174 C 
ATOM      2  O   UNL     1     -10.293  -7.832  17.789  0.00  0.00    -0.349 OA
ENDBRANCH   3   2
ENDBRANCH   4   3
ENDBRANCH   5   4
BRANCH   5   6
ATOM      6  C   UNL     1      -8.825  -9.987  17.412  0.00  0.00    +0.125 C 
BRANCH   6   7
ATOM      7  C   UNL     1      -8.724 -10.004  18.231  0.00  0.00    +0.164 C 
BRANCH   7   8
ATOM      8  O   UNL     1      -8.882 -10.696  18.652  0.00  0.00    -0.349 OA
ATOM      9  C   UNL     1      -8.606 -10.781  19.425  0.00  0.00    +0.174 C 
ENDBRANCH   7   8
ENDBRANCH   6   7
ENDBRANCH   5   6
ENDBRANCH  12  10
ENDBRANCH  14  12
TORSDOF 11
ENDMDL
MODEL 9
REMARK VINA RESULT:      -4.9     15.868     17.202
REMARK  Name = 
REMARK  11 active torsions:
REMARK  status: ('A' for Active; 'I' for Inactive)
REMARK    1  A    between atoms: O_2  and  C_3
REMARK    2  A    between atoms: C_3  and  C_4
REMARK    3  A    between atoms: C_4  and  N_5
REMARK    4  A    between atoms: N_5  and  C_6
REMARK    5  A    between atoms: C_6  and  C_7
REMARK    6  A    between atoms: C_7  and  O_8
REMARK    7  A    between atoms: C_10  and  C_12
REMARK    8  A    between atoms: C_12  and  C_14
REMARK    9  A    between atoms: C_21  and  N_22
REMARK   10  A    between atoms: C_23  and  C_25
REMARK   11  A    between atoms: C_28  and  O_29
REMARK                            x       y       z     vdW  Elec       q    Type
REMARK                         _______ _______ _______ _____ _____    ______ ____
ROOT
ATOM     14  C   UNL     1      -4.521  -9.248  10.339  0.00  0.00    +0.039 C 
ATOM     15  C   UNL     1      -3.901  -9.322   9.800  0.00  0.00    +0.003 C 
ATOM     16  C   UNL     1      -3.158  -9.574  10.057  0.00  0.00    +0.000 C 
ATOM     17  C   UNL     1      -3.036  -9.751  10.853  0.00  0.00    +0.002 C 
ATOM     18  C   UNL     1      -2.416  -9.826  10.314  0.00  0.00    +0.000 C 
ATOM     19  C   UNL     1      -2.292 -10.003  11.110  0.00  0.00    +0.002 C 
ATOM     20  C   UNL     1      -2.170 -10.180  11.907  0.00  0.00    +0.022 C 
ATOM     21  C   UNL     1      -2.789 -10.106  12.446  0.00  0.00    +0.096 C 
ATOM     33  C   UNL     1      -3.533  -9.854  12.189  0.00  0.00    +0.022 C 
ATOM     34  C   UNL     1      -4.152  -9.780  12.729  0.00  0.00    +0.002 C 
ATOM     35  C   UNL     1      -3.655  -9.677  11.393  0.00  0.00    +0.032 C 
ATOM     36  C   UNL     1      -4.398  -9.425  11.136  0.00  0.00    +0.152 C 
ATOM     37  O   UNL     1      -5.018  -9.351  11.675  0.00  0.00    -0.223 OA
ENDROOT
BRANCH  21  22
ATOM     22  N   UNL     1      -2.667 -10.283  13.243  0.00  0.00    -0.203 NA
ATOM     23  C   UNL     1      -1.957 -10.074  13.607  0.00  0.00    +0.265 C 
ATOM     24  O   UNL     1      -1.369  -9.688  13.174  0.00  0.00    -0.268 OA
BRANCH  23  25
ATOM     25  C   UNL     1      -1.833 -10.251  14.403  0.00  0.00    +0.055 A 
ATOM     26  C   UNL     1      -1.089 -10.141  14.740  0.00  0.00    +0.008 A 
ATOM     27  C   UNL     1      -0.966 -10.317  15.537  0.00  0.00    +0.037 A 
ATOM     28  C   UNL     1      -1.589 -10.604  15.996  0.00  0.00    +0.139 A 
ATOM     31  C   UNL     1      -2.333 -10.714  15.659  0.00  0.00    +0.037 A 
ATOM     32  C   UNL     1      -2.456 -10.538  14.863  0.00  0.00    +0.008 A 
BRANCH  28  29
ATOM     29  O   UNL     1      -1.466 -10.781  16.792  0.00  0.00    -0.471 OA
ATOM     30  C   UNL     1      -0.907 -10.357  17.227  0.00  0.00    +0.252 C 
ENDBRANCH  28  29
ENDBRANCH  23  25
ENDBRANCH  21  22
BRANCH  14  12
ATOM     12  C   UNL     1      -5.262  -8.996  10.083  0.00  0.00    +0.079 C 
ATOM     13  C   UNL     1      -5.483  -8.206  10.171  0.00  0.00    +0.010 C 
BRANCH  12  10
ATOM      5  N   UNL     1      -6.446  -9.262   9.327  0.00  0.00    -0.274 N 
ATOM     10  C   UNL     1      -5.784  -9.534   9.738  0.00  0.00    +0.225 C 
ATOM     11  O   UNL     1      -5.643 -10.345   9.804  0.00  0.00    -0.275 OA
BRANCH   5   4
ATOM      4  C   UNL     1      -6.967  -9.801   8.983  0.00  0.00    +0.125 C 
BRANCH   4   3
ATOM      3  C   UNL     1      -7.702  -9.943   9.330  0.00  0.00    +0.164 C 
BRANCH   3   2
ATOM      1  C   UNL     1      -8.849 -10.781   9.489  0.00  0.00    +0.174 C 
ATOM      2  O   UNL     1      -8.075 -10.671   9.225  0.00  0.00    -0.349 OA
ENDBRANCH   3   2
ENDBRANCH   4   3
ENDBRANCH   5   4
BRANCH   5   6
ATOM      6  C   UNL     1      -6.586  -8.452   9.262  0.00  0.00    +0.125 C 
BRANCH   6   7
ATOM      7  C   UNL     1      -7.293  -8.181   8.934  0.00  0.00    +0.164 C 
BRANCH   7   8
ATOM      8  O   UNL     1      -7.360  -7.396   8.689  0.00  0.00    -0.349 OA
ATOM      9  C   UNL     1      -7.931  -7.185   8.132  0.00  0.00    +0.174 C 
ENDBRANCH   7   8
ENDBRANCH   6   7
ENDBRANCH   5   6
ENDBRANCH  12  10
ENDBRANCH  14  12
TORSDOF 11
ENDMDL
MODEL 10
REMARK VINA RESULT:      -4.7     17.445     18.473
REMARK  Name = 
REMARK  11 active torsions:
REMARK  status: ('A' for Active; 'I' for Inactive)
REMARK    1  A    between atoms: O_2  and  C_3
REMARK    2  A    between atoms: C_3  and  C_4
REMARK    3  A    between atoms: C_4  and  N_5
REMARK    4  A    between atoms: N_5  and  C_6
REMARK    5  A    between atoms: C_6  and  C_7
REMARK    6  A    between atoms: C_7  and  O_8
REMARK    7  A    between atoms: C_10  and  C_12
REMARK    8  A    between atoms: C_12  and  C_14
REMARK    9  A    between atoms: C_21  and  N_22
REMARK   10  A    between atoms: C_23  and  C_25
REMARK   11  A    between atoms: C_28  and  O_29
REMARK                            x       y       z     vdW  Elec       q    Type
REMARK                         _______ _______ _______ _____ _____    ______ ____
ROOT
ATOM     14  C   UNL     1      -6.802  -9.601   8.944  0.00  0.00    +0.039 C 
ATOM     15  C   UNL     1      -6.452  -9.806   8.226  0.00  0.00    +0.003 C 
ATOM     16  C   UNL     1      -5.683 -10.105   8.212  0.00  0.00    +0.000 C 
ATOM     17  C   UNL     1      -5.264 -10.198   8.916  0.00  0.00    +0.002 C 
ATOM     18  C   UNL     1      -4.914 -10.403   8.198  0.00  0.00    +0.000 C 
ATOM     19  C   UNL     1      -4.494 -10.497   8.902  0.00  0.00    +0.002 C 
ATOM     20  C   UNL     1      -4.076 -10.590   9.607  0.00  0.00    +0.022 C 
ATOM     21  C   UNL     1      -4.425 -10.385  10.325  0.00  0.00    +0.096 C 
ATOM     33  C   UNL     1      -5.195 -10.086  10.339  0.00  0.00    +0.022 C 
ATOM     34  C   UNL     1      -5.544  -9.881  11.058  0.00  0.00    +0.002 C 
ATOM     35  C   UNL     1      -5.614  -9.993   9.635  0.00  0.00    +0.032 C 
ATOM     36  C   UNL     1      -6.383  -9.694   9.649  0.00  0.00    +0.152 C 
ATOM     37  O   UNL     1      -6.733  -9.489  10.367  0.00  0.00    -0.223 OA
ENDROOT
BRANCH  21  22
ATOM     22  N   UNL     1      -4.007 -10.478  11.030  0.00  0.00    -0.203 NA
ATOM     23  C   UNL     1      -3.208 -10.274  11.065  0.00  0.00    +0.265 C 
ATOM     24  O   UNL     1      -2.828  -9.976  10.395  0.00  0.00    -0.268 OA
BRANCH  23  25
ATOM     25  C   UNL     1      -2.789 -10.366  11.769  0.00  0.00    +0.055 A 
ATOM     26  C   UNL     1      -1.976 -10.501  11.751  0.00  0.00    +0.008 A 
ATOM     27  C   UNL     1      -1.556 -10.594  12.456  0.00  0.00    +0.037 A 
ATOM     28  C   UNL     1      -1.951 -10.551  13.179  0.00  0.00    +0.139 A 
ATOM     31  C   UNL     1      -2.764 -10.417  13.197  0.00  0.00    +0.037 A 
ATOM     32  C   UNL     1      -3.184 -10.324  12.493  0.00  0.00    +0.008 A 
BRANCH  28  29
ATOM     29  O   UNL     1      -1.532 -10.644  13.883  0.00  0.00    -0.471 OA
ATOM     30  C   UNL     1      -1.448 -10.007  14.400  0.00  0.00    +0.252 C 
ENDBRANCH  28  29
ENDBRANCH  23  25
ENDBRANCH  21  22
BRANCH  14  12
ATOM     12  C   UNL     1      -7.570  -9.303   8.958  0.00  0.00    +0.079 C 
ATOM     13  C   UNL     1      -8.161  -9.702   9.374  0.00  0.00    +0.010 C 
BRANCH  12  10
ATOM      5  N   UNL     1      -8.523  -8.317   8.553  0.00  0.00    -0.274 N 
ATOM     10  C   UNL     1      -7.750  -8.605   8.557  0.00  0.00    +0.225 C 
ATOM     11  O   UNL     1      -7.154  -8.194   8.158  0.00  0.00    -0.275 OA
BRANCH   5   4
ATOM      4  C   UNL     1      -8.701  -7.619   8.151  0.00  0.00    +0.125 C 
BRANCH   4   3
ATOM      3  C   UNL     1      -8.659  -6.895   8.544  0.00  0.00    +0.164 C 
BRANCH   3   2
ATOM      1  C   UNL     1      -8.980  -5.503   8.528  0.00  0.00    +0.174 C 
ATOM      2  O   UNL     1      -8.767  -6.192   8.128  0.00  0.00    -0.349 OA
ENDBRANCH   3   2
ENDBRANCH   4   3
ENDBRANCH   5   4
BRANCH   5   6
ATOM      6  C   UNL     1      -9.117  -8.728   8.951  0.00  0.00    +0.125 C 
BRANCH   6   7
ATOM      7  C   UNL     1      -9.899  -8.670   8.696  0.00  0.00    +0.164 C 
BRANCH   7   8
ATOM      8  O   UNL     1     -10.512  -8.634   9.249  0.00  0.00    -0.349 OA
ATOM      9  C   UNL     1     -10.691  -9.294   9.710  0.00  0.00    +0.174 C 
ENDBRANCH   7   8
ENDBRANCH   6   7
ENDBRANCH   5   6
ENDBRANCH  12  10
ENDBRANCH  14  12
TORSDOF 11
ENDMDL
