REMARK  Name = 
REMARK  2 active torsions:
REMARK  status: ('A' for Active; 'I' for Inactive)
REMARK    1  A    between atoms: N_6  and  C_7
REMARK    2  A    between atoms: C_7  and  C_8
REMARK                            x       y       z     vdW  Elec       q    Type
REMARK                         _______ _______ _______ _____ _____    ______ ____
ROOT
ATOM      1  O   UNL     1       3.027  -2.958   0.000  0.00  0.00    -0.252 OA
ATOM      2  C   UNL     1       3.282  -3.743   0.000  0.00  0.00    +0.312 C 
ATOM      3  N   UNL     1       4.067  -3.998   0.000  0.00  0.00    -0.261 N 
ATOM      4  C   UNL     1       4.781  -3.585   0.000  0.00  0.00    +0.112 C 
ATOM      5  C   UNL     1       5.496  -3.998   0.000  0.00  0.00    +0.094 C 
ATOM      6  N   UNL     1       5.496  -4.823   0.000  0.00  0.00    -0.266 NA
ATOM     18  C   UNL     1       4.781  -5.235   0.000  0.00  0.00    +0.094 C 
ATOM     19  C   UNL     1       4.067  -4.823   0.000  0.00  0.00    +0.113 C 
ATOM     20  C   UNL     1       3.282  -5.078   0.000  0.00  0.00    +0.122 C 
ATOM     21  N   UNL     1       2.797  -4.410   0.000  0.00  0.00    -0.226 N 
ATOM     22  C   UNL     1       1.972  -4.410   0.000  0.00  0.00    +0.139 A 
ATOM     23  N   UNL     1       1.560  -5.125   0.000  0.00  0.00    -0.229 NA
ATOM     24  C   UNL     1       0.735  -5.125   0.000  0.00  0.00    +0.100 A 
ATOM     25  C   UNL     1       0.322  -4.410   0.000  0.00  0.00    +0.021 A 
ATOM     26  C   UNL     1       0.735  -3.696   0.000  0.00  0.00    +0.004 A 
ATOM     27  C   UNL     1       1.560  -3.696   0.000  0.00  0.00    +0.035 A 
ENDROOT
BRANCH   6   7
ATOM      7  C   UNL     1       6.210  -5.235   0.000  0.00  0.00    +0.099 C 
BRANCH   7   8
ATOM      8  C   UNL     1       6.925  -4.823   0.000  0.00  0.00    -0.003 A 
ATOM      9  C   UNL     1       6.925  -3.998   0.000  0.00  0.00    +0.000 A 
ATOM     10  C   UNL     1       7.639  -3.585   0.000  0.00  0.00    +0.040 A 
ATOM     11  C   UNL     1       8.354  -3.998   0.000  0.00  0.00    +0.172 A 
ATOM     12  O   UNL     1       9.068  -3.585   0.000  0.00  0.00    -0.468 OA
ATOM     13  C   UNL     1       9.783  -3.998   0.000  0.00  0.00    +0.253 C 
ATOM     14  C   UNL     1       9.783  -4.823   0.000  0.00  0.00    +0.253 C 
ATOM     15  O   UNL     1       9.068  -5.235   0.000  0.00  0.00    -0.468 OA
ATOM     16  C   UNL     1       8.354  -4.823   0.000  0.00  0.00    +0.172 A 
ATOM     17  C   UNL     1       7.639  -5.235   0.000  0.00  0.00    +0.037 A 
ENDBRANCH   7   8
ENDBRANCH   6   7
TORSDOF 2
