MODEL 1
REMARK VINA RESULT:     -12.0      0.000      0.000
REMARK  Name = 
REMARK  6 active torsions:
REMARK  status: ('A' for Active; 'I' for Inactive)
REMARK    1  A    between atoms: C_2  and  C_4
REMARK    2  A    between atoms: C_4  and  C_5
REMARK    3  A    between atoms: C_5  and  N_6
REMARK    4  A    between atoms: C_7  and  C_9
REMARK    5  A    between atoms: C_11  and  N_12
REMARK    6  A    between atoms: N_15  and  C_16
REMARK                            x       y       z     vdW  Elec       q    Type
REMARK                         _______ _______ _______ _____ _____    ______ ____
ROOT
ATOM      9  C   UNL     1      -4.299   2.975  24.959  0.00  0.00    +0.033 C 
ATOM     10  C   UNL     1      -4.407   2.211  24.665  0.00  0.00    -0.002 C 
ATOM     11  C   UNL     1      -5.026   1.745  24.948  0.00  0.00    +0.152 C 
ATOM     24  C   UNL     1      -5.536   2.041  25.524  0.00  0.00    +0.206 C 
ATOM     25  O   UNL     1      -6.155   1.574  25.807  0.00  0.00    -0.218 OA
ATOM     26  C   UNL     1      -5.429   2.804  25.817  0.00  0.00    +0.189 C 
ATOM     27  O   UNL     1      -5.939   3.101  26.393  0.00  0.00    -0.220 OA
ATOM     28  C   UNL     1      -4.809   3.271  25.534  0.00  0.00    +0.066 C 
ENDROOT
BRANCH  11  12
ATOM     12  N   UNL     1      -5.134   0.981  24.654  0.00  0.00    -0.181 NA
ATOM     13  C   UNL     1      -4.568   0.399  24.801  0.00  0.00    +0.344 C 
ATOM     14  O   UNL     1      -3.895   0.581  25.240  0.00  0.00    -0.249 OA
ATOM     15  N   UNL     1      -4.676  -0.364  24.507  0.00  0.00    -0.159 NA
BRANCH  15  16
ATOM     16  C   UNL     1      -4.110  -0.946  24.654  0.00  0.00    +0.102 A 
ATOM     17  C   UNL     1      -3.749  -0.994  25.395  0.00  0.00    +0.021 A 
ATOM     18  C   UNL     1      -3.183  -1.576  25.541  0.00  0.00    +0.031 A 
ATOM     19  C   UNL     1      -2.978  -2.109  24.948  0.00  0.00    +0.142 A 
ATOM     20  F   UNL     1      -2.411  -2.691  25.094  0.00  0.00    -0.204 F 
ATOM     21  C   UNL     1      -3.337  -2.062  24.207  0.00  0.00    +0.061 A 
ATOM     22  C   UNL     1      -3.904  -1.480  24.061  0.00  0.00    +0.158 A 
ATOM     23  F   UNL     1      -4.264  -1.432  23.319  0.00  0.00    -0.203 F 
ENDBRANCH  15  16
ENDBRANCH  11  12
BRANCH   9   7
ATOM      6  N   UNL     1      -3.041   3.619  25.166  0.00  0.00    -0.201 NA
ATOM      7  C   UNL     1      -3.681   3.441  24.676  0.00  0.00    +0.261 C 
ATOM      8  O   UNL     1      -3.701   3.730  23.903  0.00  0.00    -0.269 OA
BRANCH   6   5
ATOM      5  C   UNL     1      -2.422   4.086  24.883  0.00  0.00    +0.125 C 
BRANCH   5   4
ATOM      4  C   UNL     1      -1.809   4.308  25.389  0.00  0.00    +0.112 C 
BRANCH   4   2
ATOM      1  N   UNL     1      -0.491   4.351  24.838  0.00  0.00    -0.088 NA
ATOM      2  C   UNL     1      -1.171   4.742  25.097  0.00  0.00    +0.263 C 
ATOM      3  O   UNL     1      -1.211   5.565  25.064  0.00  0.00    -0.272 OA
ENDBRANCH   4   2
ENDBRANCH   5   4
ENDBRANCH   6   5
ENDBRANCH   9   7
TORSDOF 6
ENDMDL
MODEL 2
REMARK VINA RESULT:     -11.1      2.365      5.109
REMARK  Name = 
REMARK  6 active torsions:
REMARK  status: ('A' for Active; 'I' for Inactive)
REMARK    1  A    between atoms: C_2  and  C_4
REMARK    2  A    between atoms: C_4  and  C_5
REMARK    3  A    between atoms: C_5  and  N_6
REMARK    4  A    between atoms: C_7  and  C_9
REMARK    5  A    between atoms: C_11  and  N_12
REMARK    6  A    between atoms: N_15  and  C_16
REMARK                            x       y       z     vdW  Elec       q    Type
REMARK                         _______ _______ _______ _____ _____    ______ ____
ROOT
ATOM      9  C   UNL     1      -4.390   1.026  24.693  0.00  0.00    +0.033 C 
ATOM     10  C   UNL     1      -3.924   1.565  25.110  0.00  0.00    -0.002 C 
ATOM     11  C   UNL     1      -4.266   2.245  25.428  0.00  0.00    +0.152 C 
ATOM     24  C   UNL     1      -5.072   2.386  25.331  0.00  0.00    +0.206 C 
ATOM     25  O   UNL     1      -5.414   3.067  25.650  0.00  0.00    -0.218 OA
ATOM     26  C   UNL     1      -5.538   1.848  24.914  0.00  0.00    +0.189 C 
ATOM     27  O   UNL     1      -6.345   1.989  24.817  0.00  0.00    -0.220 OA
ATOM     28  C   UNL     1      -5.196   1.167  24.596  0.00  0.00    +0.066 C 
ENDROOT
BRANCH  11  12
ATOM     12  N   UNL     1      -3.800   2.785  25.845  0.00  0.00    -0.181 NA
ATOM     13  C   UNL     1      -3.163   3.153  25.472  0.00  0.00    +0.344 C 
ATOM     14  O   UNL     1      -2.992   2.983  24.684  0.00  0.00    -0.249 OA
ATOM     15  N   UNL     1      -2.698   3.692  25.888  0.00  0.00    -0.159 NA
BRANCH  15  16
ATOM     16  C   UNL     1      -2.061   4.061  25.515  0.00  0.00    +0.102 A 
ATOM     17  C   UNL     1      -1.457   3.606  25.182  0.00  0.00    +0.021 A 
ATOM     18  C   UNL     1      -0.821   3.975  24.810  0.00  0.00    +0.031 A 
ATOM     19  C   UNL     1      -0.787   4.798  24.769  0.00  0.00    +0.142 A 
ATOM     20  F   UNL     1      -0.151   5.167  24.396  0.00  0.00    -0.204 F 
ATOM     21  C   UNL     1      -1.390   5.253  25.101  0.00  0.00    +0.061 A 
ATOM     22  C   UNL     1      -2.027   4.883  25.474  0.00  0.00    +0.158 A 
ATOM     23  F   UNL     1      -2.630   5.339  25.807  0.00  0.00    -0.203 F 
ENDBRANCH  15  16
ENDBRANCH  11  12
BRANCH   9   7
ATOM      6  N   UNL     1      -4.023  -0.349  24.819  0.00  0.00    -0.201 NA
ATOM      7  C   UNL     1      -4.048   0.346  24.375  0.00  0.00    +0.261 C 
ATOM      8  O   UNL     1      -3.731   0.361  23.613  0.00  0.00    -0.269 OA
BRANCH   6   5
ATOM      5  C   UNL     1      -3.681  -1.029  24.501  0.00  0.00    +0.125 C 
BRANCH   5   4
ATOM      4  C   UNL     1      -3.603  -1.707  24.965  0.00  0.00    +0.112 C 
BRANCH   4   2
ATOM      1  N   UNL     1      -2.499  -2.559  24.655  0.00  0.00    -0.088 NA
ATOM      2  C   UNL     1      -3.309  -2.402  24.632  0.00  0.00    +0.263 C 
ATOM      3  O   UNL     1      -3.824  -2.941  24.277  0.00  0.00    -0.272 OA
ENDBRANCH   4   2
ENDBRANCH   5   4
ENDBRANCH   6   5
ENDBRANCH   9   7
TORSDOF 6
ENDMDL
MODEL 3
REMARK VINA RESULT:     -10.6      2.645      4.549
REMARK  Name = 
REMARK  6 active torsions:
REMARK  status: ('A' for Active; 'I' for Inactive)
REMARK    1  A    between atoms: C_2  and  C_4
REMARK    2  A    between atoms: C_4  and  C_5
REMARK    3  A    between atoms: C_5  and  N_6
REMARK    4  A    between atoms: C_7  and  C_9
REMARK    5  A    between atoms: C_11  and  N_12
REMARK    6  A    between atoms: N_15  and  C_16
REMARK                            x       y       z     vdW  Elec       q    Type
REMARK                         _______ _______ _______ _____ _____    ______ ____
ROOT
ATOM      9  C   UNL     1      -0.800   3.155  25.143  0.00  0.00    +0.033 C 
ATOM     10  C   UNL     1      -1.547   3.143  25.495  0.00  0.00    -0.002 C 
ATOM     11  C   UNL     1      -1.974   3.844  25.578  0.00  0.00    +0.152 C 
ATOM     24  C   UNL     1      -1.656   4.556  25.311  0.00  0.00    +0.206 C 
ATOM     25  O   UNL     1      -2.083   5.257  25.395  0.00  0.00    -0.218 OA
ATOM     26  C   UNL     1      -0.909   4.568  24.959  0.00  0.00    +0.189 C 
ATOM     27  O   UNL     1      -0.591   5.280  24.692  0.00  0.00    -0.220 OA
ATOM     28  C   UNL     1      -0.482   3.866  24.876  0.00  0.00    +0.066 C 
ENDROOT
BRANCH  11  12
ATOM     12  N   UNL     1      -2.721   3.833  25.930  0.00  0.00    -0.181 NA
ATOM     13  C   UNL     1      -3.326   3.382  25.597  0.00  0.00    +0.344 C 
ATOM     14  O   UNL     1      -3.186   2.944  24.913  0.00  0.00    -0.249 OA
ATOM     15  N   UNL     1      -4.072   3.371  25.948  0.00  0.00    -0.159 NA
BRANCH  15  16
ATOM     16  C   UNL     1      -4.678   2.920  25.615  0.00  0.00    +0.102 A 
ATOM     17  C   UNL     1      -4.528   2.147  25.365  0.00  0.00    +0.021 A 
ATOM     18  C   UNL     1      -5.134   1.698  25.032  0.00  0.00    +0.031 A 
ATOM     19  C   UNL     1      -5.888   2.019  24.948  0.00  0.00    +0.142 A 
ATOM     20  F   UNL     1      -6.494   1.569  24.615  0.00  0.00    -0.204 F 
ATOM     21  C   UNL     1      -6.039   2.790  25.198  0.00  0.00    +0.061 A 
ATOM     22  C   UNL     1      -5.433   3.241  25.532  0.00  0.00    +0.158 A 
ATOM     23  F   UNL     1      -5.583   4.013  25.782  0.00  0.00    -0.203 F 
ENDBRANCH  15  16
ENDBRANCH  11  12
BRANCH   9   7
ATOM      6  N   UNL     1      -0.513   1.961  24.412  0.00  0.00    -0.201 NA
ATOM      7  C   UNL     1      -0.373   2.454  25.060  0.00  0.00    +0.261 C 
ATOM      8  O   UNL     1       0.193   2.246  25.623  0.00  0.00    -0.269 OA
BRANCH   6   5
ATOM      5  C   UNL     1      -0.086   1.260  24.329  0.00  0.00    +0.125 C 
BRANCH   5   4
ATOM      4  C   UNL     1      -0.274   0.733  23.722  0.00  0.00    +0.112 C 
BRANCH   4   2
ATOM      1  N   UNL     1      -0.104  -0.651  24.035  0.00  0.00    -0.088 NA
ATOM      2  C   UNL     1       0.149   0.030  23.642  0.00  0.00    +0.263 C 
ATOM      3  O   UNL     1       0.825   0.006  23.170  0.00  0.00    -0.272 OA
ENDBRANCH   4   2
ENDBRANCH   5   4
ENDBRANCH   6   5
ENDBRANCH   9   7
TORSDOF 6
ENDMDL
MODEL 4
REMARK VINA RESULT:     -10.5      2.012      3.434
REMARK  Name = 
REMARK  6 active torsions:
REMARK  status: ('A' for Active; 'I' for Inactive)
REMARK    1  A    between atoms: C_2  and  C_4
REMARK    2  A    between atoms: C_4  and  C_5
REMARK    3  A    between atoms: C_5  and  N_6
REMARK    4  A    between atoms: C_7  and  C_9
REMARK    5  A    between atoms: C_11  and  N_12
REMARK    6  A    between atoms: N_15  and  C_16
REMARK                            x       y       z     vdW  Elec       q    Type
REMARK                         _______ _______ _______ _____ _____    ______ ____
ROOT
ATOM      9  C   UNL     1      -1.901   2.735  25.227  0.00  0.00    +0.033 C 
ATOM     10  C   UNL     1      -1.801   1.949  25.461  0.00  0.00    -0.002 C 
ATOM     11  C   UNL     1      -1.152   1.519  25.190  0.00  0.00    +0.152 C 
ATOM     24  C   UNL     1      -0.603   1.872  24.688  0.00  0.00    +0.206 C 
ATOM     25  O   UNL     1       0.047   1.441  24.417  0.00  0.00    -0.218 OA
ATOM     26  C   UNL     1      -0.702   2.657  24.454  0.00  0.00    +0.189 C 
ATOM     27  O   UNL     1      -0.153   3.011  23.951  0.00  0.00    -0.220 OA
ATOM     28  C   UNL     1      -1.352   3.088  24.724  0.00  0.00    +0.066 C 
ENDROOT
BRANCH  11  12
ATOM     12  N   UNL     1      -1.052   0.733  25.424  0.00  0.00    -0.181 NA
ATOM     13  C   UNL     1      -1.614   0.167  25.214  0.00  0.00    +0.344 C 
ATOM     14  O   UNL     1      -2.274   0.384  24.773  0.00  0.00    -0.249 OA
ATOM     15  N   UNL     1      -1.513  -0.618  25.448  0.00  0.00    -0.159 NA
BRANCH  15  16
ATOM     16  C   UNL     1      -2.075  -1.186  25.239  0.00  0.00    +0.102 A 
ATOM     17  C   UNL     1      -2.853  -1.114  25.507  0.00  0.00    +0.021 A 
ATOM     18  C   UNL     1      -3.414  -1.681  25.298  0.00  0.00    +0.031 A 
ATOM     19  C   UNL     1      -3.200  -2.318  24.821  0.00  0.00    +0.142 A 
ATOM     20  F   UNL     1      -3.761  -2.885  24.612  0.00  0.00    -0.204 F 
ATOM     21  C   UNL     1      -2.423  -2.390  24.553  0.00  0.00    +0.061 A 
ATOM     22  C   UNL     1      -1.861  -1.822  24.762  0.00  0.00    +0.158 A 
ATOM     23  F   UNL     1      -1.083  -1.894  24.494  0.00  0.00    -0.203 F 
ENDBRANCH  15  16
ENDBRANCH  11  12
BRANCH   9   7
ATOM      6  N   UNL     1      -3.305   2.999  25.206  0.00  0.00    -0.201 NA
ATOM      7  C   UNL     1      -2.551   3.165  25.498  0.00  0.00    +0.261 C 
ATOM      8  O   UNL     1      -2.447   3.761  26.059  0.00  0.00    -0.269 OA
BRANCH   6   5
ATOM      5  C   UNL     1      -3.955   3.430  25.477  0.00  0.00    +0.125 C 
BRANCH   5   4
ATOM      4  C   UNL     1      -4.712   3.253  25.198  0.00  0.00    +0.112 C 
BRANCH   4   2
ATOM      1  N   UNL     1      -5.733   2.840  26.108  0.00  0.00    -0.088 NA
ATOM      2  C   UNL     1      -5.372   3.431  25.658  0.00  0.00    +0.263 C 
ATOM      3  O   UNL     1      -5.673   4.200  25.669  0.00  0.00    -0.272 OA
ENDBRANCH   4   2
ENDBRANCH   5   4
ENDBRANCH   6   5
ENDBRANCH   9   7
TORSDOF 6
ENDMDL
MODEL 5
REMARK VINA RESULT:     -10.5      2.620      3.777
REMARK  Name = 
REMARK  6 active torsions:
REMARK  status: ('A' for Active; 'I' for Inactive)
REMARK    1  A    between atoms: C_2  and  C_4
REMARK    2  A    between atoms: C_4  and  C_5
REMARK    3  A    between atoms: C_5  and  N_6
REMARK    4  A    between atoms: C_7  and  C_9
REMARK    5  A    between atoms: C_11  and  N_12
REMARK    6  A    between atoms: N_15  and  C_16
REMARK                            x       y       z     vdW  Elec       q    Type
REMARK                         _______ _______ _______ _____ _____    ______ ____
ROOT
ATOM      9  C   UNL     1      -0.259   1.486  24.867  0.00  0.00    +0.033 C 
ATOM     10  C   UNL     1      -0.651   0.796  25.096  0.00  0.00    -0.002 C 
ATOM     11  C   UNL     1      -0.482   0.083  24.718  0.00  0.00    +0.152 C 
ATOM     24  C   UNL     1       0.077   0.058  24.113  0.00  0.00    +0.206 C 
ATOM     25  O   UNL     1       0.246  -0.656  23.736  0.00  0.00    -0.218 OA
ATOM     26  C   UNL     1       0.469   0.747  23.885  0.00  0.00    +0.189 C 
ATOM     27  O   UNL     1       1.029   0.723  23.279  0.00  0.00    -0.220 OA
ATOM     28  C   UNL     1       0.300   1.462  24.262  0.00  0.00    +0.066 C 
ENDROOT
BRANCH  11  12
ATOM     12  N   UNL     1      -0.873  -0.607  24.947  0.00  0.00    -0.181 NA
ATOM     13  C   UNL     1      -1.639  -0.755  24.676  0.00  0.00    +0.344 C 
ATOM     14  O   UNL     1      -2.012  -0.215  24.178  0.00  0.00    -0.249 OA
ATOM     15  N   UNL     1      -2.029  -1.445  24.905  0.00  0.00    -0.159 NA
BRANCH  15  16
ATOM     16  C   UNL     1      -2.795  -1.593  24.634  0.00  0.00    +0.102 A 
ATOM     17  C   UNL     1      -3.367  -0.998  24.666  0.00  0.00    +0.021 A 
ATOM     18  C   UNL     1      -4.132  -1.147  24.395  0.00  0.00    +0.031 A 
ATOM     19  C   UNL     1      -4.326  -1.889  24.094  0.00  0.00    +0.142 A 
ATOM     20  F   UNL     1      -5.090  -2.037  23.823  0.00  0.00    -0.204 F 
ATOM     21  C   UNL     1      -3.755  -2.483  24.061  0.00  0.00    +0.061 A 
ATOM     22  C   UNL     1      -2.989  -2.335  24.332  0.00  0.00    +0.158 A 
ATOM     23  F   UNL     1      -2.418  -2.930  24.300  0.00  0.00    -0.203 F 
ENDBRANCH  15  16
ENDBRANCH  11  12
BRANCH   9   7
ATOM      6  N   UNL     1      -0.969   2.726  24.910  0.00  0.00    -0.201 NA
ATOM      7  C   UNL     1      -0.428   2.200  25.245  0.00  0.00    +0.261 C 
ATOM      8  O   UNL     1      -0.056   2.389  25.957  0.00  0.00    -0.269 OA
BRANCH   6   5
ATOM      5  C   UNL     1      -1.138   3.439  25.287  0.00  0.00    +0.125 C 
BRANCH   5   4
ATOM      4  C   UNL     1      -1.701   3.952  24.967  0.00  0.00    +0.112 C 
BRANCH   4   2
ATOM      1  N   UNL     1      -2.567   4.641  25.871  0.00  0.00    -0.088 NA
ATOM      2  C   UNL     1      -1.909   4.639  25.372  0.00  0.00    +0.263 C 
ATOM      3  O   UNL     1      -1.460   5.325  25.279  0.00  0.00    -0.272 OA
ENDBRANCH   4   2
ENDBRANCH   5   4
ENDBRANCH   6   5
ENDBRANCH   9   7
TORSDOF 6
ENDMDL
MODEL 6
REMARK VINA RESULT:      -9.9      3.011      5.810
REMARK  Name = 
REMARK  6 active torsions:
REMARK  status: ('A' for Active; 'I' for Inactive)
REMARK    1  A    between atoms: C_2  and  C_4
REMARK    2  A    between atoms: C_4  and  C_5
REMARK    3  A    between atoms: C_5  and  N_6
REMARK    4  A    between atoms: C_7  and  C_9
REMARK    5  A    between atoms: C_11  and  N_12
REMARK    6  A    between atoms: N_15  and  C_16
REMARK                            x       y       z     vdW  Elec       q    Type
REMARK                         _______ _______ _______ _____ _____    ______ ____
ROOT
ATOM      9  C   UNL     1      -0.896  -0.063  24.772  0.00  0.00    +0.033 C 
ATOM     10  C   UNL     1      -1.099   0.679  25.073  0.00  0.00    -0.002 C 
ATOM     11  C   UNL     1      -0.707   1.353  24.803  0.00  0.00    +0.152 C 
ATOM     24  C   UNL     1      -0.115   1.286  24.234  0.00  0.00    +0.206 C 
ATOM     25  O   UNL     1       0.277   1.961  23.964  0.00  0.00    -0.218 OA
ATOM     26  C   UNL     1       0.087   0.545  23.934  0.00  0.00    +0.189 C 
ATOM     27  O   UNL     1       0.680   0.478  23.364  0.00  0.00    -0.220 OA
ATOM     28  C   UNL     1      -0.304  -0.130  24.204  0.00  0.00    +0.066 C 
ENDROOT
BRANCH  11  12
ATOM     12  N   UNL     1      -0.909   2.095  25.104  0.00  0.00    -0.181 NA
ATOM     13  C   UNL     1      -1.687   2.364  25.048  0.00  0.00    +0.344 C 
ATOM     14  O   UNL     1      -2.262   1.892  24.693  0.00  0.00    -0.249 OA
ATOM     15  N   UNL     1      -1.889   3.105  25.348  0.00  0.00    -0.159 NA
BRANCH  15  16
ATOM     16  C   UNL     1      -2.668   3.374  25.293  0.00  0.00    +0.102 A 
ATOM     17  C   UNL     1      -3.085   3.286  24.586  0.00  0.00    +0.021 A 
ATOM     18  C   UNL     1      -3.863   3.555  24.531  0.00  0.00    +0.031 A 
ATOM     19  C   UNL     1      -4.223   3.912  25.181  0.00  0.00    +0.142 A 
ATOM     20  F   UNL     1      -5.001   4.181  25.126  0.00  0.00    -0.204 F 
ATOM     21  C   UNL     1      -3.806   4.001  25.887  0.00  0.00    +0.061 A 
ATOM     22  C   UNL     1      -3.027   3.731  25.943  0.00  0.00    +0.158 A 
ATOM     23  F   UNL     1      -2.610   3.820  26.649  0.00  0.00    -0.203 F 
ENDBRANCH  15  16
ENDBRANCH  11  12
BRANCH   9   7
ATOM      6  N   UNL     1      -1.975  -0.994  24.664  0.00  0.00    -0.201 NA
ATOM      7  C   UNL     1      -1.288  -0.737  25.042  0.00  0.00    +0.261 C 
ATOM      8  O   UNL     1      -0.993  -1.154  25.690  0.00  0.00    -0.269 OA
BRANCH   6   5
ATOM      5  C   UNL     1      -2.366  -1.668  24.933  0.00  0.00    +0.125 C 
BRANCH   5   4
ATOM      4  C   UNL     1      -3.161  -1.788  24.743  0.00  0.00    +0.112 C 
BRANCH   4   2
ATOM      1  N   UNL     1      -3.765  -2.892  24.067  0.00  0.00    -0.088 NA
ATOM      2  C   UNL     1      -3.479  -2.548  24.761  0.00  0.00    +0.263 C 
ATOM      3  O   UNL     1      -3.510  -2.966  25.472  0.00  0.00    -0.272 OA
ENDBRANCH   4   2
ENDBRANCH   5   4
ENDBRANCH   6   5
ENDBRANCH   9   7
TORSDOF 6
ENDMDL
MODEL 7
REMARK VINA RESULT:      -9.9      2.833      4.571
REMARK  Name = 
REMARK  6 active torsions:
REMARK  status: ('A' for Active; 'I' for Inactive)
REMARK    1  A    between atoms: C_2  and  C_4
REMARK    2  A    between atoms: C_4  and  C_5
REMARK    3  A    between atoms: C_5  and  N_6
REMARK    4  A    between atoms: C_7  and  C_9
REMARK    5  A    between atoms: C_11  and  N_12
REMARK    6  A    between atoms: N_15  and  C_16
REMARK                            x       y       z     vdW  Elec       q    Type
REMARK                         _______ _______ _______ _____ _____    ______ ____
ROOT
ATOM      9  C   UNL     1      -1.991  -0.832  24.668  0.00  0.00    +0.033 C 
ATOM     10  C   UNL     1      -2.576  -0.307  24.416  0.00  0.00    -0.002 C 
ATOM     11  C   UNL     1      -3.367  -0.540  24.421  0.00  0.00    +0.152 C 
ATOM     24  C   UNL     1      -3.573  -1.296  24.678  0.00  0.00    +0.206 C 
ATOM     25  O   UNL     1      -4.366  -1.528  24.683  0.00  0.00    -0.218 OA
ATOM     26  C   UNL     1      -2.989  -1.820  24.930  0.00  0.00    +0.189 C 
ATOM     27  O   UNL     1      -3.195  -2.576  25.187  0.00  0.00    -0.220 OA
ATOM     28  C   UNL     1      -2.197  -1.587  24.925  0.00  0.00    +0.066 C 
ENDROOT
BRANCH  11  12
ATOM     12  N   UNL     1      -3.953  -0.016  24.169  0.00  0.00    -0.181 NA
ATOM     13  C   UNL     1      -4.063   0.700  24.564  0.00  0.00    +0.344 C 
ATOM     14  O   UNL     1      -3.589   0.892  25.210  0.00  0.00    -0.249 OA
ATOM     15  N   UNL     1      -4.648   1.224  24.312  0.00  0.00    -0.159 NA
BRANCH  15  16
ATOM     16  C   UNL     1      -4.759   1.940  24.707  0.00  0.00    +0.102 A 
ATOM     17  C   UNL     1      -4.140   2.485  24.754  0.00  0.00    +0.021 A 
ATOM     18  C   UNL     1      -4.251   3.201  25.148  0.00  0.00    +0.031 A 
ATOM     19  C   UNL     1      -4.978   3.372  25.496  0.00  0.00    +0.142 A 
ATOM     20  F   UNL     1      -5.089   4.087  25.891  0.00  0.00    -0.204 F 
ATOM     21  C   UNL     1      -5.596   2.828  25.450  0.00  0.00    +0.061 A 
ATOM     22  C   UNL     1      -5.486   2.111  25.055  0.00  0.00    +0.158 A 
ATOM     23  F   UNL     1      -6.104   1.566  25.008  0.00  0.00    -0.203 F 
ENDBRANCH  15  16
ENDBRANCH  11  12
BRANCH   9   7
ATOM      6  N   UNL     1      -0.814  -0.463  23.945  0.00  0.00    -0.201 NA
ATOM      7  C   UNL     1      -1.199  -0.599  24.663  0.00  0.00    +0.261 C 
ATOM      8  O   UNL     1      -0.793  -0.501  25.374  0.00  0.00    -0.269 OA
BRANCH   6   5
ATOM      5  C   UNL     1      -0.023  -0.230  23.940  0.00  0.00    +0.125 C 
BRANCH   5   4
ATOM      4  C   UNL     1       0.378  -0.148  23.223  0.00  0.00    +0.112 C 
BRANCH   4   2
ATOM      1  N   UNL     1       1.757  -0.121  22.852  0.00  0.00    -0.088 NA
ATOM      2  C   UNL     1       1.103   0.244  23.199  0.00  0.00    +0.263 C 
ATOM      3  O   UNL     1       1.175   1.000  23.522  0.00  0.00    -0.272 OA
ENDBRANCH   4   2
ENDBRANCH   5   4
ENDBRANCH   6   5
ENDBRANCH   9   7
TORSDOF 6
ENDMDL
