MODEL 1
REMARK VINA RESULT:     -11.1      0.000      0.000
REMARK  Name = 
REMARK  3 active torsions:
REMARK  status: ('A' for Active; 'I' for Inactive)
REMARK    1  A    between atoms: N_3  and  C_18
REMARK    2  A    between atoms: N_7  and  C_8
REMARK    3  A    between atoms: C_8  and  C_9
REMARK                            x       y       z     vdW  Elec       q    Type
REMARK                         _______ _______ _______ _____ _____    ______ ____
ROOT
ATOM      1  O   UNL     1      -5.047  -0.028  25.140  0.00  0.00    -0.252 OA
ATOM      2  C   UNL     1      -4.351   0.228  24.779  0.00  0.00    +0.307 C 
ATOM      3  N   UNL     1      -3.759  -0.257  24.470  0.00  0.00    -0.264 N 
ATOM      4  C   UNL     1      -3.166   0.229  24.163  0.00  0.00    +0.116 C 
ATOM      5  C   UNL     1      -3.392   1.013  24.282  0.00  0.00    +0.113 C 
ATOM      6  C   UNL     1      -3.026   1.728  24.094  0.00  0.00    +0.094 C 
ATOM      7  N   UNL     1      -3.392   2.442  24.286  0.00  0.00    -0.266 NA
ATOM     15  C   UNL     1      -4.124   2.441  24.666  0.00  0.00    +0.094 C 
ATOM     16  C   UNL     1      -4.490   1.727  24.855  0.00  0.00    +0.112 C 
ATOM     17  N   UNL     1      -4.124   1.012  24.663  0.00  0.00    -0.261 N 
ENDROOT
BRANCH   3  18
ATOM     18  C   UNL     1      -3.759  -1.082  24.468  0.00  0.00    +0.077 C 
ATOM     19  C   UNL     1      -4.149  -1.493  23.869  0.00  0.00    +0.020 C 
ATOM     20  C   UNL     1      -4.150  -2.318  23.868  0.00  0.00    +0.002 C 
ATOM     21  C   UNL     1      -3.760  -2.732  24.465  0.00  0.00    +0.000 C 
ATOM     22  C   UNL     1      -3.369  -2.321  25.064  0.00  0.00    +0.002 C 
ATOM     23  C   UNL     1      -3.369  -1.496  25.066  0.00  0.00    +0.020 C 
ENDBRANCH   3  18
BRANCH   7   8
ATOM      8  C   UNL     1      -3.026   3.157  24.097  0.00  0.00    +0.099 C 
BRANCH   8   9
ATOM      9  C   UNL     1      -2.510   3.511  24.634  0.00  0.00    -0.003 A 
ATOM     10  C   UNL     1      -1.698   3.379  24.576  0.00  0.00    +0.018 A 
ATOM     11  C   UNL     1      -1.182   3.734  25.113  0.00  0.00    +0.099 A 
ATOM     12  N   UNL     1      -1.479   4.220  25.709  0.00  0.00    -0.242 NA
ATOM     13  C   UNL     1      -2.291   4.353  25.769  0.00  0.00    +0.099 A 
ATOM     14  C   UNL     1      -2.807   3.998  25.231  0.00  0.00    +0.018 A 
ENDBRANCH   8   9
ENDBRANCH   7   8
TORSDOF 3
ENDMDL
MODEL 2
REMARK VINA RESULT:     -10.9      1.249      4.898
REMARK  Name = 
REMARK  3 active torsions:
REMARK  status: ('A' for Active; 'I' for Inactive)
REMARK    1  A    between atoms: N_3  and  C_18
REMARK    2  A    between atoms: N_7  and  C_8
REMARK    3  A    between atoms: C_8  and  C_9
REMARK                            x       y       z     vdW  Elec       q    Type
REMARK                         _______ _______ _______ _____ _____    ______ ____
ROOT
ATOM      1  O   UNL     1      -2.071   2.605  23.207  0.00  0.00    -0.252 OA
ATOM      2  C   UNL     1      -2.417   2.324  23.902  0.00  0.00    +0.307 C 
ATOM      3  N   UNL     1      -2.345   2.664  24.650  0.00  0.00    -0.264 N 
ATOM      4  C   UNL     1      -2.779   2.204  25.181  0.00  0.00    +0.116 C 
ATOM      5  C   UNL     1      -3.119   1.582  24.760  0.00  0.00    +0.113 C 
ATOM      6  C   UNL     1      -3.604   0.957  24.994  0.00  0.00    +0.094 C 
ATOM      7  N   UNL     1      -3.865   0.406  24.439  0.00  0.00    -0.266 NA
ATOM     15  C   UNL     1      -3.641   0.480  23.648  0.00  0.00    +0.094 C 
ATOM     16  C   UNL     1      -3.156   1.105  23.413  0.00  0.00    +0.112 C 
ATOM     17  N   UNL     1      -2.895   1.656  23.970  0.00  0.00    -0.261 N 
ENDROOT
BRANCH   3  18
ATOM     18  C   UNL     1      -1.914   3.342  24.836  0.00  0.00    +0.077 C 
ATOM     19  C   UNL     1      -1.094   3.304  24.907  0.00  0.00    +0.020 C 
ATOM     20  C   UNL     1      -0.663   3.983  25.093  0.00  0.00    +0.002 C 
ATOM     21  C   UNL     1      -1.054   4.700  25.207  0.00  0.00    +0.000 C 
ATOM     22  C   UNL     1      -1.875   4.740  25.136  0.00  0.00    +0.002 C 
ATOM     23  C   UNL     1      -2.305   4.061  24.950  0.00  0.00    +0.020 C 
ENDBRANCH   3  18
BRANCH   7   8
ATOM      8  C   UNL     1      -4.349  -0.219  24.673  0.00  0.00    +0.099 C 
BRANCH   8   9
ATOM      9  C   UNL     1      -4.047  -0.985  24.708  0.00  0.00    -0.003 A 
ATOM     10  C   UNL     1      -3.636  -1.237  25.378  0.00  0.00    +0.018 A 
ATOM     11  C   UNL     1      -3.334  -2.003  25.414  0.00  0.00    +0.099 A 
ATOM     12  N   UNL     1      -3.442  -2.519  24.779  0.00  0.00    -0.242 NA
ATOM     13  C   UNL     1      -3.852  -2.268  24.109  0.00  0.00    +0.099 A 
ATOM     14  C   UNL     1      -4.155  -1.501  24.074  0.00  0.00    +0.018 A 
ENDBRANCH   8   9
ENDBRANCH   7   8
TORSDOF 3
ENDMDL
MODEL 3
REMARK VINA RESULT:     -10.5      1.709      2.189
REMARK  Name = 
REMARK  3 active torsions:
REMARK  status: ('A' for Active; 'I' for Inactive)
REMARK    1  A    between atoms: N_3  and  C_18
REMARK    2  A    between atoms: N_7  and  C_8
REMARK    3  A    between atoms: C_8  and  C_9
REMARK                            x       y       z     vdW  Elec       q    Type
REMARK                         _______ _______ _______ _____ _____    ______ ____
ROOT
ATOM      1  O   UNL     1      -1.275  -0.858  23.905  0.00  0.00    -0.252 OA
ATOM      2  C   UNL     1      -1.635  -0.350  24.447  0.00  0.00    +0.307 C 
ATOM      3  N   UNL     1      -2.387  -0.444  24.773  0.00  0.00    -0.264 N 
ATOM      4  C   UNL     1      -2.523   0.189  25.285  0.00  0.00    +0.116 C 
ATOM      5  C   UNL     1      -1.855   0.672  25.276  0.00  0.00    +0.113 C 
ATOM      6  C   UNL     1      -1.675   1.374  25.672  0.00  0.00    +0.094 C 
ATOM      7  N   UNL     1      -0.947   1.741  25.550  0.00  0.00    -0.266 NA
ATOM     15  C   UNL     1      -0.398   1.408  25.032  0.00  0.00    +0.094 C 
ATOM     16  C   UNL     1      -0.577   0.707  24.635  0.00  0.00    +0.112 C 
ATOM     17  N   UNL     1      -1.306   0.339  24.757  0.00  0.00    -0.261 N 
ENDROOT
BRANCH   3  18
ATOM     18  C   UNL     1      -2.911  -1.061  24.614  0.00  0.00    +0.077 C 
ATOM     19  C   UNL     1      -2.814  -1.790  24.986  0.00  0.00    +0.020 C 
ATOM     20  C   UNL     1      -3.338  -2.408  24.828  0.00  0.00    +0.002 C 
ATOM     21  C   UNL     1      -3.959  -2.295  24.298  0.00  0.00    +0.000 C 
ATOM     22  C   UNL     1      -4.057  -1.565  23.925  0.00  0.00    +0.002 C 
ATOM     23  C   UNL     1      -3.533  -0.948  24.083  0.00  0.00    +0.020 C 
ENDBRANCH   3  18
BRANCH   7   8
ATOM      8  C   UNL     1      -0.767   2.443  25.946  0.00  0.00    +0.099 C 
BRANCH   8   9
ATOM      9  C   UNL     1      -1.025   3.165  25.645  0.00  0.00    -0.003 A 
ATOM     10  C   UNL     1      -0.557   3.580  25.107  0.00  0.00    +0.018 A 
ATOM     11  C   UNL     1      -0.815   4.302  24.805  0.00  0.00    +0.099 A 
ATOM     12  N   UNL     1      -1.543   4.611  25.042  0.00  0.00    -0.242 NA
ATOM     13  C   UNL     1      -2.012   4.198  25.579  0.00  0.00    +0.099 A 
ATOM     14  C   UNL     1      -1.753   3.474  25.881  0.00  0.00    +0.018 A 
ENDBRANCH   8   9
ENDBRANCH   7   8
TORSDOF 3
ENDMDL
