REMARK  Name = 
REMARK  4 active torsions:
REMARK  status: ('A' for Active; 'I' for Inactive)
REMARK    1  A    between atoms: O_2  and  C_3
REMARK    2  A    between atoms: C_6  and  C_7
REMARK    3  A    between atoms: C_7  and  N_8
REMARK    4  A    between atoms: N_20  and  C_21
REMARK                            x       y       z     vdW  Elec       q    Type
REMARK                         _______ _______ _______ _____ _____    ______ ____
ROOT
ATOM      8  N   UNL     1       0.654  -0.698   0.000  0.00  0.00    -0.258 N 
ATOM      9  C   UNL     1       1.139  -0.030   0.000  0.00  0.00    +0.117 C 
ATOM     10  C   UNL     1       1.923  -0.285   0.000  0.00  0.00    +0.117 C 
ATOM     11  C   UNL     1       2.638   0.127   0.000  0.00  0.00    +0.117 C 
ATOM     12  N   UNL     1       3.352  -0.285   0.000  0.00  0.00    -0.259 N 
ATOM     13  C   UNL     1       3.352  -1.110   0.000  0.00  0.00    +0.117 C 
ATOM     14  C   UNL     1       2.638  -1.523   0.000  0.00  0.00    +0.117 C 
ATOM     15  N   UNL     1       1.923  -1.110   0.000  0.00  0.00    -0.261 N 
ATOM     16  C   UNL     1       1.139  -1.365   0.000  0.00  0.00    +0.308 C 
ATOM     17  O   UNL     1       0.884  -2.150   0.000  0.00  0.00    -0.252 OA
ATOM     18  C   UNL     1       4.067   0.127   0.000  0.00  0.00    +0.323 C 
ATOM     19  O   UNL     1       4.781  -0.285   0.000  0.00  0.00    -0.251 OA
ATOM     20  N   UNL     1       4.067   0.952   0.000  0.00  0.00    -0.190 NA
ENDROOT
BRANCH  20  21
ATOM     21  C   UNL     1       4.781   1.365   0.000  0.00  0.00    +0.097 C 
ATOM     22  C   UNL     1       4.781   2.190   0.000  0.00  0.00    +0.023 C 
ATOM     23  C   UNL     1       5.496   0.952   0.000  0.00  0.00    +0.023 C 
ENDBRANCH  20  21
BRANCH   8   7
ATOM      7  C   UNL     1      -0.171  -0.698   0.000  0.00  0.00    +0.122 C 
BRANCH   7   6
ATOM      3  C   UNL     1      -1.409  -2.841   0.000  0.00  0.00    +0.139 A 
ATOM      4  C   UNL     1      -1.821  -2.127   0.000  0.00  0.00    +0.037 A 
ATOM      5  C   UNL     1      -1.409  -1.412   0.000  0.00  0.00    +0.001 A 
ATOM      6  C   UNL     1      -0.584  -1.412   0.000  0.00  0.00    -0.002 A 
ATOM     24  C   UNL     1      -0.171  -2.127   0.000  0.00  0.00    +0.001 A 
ATOM     25  C   UNL     1      -0.584  -2.841   0.000  0.00  0.00    +0.037 A 
BRANCH   3   2
ATOM      1  C   UNL     1      -1.409  -4.270   0.000  0.00  0.00    +0.252 C 
ATOM      2  O   UNL     1      -1.821  -3.556   0.000  0.00  0.00    -0.471 OA
ENDBRANCH   3   2
ENDBRANCH   7   6
ENDBRANCH   8   7
TORSDOF 4
