MODEL 1
REMARK VINA RESULT:     -12.3      0.000      0.000
REMARK  Name = 
REMARK  6 active torsions:
REMARK  status: ('A' for Active; 'I' for Inactive)
REMARK    1  A    between atoms: C_2  and  C_4
REMARK    2  A    between atoms: C_6  and  C_7
REMARK    3  A    between atoms: C_7  and  C_8
REMARK    4  A    between atoms: C_18  and  C_19
REMARK    5  A    between atoms: C_19  and  N_20
REMARK    6  A    between atoms: C_21  and  C_23
REMARK                            x       y       z     vdW  Elec       q    Type
REMARK                         _______ _______ _______ _____ _____    ______ ____
ROOT
ATOM      4  C   UNL     1      -3.372   2.046  24.590  0.00  0.00    +0.006 C 
ATOM      5  C   UNL     1      -2.809   2.621  24.774  0.00  0.00    +0.005 C 
ATOM      6  C   UNL     1      -2.075   2.397  25.074  0.00  0.00    +0.027 C 
ATOM     15  C   UNL     1      -1.902   1.599  25.192  0.00  0.00    -0.048 C 
ATOM     16  C   UNL     1      -1.167   1.375  25.492  0.00  0.00    +0.026 C 
ATOM     17  C   UNL     1      -2.465   1.024  25.008  0.00  0.00    -0.033 C 
ATOM     18  C   UNL     1      -3.200   1.248  24.707  0.00  0.00    +0.043 C 
ENDROOT
BRANCH   4   2
ATOM      1  C   UNL     1      -4.191   2.437  23.486  0.00  0.00    +0.000 C 
ATOM      2  C   UNL     1      -4.107   2.270  24.290  0.00  0.00    +0.000 C 
ATOM      3  C   UNL     1      -4.758   2.326  24.793  0.00  0.00    +0.000 C 
ENDBRANCH   4   2
BRANCH   6   7
ATOM      7  C   UNL     1      -1.512   2.972  25.258  0.00  0.00    +0.089 C 
BRANCH   7   8
ATOM      8  C   UNL     1      -1.753   3.723  25.502  0.00  0.00    +0.226 C 
ATOM      9  O   UNL     1      -2.356   3.801  26.059  0.00  0.00    -0.275 OA
ATOM     10  N   UNL     1      -1.390   4.395  25.190  0.00  0.00    -0.280 N 
ATOM     11  C   UNL     1      -0.782   4.403  24.631  0.00  0.00    +0.093 C 
ATOM     12  C   UNL     1      -0.588   5.189  24.477  0.00  0.00    +0.023 C 
ATOM     13  C   UNL     1      -1.076   5.667  24.940  0.00  0.00    +0.023 C 
ATOM     14  C   UNL     1      -1.571   5.177  25.380  0.00  0.00    +0.093 C 
ENDBRANCH   7   8
ENDBRANCH   6   7
BRANCH  18  19
ATOM     19  C   UNL     1      -3.763   0.674  24.524  0.00  0.00    +0.119 C 
BRANCH  19  20
ATOM     20  N   UNL     1      -3.560  -0.125  24.549  0.00  0.00    -0.205 NA
ATOM     21  C   UNL     1      -4.141  -0.702  24.445  0.00  0.00    +0.241 C 
ATOM     22  O   UNL     1      -4.925  -0.480  24.316  0.00  0.00    -0.273 OA
BRANCH  21  23
ATOM     23  C   UNL     1      -3.938  -1.502  24.470  0.00  0.00    +0.078 C 
ATOM     24  C   UNL     1      -4.113  -1.992  23.830  0.00  0.00    +0.009 C 
ATOM     25  C   UNL     1      -3.910  -2.791  23.856  0.00  0.00    +0.000 C 
ATOM     26  C   UNL     1      -3.532  -3.099  24.520  0.00  0.00    +0.000 C 
ATOM     27  C   UNL     1      -3.357  -2.609  25.160  0.00  0.00    +0.000 C 
ATOM     28  C   UNL     1      -3.560  -1.810  25.135  0.00  0.00    +0.009 C 
ENDBRANCH  21  23
ENDBRANCH  19  20
ENDBRANCH  18  19
TORSDOF 6
ENDMDL
MODEL 2
REMARK VINA RESULT:     -12.0      0.917      5.453
REMARK  Name = 
REMARK  6 active torsions:
REMARK  status: ('A' for Active; 'I' for Inactive)
REMARK    1  A    between atoms: C_2  and  C_4
REMARK    2  A    between atoms: C_6  and  C_7
REMARK    3  A    between atoms: C_7  and  C_8
REMARK    4  A    between atoms: C_18  and  C_19
REMARK    5  A    between atoms: C_19  and  N_20
REMARK    6  A    between atoms: C_21  and  C_23
REMARK                            x       y       z     vdW  Elec       q    Type
REMARK                         _______ _______ _______ _____ _____    ______ ____
ROOT
ATOM      4  C   UNL     1      -4.255   1.386  25.051  0.00  0.00    +0.006 C 
ATOM      5  C   UNL     1      -4.241   0.562  24.999  0.00  0.00    +0.005 C 
ATOM      6  C   UNL     1      -3.520   0.163  24.981  0.00  0.00    +0.027 C 
ATOM     15  C   UNL     1      -2.812   0.587  25.014  0.00  0.00    -0.048 C 
ATOM     16  C   UNL     1      -2.091   0.188  24.996  0.00  0.00    +0.026 C 
ATOM     17  C   UNL     1      -2.827   1.410  25.066  0.00  0.00    -0.033 C 
ATOM     18  C   UNL     1      -3.549   1.810  25.084  0.00  0.00    +0.043 C 
ENDROOT
BRANCH   4   2
ATOM      1  C   UNL     1      -5.259   2.160  24.390  0.00  0.00    +0.000 C 
ATOM      2  C   UNL     1      -4.977   1.786  25.069  0.00  0.00    +0.000 C 
ATOM      3  C   UNL     1      -5.417   1.811  25.767  0.00  0.00    +0.000 C 
ENDBRANCH   4   2
BRANCH   6   7
ATOM      7  C   UNL     1      -3.505  -0.660  24.929  0.00  0.00    +0.089 C 
BRANCH   7   8
ATOM      8  C   UNL     1      -3.831  -1.038  24.272  0.00  0.00    +0.226 C 
ATOM      9  O   UNL     1      -4.135  -0.592  23.648  0.00  0.00    -0.275 OA
ATOM     10  N   UNL     1      -3.854  -1.862  24.239  0.00  0.00    -0.280 N 
ATOM     11  C   UNL     1      -3.573  -2.379  24.818  0.00  0.00    +0.093 C 
ATOM     12  C   UNL     1      -3.706  -3.149  24.559  0.00  0.00    +0.023 C 
ATOM     13  C   UNL     1      -4.070  -3.110  23.819  0.00  0.00    +0.023 C 
ATOM     14  C   UNL     1      -4.161  -2.315  23.622  0.00  0.00    +0.093 C 
ENDBRANCH   7   8
ENDBRANCH   6   7
BRANCH  18  19
ATOM     19  C   UNL     1      -3.563   2.633  25.136  0.00  0.00    +0.119 C 
BRANCH  19  20
ATOM     20  N   UNL     1      -2.875   3.067  25.000  0.00  0.00    -0.205 NA
ATOM     21  C   UNL     1      -2.788   3.816  25.333  0.00  0.00    +0.241 C 
ATOM     22  O   UNL     1      -3.388   4.132  25.802  0.00  0.00    -0.273 OA
BRANCH  21  23
ATOM     23  C   UNL     1      -2.099   4.251  25.198  0.00  0.00    +0.078 C 
ATOM     24  C   UNL     1      -1.380   3.861  25.091  0.00  0.00    +0.009 C 
ATOM     25  C   UNL     1      -0.692   4.295  24.955  0.00  0.00    +0.000 C 
ATOM     26  C   UNL     1      -0.723   5.119  24.926  0.00  0.00    +0.000 C 
ATOM     27  C   UNL     1      -1.442   5.508  25.033  0.00  0.00    +0.000 C 
ATOM     28  C   UNL     1      -2.131   5.075  25.169  0.00  0.00    +0.009 C 
ENDBRANCH  21  23
ENDBRANCH  19  20
ENDBRANCH  18  19
TORSDOF 6
ENDMDL
MODEL 3
REMARK VINA RESULT:     -11.9      1.021      5.724
REMARK  Name = 
REMARK  6 active torsions:
REMARK  status: ('A' for Active; 'I' for Inactive)
REMARK    1  A    between atoms: C_2  and  C_4
REMARK    2  A    between atoms: C_6  and  C_7
REMARK    3  A    between atoms: C_7  and  C_8
REMARK    4  A    between atoms: C_18  and  C_19
REMARK    5  A    between atoms: C_19  and  N_20
REMARK    6  A    between atoms: C_21  and  C_23
REMARK                            x       y       z     vdW  Elec       q    Type
REMARK                         _______ _______ _______ _____ _____    ______ ____
ROOT
ATOM      4  C   UNL     1      -1.789   0.512  24.883  0.00  0.00    +0.006 C 
ATOM      5  C   UNL     1      -2.378  -0.047  24.735  0.00  0.00    +0.005 C 
ATOM      6  C   UNL     1      -3.170   0.180  24.731  0.00  0.00    +0.027 C 
ATOM     15  C   UNL     1      -3.375   0.967  24.875  0.00  0.00    -0.048 C 
ATOM     16  C   UNL     1      -4.168   1.194  24.872  0.00  0.00    +0.026 C 
ATOM     17  C   UNL     1      -2.787   1.525  25.024  0.00  0.00    -0.033 C 
ATOM     18  C   UNL     1      -1.993   1.298  25.028  0.00  0.00    +0.043 C 
ENDROOT
BRANCH   4   2
ATOM      1  C   UNL     1      -0.636   0.053  25.593  0.00  0.00    +0.000 C 
ATOM      2  C   UNL     1      -0.995   0.284  24.887  0.00  0.00    +0.000 C 
ATOM      3  C   UNL     1      -0.563   0.288  24.185  0.00  0.00    +0.000 C 
ENDBRANCH   4   2
BRANCH   6   7
ATOM      7  C   UNL     1      -3.759  -0.378  24.583  0.00  0.00    +0.089 C 
BRANCH   7   8
ATOM      8  C   UNL     1      -3.728  -1.118  24.949  0.00  0.00    +0.226 C 
ATOM      9  O   UNL     1      -3.530  -1.174  25.747  0.00  0.00    -0.275 OA
ATOM     10  N   UNL     1      -3.895  -1.800  24.515  0.00  0.00    -0.280 N 
ATOM     11  C   UNL     1      -4.100  -1.829  23.716  0.00  0.00    +0.093 C 
ATOM     12  C   UNL     1      -4.218  -2.619  23.512  0.00  0.00    +0.023 C 
ATOM     13  C   UNL     1      -4.086  -3.078  24.185  0.00  0.00    +0.023 C 
ATOM     14  C   UNL     1      -3.886  -2.572  24.804  0.00  0.00    +0.093 C 
ENDBRANCH   7   8
ENDBRANCH   6   7
BRANCH  18  19
ATOM     19  C   UNL     1      -1.404   1.856  25.176  0.00  0.00    +0.119 C 
BRANCH  19  20
ATOM     20  N   UNL     1      -1.551   2.656  25.039  0.00  0.00    -0.205 NA
ATOM     21  C   UNL     1      -1.070   3.229  25.386  0.00  0.00    +0.241 C 
ATOM     22  O   UNL     1      -0.442   3.003  25.870  0.00  0.00    -0.273 OA
BRANCH  21  23
ATOM     23  C   UNL     1      -1.216   4.030  25.248  0.00  0.00    +0.078 C 
ATOM     24  C   UNL     1      -0.667   4.485  24.833  0.00  0.00    +0.009 C 
ATOM     25  C   UNL     1      -0.814   5.284  24.696  0.00  0.00    +0.000 C 
ATOM     26  C   UNL     1      -1.509   5.629  24.974  0.00  0.00    +0.000 C 
ATOM     27  C   UNL     1      -2.058   5.175  25.390  0.00  0.00    +0.000 C 
ATOM     28  C   UNL     1      -1.912   4.375  25.527  0.00  0.00    +0.009 C 
ENDBRANCH  21  23
ENDBRANCH  19  20
ENDBRANCH  18  19
TORSDOF 6
ENDMDL
