REMARK  Name = 
REMARK  9 active torsions:
REMARK  status: ('A' for Active; 'I' for Inactive)
REMARK    1  A    between atoms: C_2  and  C_4
REMARK    2  A    between atoms: C_4  and  C_5
REMARK    3  A    between atoms: C_4  and  N_12
REMARK    4  A    between atoms: C_5  and  C_6
REMARK    5  A    between atoms: C_13  and  C_15
REMARK    6  A    between atoms: C_22  and  N_24
REMARK    7  A    between atoms: C_25  and  C_27
REMARK    8  A    between atoms: C_27  and  S_28
REMARK    9  A    between atoms: S_28  and  C_31
REMARK                            x       y       z     vdW  Elec       q    Type
REMARK                         _______ _______ _______ _____ _____    ______ ____
ROOT
ATOM     15  C   UNL     1      -0.778  -6.164   0.000  0.00  0.00    +0.200 C 
ATOM     16  O   UNL     1      -1.309  -6.796   0.000  0.00  0.00    -0.216 OA
ATOM     17  C   UNL     1      -0.496  -5.389   0.000  0.00  0.00    +0.075 C 
ATOM     18  C   UNL     1       0.316  -5.246   0.000  0.00  0.00    +0.187 C 
ATOM     19  O   UNL     1       0.598  -4.471   0.000  0.00  0.00    -0.220 OA
ATOM     20  C   UNL     1       0.847  -5.878   0.000  0.00  0.00    +0.202 C 
ATOM     21  O   UNL     1       1.659  -5.734   0.000  0.00  0.00    -0.219 OA
ATOM     22  C   UNL     1       0.564  -6.653   0.000  0.00  0.00    +0.131 C 
ATOM     23  C   UNL     1      -0.248  -6.796   0.000  0.00  0.00    +0.064 C 
ENDROOT
BRANCH  15  13
ATOM     12  N   UNL     1      -2.207  -6.164   0.000  0.00  0.00    -0.195 NA
ATOM     13  C   UNL     1      -1.493  -5.752   0.000  0.00  0.00    +0.269 C 
ATOM     14  O   UNL     1      -1.493  -4.927   0.000  0.00  0.00    -0.271 OA
BRANCH  12   4
ATOM      4  C   UNL     1      -2.922  -5.752   0.000  0.00  0.00    +0.179 C 
BRANCH   4   2
ATOM      1  N   UNL     1      -2.207  -4.514   0.000  0.00  0.00    -0.086 NA
ATOM      2  C   UNL     1      -2.922  -4.927   0.000  0.00  0.00    +0.281 C 
ATOM      3  O   UNL     1      -3.636  -4.514   0.000  0.00  0.00    -0.270 OA
ENDBRANCH   4   2
BRANCH   4   5
ATOM      5  C   UNL     1      -3.636  -6.164   0.000  0.00  0.00    +0.057 C 
BRANCH   5   6
ATOM      6  C   UNL     1      -4.351  -5.752   0.000  0.00  0.00    -0.020 A 
ATOM      7  C   UNL     1      -5.065  -6.164   0.000  0.00  0.00    -0.004 A 
ATOM      8  C   UNL     1      -5.780  -5.752   0.000  0.00  0.00    -0.000 A 
ATOM      9  C   UNL     1      -5.780  -4.927   0.000  0.00  0.00    -0.000 A 
ATOM     10  C   UNL     1      -5.065  -4.514   0.000  0.00  0.00    -0.000 A 
ATOM     11  C   UNL     1      -4.351  -4.927   0.000  0.00  0.00    -0.004 A 
ENDBRANCH   5   6
ENDBRANCH   4   5
ENDBRANCH  12   4
ENDBRANCH  15  13
BRANCH  22  24
ATOM     24  N   UNL     1       1.095  -7.285   0.000  0.00  0.00    -0.203 NA
ATOM     25  C   UNL     1       0.812  -8.060   0.000  0.00  0.00    +0.266 C 
ATOM     26  O   UNL     1       0.000  -8.203   0.000  0.00  0.00    -0.271 OA
BRANCH  25  27
ATOM     27  C   UNL     1       1.343  -8.692   0.000  0.00  0.00    +0.242 C 
BRANCH  27  28
ATOM     28  S   UNL     1       2.155  -8.549   0.000  0.00  0.00    +0.018 S 
ATOM     29  O   UNL     1       2.299  -9.361   0.000  0.00  0.00    -0.168 OA
ATOM     30  O   UNL     1       2.012  -7.736   0.000  0.00  0.00    -0.168 OA
BRANCH  28  31
ATOM     31  C   UNL     1       2.968  -8.406   0.000  0.00  0.00    +0.106 A 
ATOM     32  C   UNL     1       3.250  -7.630   0.000  0.00  0.00    +0.018 A 
ATOM     33  C   UNL     1       4.062  -7.487   0.000  0.00  0.00    +0.001 A 
ATOM     34  C   UNL     1       4.593  -8.119   0.000  0.00  0.00    +0.000 A 
ATOM     35  C   UNL     1       4.311  -8.894   0.000  0.00  0.00    +0.001 A 
ATOM     36  C   UNL     1       3.498  -9.038   0.000  0.00  0.00    +0.018 A 
ENDBRANCH  28  31
ENDBRANCH  27  28
ENDBRANCH  25  27
ENDBRANCH  22  24
TORSDOF 9
