MODEL 1
REMARK VINA RESULT:     -13.6      0.000      0.000
REMARK  Name = 
REMARK  7 active torsions:
REMARK  status: ('A' for Active; 'I' for Inactive)
REMARK    1  A    between atoms: C_5  and  C_6
REMARK    2  A    between atoms: C_6  and  N_7
REMARK    3  A    between atoms: C_8  and  C_10
REMARK    4  A    between atoms: C_17  and  C_18
REMARK    5  A    between atoms: C_18  and  N_19
REMARK    6  A    between atoms: C_21  and  C_24
REMARK    7  A    between atoms: C_27  and  C_30
REMARK                            x       y       z     vdW  Elec       q    Type
REMARK                         _______ _______ _______ _____ _____    ______ ____
ROOT
ATOM     10  C   UNL     1      -1.991   3.672  25.671  0.00  0.00    +0.094 C 
ATOM     11  C   UNL     1      -1.876   2.964  25.973  0.00  0.00    +0.081 C 
ATOM     12  N   UNL     1      -1.309   3.431  25.596  0.00  0.00    -0.272 NA
ATOM     13  C   UNL     1      -1.783   4.321  25.307  0.00  0.00    +0.072 C 
ATOM     14  C   UNL     1      -1.763   4.909  25.024  0.00  0.00    +0.018 C 
ATOM     15  C   UNL     1      -1.430   4.124  25.302  0.00  0.00    +0.013 C 
ATOM     16  C   UNL     1      -0.580   3.984  25.132  0.00  0.00    +0.019 C 
ATOM     17  C   UNL     1      -0.425   3.292  25.416  0.00  0.00    +0.082 C 
ENDROOT
BRANCH  10   8
ATOM      7  N   UNL     1      -3.404   3.542  25.503  0.00  0.00    -0.201 NA
ATOM      8  C   UNL     1      -2.751   3.990  25.732  0.00  0.00    +0.243 C 
ATOM      9  O   UNL     1      -2.856   4.755  26.022  0.00  0.00    -0.273 OA
BRANCH   7   6
ATOM      6  C   UNL     1      -4.163   3.860  25.564  0.00  0.00    +0.141 C 
BRANCH   6   5
ATOM      1  F   UNL     1      -6.801   1.939  25.068  0.00  0.00    -0.204 F 
ATOM      2  C   UNL     1      -6.142   2.420  25.192  0.00  0.00    +0.140 A 
ATOM      3  C   UNL     1      -6.150   2.985  25.792  0.00  0.00    +0.029 A 
ATOM      4  C   UNL     1      -5.490   3.465  25.917  0.00  0.00    -0.000 A 
ATOM      5  C   UNL     1      -4.823   3.380  25.440  0.00  0.00    -0.000 A 
ATOM     36  C   UNL     1      -4.814   2.814  24.839  0.00  0.00    -0.000 A 
ATOM     37  C   UNL     1      -5.474   2.334  24.715  0.00  0.00    +0.029 A 
ENDBRANCH   6   5
ENDBRANCH   7   6
ENDBRANCH  10   8
BRANCH  17  18
ATOM     18  C   UNL     1       0.183   2.744  25.506  0.00  0.00    +0.145 C 
BRANCH  18  19
ATOM     19  N   UNL     1       0.119   1.996  25.163  0.00  0.00    -0.229 N 
ATOM     20  C   UNL     1      -0.495   1.459  25.282  0.00  0.00    +0.118 A 
ATOM     21  C   UNL     1      -0.335   0.785  24.832  0.00  0.00    +0.123 A 
ATOM     22  N   UNL     1       0.379   0.908  24.437  0.00  0.00    -0.129 NA
ATOM     23  N   UNL     1       0.659   1.655  24.641  0.00  0.00    -0.064 NA
BRANCH  21  24
ATOM     24  C   UNL     1      -0.805   0.109  24.787  0.00  0.00    +0.021 A 
ATOM     25  C   UNL     1      -0.599  -0.566  25.214  0.00  0.00    +0.002 A 
ATOM     26  C   UNL     1      -1.070  -1.242  25.168  0.00  0.00    +0.000 A 
ATOM     27  C   UNL     1      -1.747  -1.242  24.696  0.00  0.00    +0.000 A 
ATOM     28  C   UNL     1      -1.953  -0.567  24.270  0.00  0.00    +0.000 A 
ATOM     29  C   UNL     1      -1.482   0.109  24.315  0.00  0.00    +0.002 A 
BRANCH  27  30
ATOM     30  C   UNL     1      -2.217  -1.918  24.651  0.00  0.00    +0.000 A 
ATOM     31  C   UNL     1      -2.970  -1.920  24.989  0.00  0.00    +0.000 A 
ATOM     32  C   UNL     1      -3.441  -2.597  24.944  0.00  0.00    +0.000 A 
ATOM     33  C   UNL     1      -3.160  -3.271  24.561  0.00  0.00    +0.000 A 
ATOM     34  C   UNL     1      -2.407  -3.269  24.222  0.00  0.00    +0.000 A 
ATOM     35  C   UNL     1      -1.936  -2.593  24.268  0.00  0.00    +0.000 A 
ENDBRANCH  27  30
ENDBRANCH  21  24
ENDBRANCH  18  19
ENDBRANCH  17  18
TORSDOF 7
ENDMDL
MODEL 2
REMARK VINA RESULT:     -13.4      1.964      4.076
REMARK  Name = 
REMARK  7 active torsions:
REMARK  status: ('A' for Active; 'I' for Inactive)
REMARK    1  A    between atoms: C_5  and  C_6
REMARK    2  A    between atoms: C_6  and  N_7
REMARK    3  A    between atoms: C_8  and  C_10
REMARK    4  A    between atoms: C_17  and  C_18
REMARK    5  A    between atoms: C_18  and  N_19
REMARK    6  A    between atoms: C_21  and  C_24
REMARK    7  A    between atoms: C_27  and  C_30
REMARK                            x       y       z     vdW  Elec       q    Type
REMARK                         _______ _______ _______ _____ _____    ______ ____
ROOT
ATOM     10  C   UNL     1      -3.028   3.817  25.220  0.00  0.00    +0.094 C 
ATOM     11  C   UNL     1      -3.318   3.478  24.582  0.00  0.00    +0.081 C 
ATOM     12  N   UNL     1      -3.733   3.648  25.275  0.00  0.00    -0.272 NA
ATOM     13  C   UNL     1      -3.058   4.101  25.937  0.00  0.00    +0.072 C 
ATOM     14  C   UNL     1      -2.926   4.374  26.516  0.00  0.00    +0.018 C 
ATOM     15  C   UNL     1      -3.442   3.980  25.897  0.00  0.00    +0.013 C 
ATOM     16  C   UNL     1      -4.279   3.844  26.121  0.00  0.00    +0.019 C 
ATOM     17  C   UNL     1      -4.602   3.509  25.516  0.00  0.00    +0.082 C 
ENDROOT
BRANCH  10   8
ATOM      7  N   UNL     1      -1.655   3.459  25.047  0.00  0.00    -0.201 NA
ATOM      8  C   UNL     1      -2.230   4.029  25.206  0.00  0.00    +0.243 C 
ATOM      9  O   UNL     1      -2.008   4.810  25.350  0.00  0.00    -0.273 OA
BRANCH   7   6
ATOM      6  C   UNL     1      -0.858   3.671  25.033  0.00  0.00    +0.141 C 
BRANCH   6   5
ATOM      1  F   UNL     1       1.409   1.500  24.012  0.00  0.00    -0.204 F 
ATOM      2  C   UNL     1       0.842   2.043  24.267  0.00  0.00    +0.140 A 
ATOM      3  C   UNL     1       0.601   2.653  23.768  0.00  0.00    +0.029 A 
ATOM      4  C   UNL     1       0.034   3.196  24.023  0.00  0.00    -0.000 A 
ATOM      5  C   UNL     1      -0.291   3.128  24.777  0.00  0.00    -0.000 A 
ATOM     36  C   UNL     1      -0.051   2.518  25.277  0.00  0.00    -0.000 A 
ATOM     37  C   UNL     1       0.516   1.975  25.022  0.00  0.00    +0.029 A 
ENDBRANCH   6   5
ENDBRANCH   7   6
ENDBRANCH  10   8
BRANCH  17  18
ATOM     18  C   UNL     1      -5.317   3.203  25.242  0.00  0.00    +0.145 C 
BRANCH  18  19
ATOM     19  N   UNL     1      -5.418   2.387  25.177  0.00  0.00    -0.229 N 
ATOM     20  C   UNL     1      -4.820   1.832  25.053  0.00  0.00    +0.118 A 
ATOM     21  C   UNL     1      -5.169   1.084  25.024  0.00  0.00    +0.123 A 
ATOM     22  N   UNL     1      -5.981   1.178  25.129  0.00  0.00    -0.129 NA
ATOM     23  N   UNL     1      -6.136   1.982  25.223  0.00  0.00    -0.064 NA
BRANCH  21  24
ATOM     24  C   UNL     1      -4.773   0.370  24.910  0.00  0.00    +0.021 A 
ATOM     25  C   UNL     1      -4.373   0.014  25.538  0.00  0.00    +0.002 A 
ATOM     26  C   UNL     1      -3.977  -0.701  25.424  0.00  0.00    +0.000 A 
ATOM     27  C   UNL     1      -3.982  -1.060  24.681  0.00  0.00    +0.000 A 
ATOM     28  C   UNL     1      -4.382  -0.705  24.054  0.00  0.00    +0.000 A 
ATOM     29  C   UNL     1      -4.777   0.010  24.168  0.00  0.00    +0.002 A 
BRANCH  27  30
ATOM     30  C   UNL     1      -3.587  -1.775  24.567  0.00  0.00    +0.000 A 
ATOM     31  C   UNL     1      -2.770  -1.817  24.676  0.00  0.00    +0.000 A 
ATOM     32  C   UNL     1      -2.374  -2.532  24.561  0.00  0.00    +0.000 A 
ATOM     33  C   UNL     1      -2.795  -3.205  24.338  0.00  0.00    +0.000 A 
ATOM     34  C   UNL     1      -3.612  -3.164  24.229  0.00  0.00    +0.000 A 
ATOM     35  C   UNL     1      -4.008  -2.449  24.343  0.00  0.00    +0.000 A 
ENDBRANCH  27  30
ENDBRANCH  21  24
ENDBRANCH  18  19
ENDBRANCH  17  18
TORSDOF 7
ENDMDL
MODEL 3
REMARK VINA RESULT:     -13.0      1.754      5.106
REMARK  Name = 
REMARK  7 active torsions:
REMARK  status: ('A' for Active; 'I' for Inactive)
REMARK    1  A    between atoms: C_5  and  C_6
REMARK    2  A    between atoms: C_6  and  N_7
REMARK    3  A    between atoms: C_8  and  C_10
REMARK    4  A    between atoms: C_17  and  C_18
REMARK    5  A    between atoms: C_18  and  N_19
REMARK    6  A    between atoms: C_21  and  C_24
REMARK    7  A    between atoms: C_27  and  C_30
REMARK                            x       y       z     vdW  Elec       q    Type
REMARK                         _______ _______ _______ _____ _____    ______ ____
ROOT
ATOM     10  C   UNL     1      -0.434  -0.181  24.701  0.00  0.00    +0.094 C 
ATOM     11  C   UNL     1      -0.640   0.226  25.332  0.00  0.00    +0.081 C 
ATOM     12  N   UNL     1      -0.199   0.506  24.693  0.00  0.00    -0.272 NA
ATOM     13  C   UNL     1      -0.097  -0.287  24.015  0.00  0.00    +0.072 C 
ATOM     14  C   UNL     1       0.129  -0.526  23.450  0.00  0.00    +0.018 C 
ATOM     15  C   UNL     1      -0.001   0.101  24.078  0.00  0.00    +0.013 C 
ATOM     16  C   UNL     1       0.351   0.889  23.916  0.00  0.00    +0.019 C 
ATOM     17  C   UNL     1       0.170   1.322  24.518  0.00  0.00    +0.082 C 
ENDROOT
BRANCH  10   8
ATOM      7  N   UNL     1      -1.482  -1.151  24.644  0.00  0.00    -0.201 NA
ATOM      8  C   UNL     1      -0.678  -0.970  24.664  0.00  0.00    +0.243 C 
ATOM      9  O   UNL     1      -0.117  -1.575  24.647  0.00  0.00    -0.273 OA
BRANCH   7   6
ATOM      6  C   UNL     1      -1.726  -1.938  24.607  0.00  0.00    +0.141 C 
BRANCH   6   5
ATOM      1  F   UNL     1      -4.885  -2.664  23.986  0.00  0.00    -0.204 F 
ATOM      2  C   UNL     1      -4.095  -2.482  24.141  0.00  0.00    +0.140 A 
ATOM      3  C   UNL     1      -3.885  -1.719  24.369  0.00  0.00    +0.029 A 
ATOM      4  C   UNL     1      -3.095  -1.537  24.525  0.00  0.00    -0.000 A 
ATOM      5  C   UNL     1      -2.516  -2.119  24.452  0.00  0.00    -0.000 A 
ATOM     36  C   UNL     1      -2.726  -2.884  24.224  0.00  0.00    -0.000 A 
ATOM     37  C   UNL     1      -3.516  -3.066  24.068  0.00  0.00    +0.029 A 
ENDBRANCH   6   5
ENDBRANCH   7   6
ENDBRANCH  10   8
BRANCH  17  18
ATOM     18  C   UNL     1       0.257   2.082  24.826  0.00  0.00    +0.145 C 
BRANCH  18  19
ATOM     19  N   UNL     1      -0.356   2.629  24.756  0.00  0.00    -0.229 N 
ATOM     20  C   UNL     1      -1.136   2.516  24.997  0.00  0.00    +0.118 A 
ATOM     21  C   UNL     1      -1.559   3.204  24.822  0.00  0.00    +0.123 A 
ATOM     22  N   UNL     1      -1.038   3.740  24.473  0.00  0.00    -0.129 NA
ATOM     23  N   UNL     1      -0.295   3.386  24.432  0.00  0.00    -0.064 NA
BRANCH  21  24
ATOM     24  C   UNL     1      -2.360   3.331  24.970  0.00  0.00    +0.021 A 
ATOM     25  C   UNL     1      -2.596   3.724  25.656  0.00  0.00    +0.002 A 
ATOM     26  C   UNL     1      -3.397   3.852  25.804  0.00  0.00    +0.000 A 
ATOM     27  C   UNL     1      -3.963   3.586  25.265  0.00  0.00    +0.000 A 
ATOM     28  C   UNL     1      -3.727   3.193  24.580  0.00  0.00    +0.000 A 
ATOM     29  C   UNL     1      -2.926   3.066  24.432  0.00  0.00    +0.002 A 
BRANCH  27  30
ATOM     30  C   UNL     1      -4.764   3.713  25.413  0.00  0.00    +0.000 A 
ATOM     31  C   UNL     1      -5.076   4.476  25.369  0.00  0.00    +0.000 A 
ATOM     32  C   UNL     1      -5.878   4.603  25.517  0.00  0.00    +0.000 A 
ATOM     33  C   UNL     1      -6.368   3.969  25.709  0.00  0.00    +0.000 A 
ATOM     34  C   UNL     1      -6.056   3.206  25.754  0.00  0.00    +0.000 A 
ATOM     35  C   UNL     1      -5.255   3.078  25.606  0.00  0.00    +0.000 A 
ENDBRANCH  27  30
ENDBRANCH  21  24
ENDBRANCH  18  19
ENDBRANCH  17  18
TORSDOF 7
ENDMDL
MODEL 4
REMARK VINA RESULT:     -12.6      3.772      6.698
REMARK  Name = 
REMARK  7 active torsions:
REMARK  status: ('A' for Active; 'I' for Inactive)
REMARK    1  A    between atoms: C_5  and  C_6
REMARK    2  A    between atoms: C_6  and  N_7
REMARK    3  A    between atoms: C_8  and  C_10
REMARK    4  A    between atoms: C_17  and  C_18
REMARK    5  A    between atoms: C_18  and  N_19
REMARK    6  A    between atoms: C_21  and  C_24
REMARK    7  A    between atoms: C_27  and  C_30
REMARK                            x       y       z     vdW  Elec       q    Type
REMARK                         _______ _______ _______ _____ _____    ______ ____
ROOT
ATOM     10  C   UNL     1       1.105  -0.392  23.235  0.00  0.00    +0.094 C 
ATOM     11  C   UNL     1       1.055  -1.140  23.442  0.00  0.00    +0.081 C 
ATOM     12  N   UNL     1       0.518  -0.544  23.636  0.00  0.00    -0.272 NA
ATOM     13  C   UNL     1       0.872   0.344  23.206  0.00  0.00    +0.072 C 
ATOM     14  C   UNL     1       0.811   0.985  23.094  0.00  0.00    +0.018 C 
ATOM     15  C   UNL     1       0.574   0.188  23.429  0.00  0.00    +0.013 C 
ATOM     16  C   UNL     1      -0.169   0.172  23.896  0.00  0.00    +0.019 C 
ATOM     17  C   UNL     1      -0.255  -0.553  24.121  0.00  0.00    +0.082 C 
ENDROOT
BRANCH  10   8
ATOM      7  N   UNL     1       2.509  -0.160  23.109  0.00  0.00    -0.201 NA
ATOM      8  C   UNL     1       1.755  -0.168  22.777  0.00  0.00    +0.243 C 
ATOM      9  O   UNL     1       1.649   0.047  21.987  0.00  0.00    -0.273 OA
BRANCH   7   6
ATOM      6  C   UNL     1       3.158   0.062  22.651  0.00  0.00    +0.141 C 
BRANCH   6   5
ATOM      1  F   UNL     1       6.182   0.089  23.974  0.00  0.00    -0.204 F 
ATOM      2  C   UNL     1       5.426   0.082  23.644  0.00  0.00    +0.140 A 
ATOM      3  C   UNL     1       4.997  -0.621  23.609  0.00  0.00    +0.029 A 
ATOM      4  C   UNL     1       4.241  -0.628  23.279  0.00  0.00    -0.000 A 
ATOM      5  C   UNL     1       3.914   0.069  22.982  0.00  0.00    -0.000 A 
ATOM     36  C   UNL     1       4.344   0.773  23.016  0.00  0.00    -0.000 A 
ATOM     37  C   UNL     1       5.100   0.780  23.347  0.00  0.00    +0.029 A 
ENDBRANCH   6   5
ENDBRANCH   7   6
ENDBRANCH  10   8
BRANCH  17  18
ATOM     18  C   UNL     1      -0.754  -1.051  24.549  0.00  0.00    +0.145 C 
BRANCH  18  19
ATOM     19  N   UNL     1      -1.571  -0.941  24.520  0.00  0.00    -0.229 N 
ATOM     20  C   UNL     1      -1.976  -0.259  24.742  0.00  0.00    +0.118 A 
ATOM     21  C   UNL     1      -2.783  -0.391  24.623  0.00  0.00    +0.123 A 
ATOM     22  N   UNL     1      -2.874  -1.156  24.327  0.00  0.00    -0.129 NA
ATOM     23  N   UNL     1      -2.125  -1.496  24.263  0.00  0.00    -0.064 NA
BRANCH  21  24
ATOM     24  C   UNL     1      -3.390   0.146  24.774  0.00  0.00    +0.021 A 
ATOM     25  C   UNL     1      -3.356   0.907  24.455  0.00  0.00    +0.002 A 
ATOM     26  C   UNL     1      -3.963   1.445  24.606  0.00  0.00    +0.000 A 
ATOM     27  C   UNL     1      -4.604   1.222  25.075  0.00  0.00    +0.000 A 
ATOM     28  C   UNL     1      -4.638   0.462  25.393  0.00  0.00    +0.000 A 
ATOM     29  C   UNL     1      -4.031  -0.076  25.242  0.00  0.00    +0.002 A 
BRANCH  27  30
ATOM     30  C   UNL     1      -5.211   1.759  25.226  0.00  0.00    +0.000 A 
ATOM     31  C   UNL     1      -5.042   2.483  25.584  0.00  0.00    +0.000 A 
ATOM     32  C   UNL     1      -5.650   3.021  25.735  0.00  0.00    +0.000 A 
ATOM     33  C   UNL     1      -6.426   2.836  25.527  0.00  0.00    +0.000 A 
ATOM     34  C   UNL     1      -6.595   2.112  25.169  0.00  0.00    +0.000 A 
ATOM     35  C   UNL     1      -5.988   1.574  25.018  0.00  0.00    +0.000 A 
ENDBRANCH  27  30
ENDBRANCH  21  24
ENDBRANCH  18  19
ENDBRANCH  17  18
TORSDOF 7
ENDMDL
