MODEL 1
REMARK VINA RESULT:     -11.8      0.000      0.000
REMARK  Name = 
REMARK  6 active torsions:
REMARK  status: ('A' for Active; 'I' for Inactive)
REMARK    1  A    between atoms: N_2  and  C_4
REMARK    2  A    between atoms: C_7  and  C_8
REMARK    3  A    between atoms: C_8  and  N_9
REMARK    4  A    between atoms: C_12  and  C_14
REMARK    5  A    between atoms: C_17  and  C_18
REMARK    6  A    between atoms: C_18  and  C_19
REMARK                            x       y       z     vdW  Elec       q    Type
REMARK                         _______ _______ _______ _____ _____    ______ ____
ROOT
ATOM      9  N   UNL     1      -0.027   1.336  24.708  0.00  0.00    -0.268 NA
ATOM     10  C   UNL     1       0.104   1.031  23.953  0.00  0.00    +0.073 C 
ATOM     11  C   UNL     1      -0.260   0.291  23.910  0.00  0.00    +0.028 C 
ATOM     12  C   UNL     1      -0.616   0.140  24.638  0.00  0.00    +0.096 C 
ATOM     13  C   UNL     1      -0.472   0.786  25.132  0.00  0.00    +0.082 C 
ENDROOT
BRANCH  12  14
ATOM     14  C   UNL     1      -1.041  -0.538  24.839  0.00  0.00    +0.227 A 
ATOM     15  N   UNL     1      -0.744  -1.307  24.864  0.00  0.00    -0.112 NA
ATOM     16  N   UNL     1      -1.358  -1.810  25.090  0.00  0.00    -0.111 NA
ATOM     17  C   UNL     1      -2.034  -1.352  25.205  0.00  0.00    +0.230 A 
ATOM     25  O   UNL     1      -1.838  -0.565  25.050  0.00  0.00    -0.423 OA
BRANCH  17  18
ATOM     18  C   UNL     1      -2.776  -1.631  25.435  0.00  0.00    +0.113 C 
BRANCH  18  19
ATOM     19  C   UNL     1      -3.325  -1.861  24.864  0.00  0.00    -0.013 A 
ATOM     20  C   UNL     1      -3.835  -1.303  24.533  0.00  0.00    -0.004 A 
ATOM     21  C   UNL     1      -4.384  -1.532  23.962  0.00  0.00    -0.000 A 
ATOM     22  C   UNL     1      -4.424  -2.321  23.722  0.00  0.00    -0.000 A 
ATOM     23  C   UNL     1      -3.915  -2.879  24.052  0.00  0.00    -0.000 A 
ATOM     24  C   UNL     1      -3.365  -2.650  24.624  0.00  0.00    -0.004 A 
ENDBRANCH  18  19
ENDBRANCH  17  18
ENDBRANCH  12  14
BRANCH   9   8
ATOM      8  C   UNL     1       0.240   2.064  24.990  0.00  0.00    +0.099 C 
BRANCH   8   7
ATOM      4  C   UNL     1      -1.356   3.930  25.300  0.00  0.00    +0.048 A 
ATOM      5  C   UNL     1      -1.009   3.802  24.563  0.00  0.00    +0.014 A 
ATOM      6  C   UNL     1      -0.477   3.180  24.459  0.00  0.00    -0.002 A 
ATOM      7  C   UNL     1      -0.292   2.686  25.093  0.00  0.00    -0.006 A 
ATOM     26  C   UNL     1      -0.639   2.814  25.830  0.00  0.00    -0.002 A 
ATOM     27  C   UNL     1      -1.171   3.436  25.934  0.00  0.00    +0.014 A 
BRANCH   4   2
ATOM      1  C   UNL     1      -2.635   4.407  25.723  0.00  0.00    +0.112 C 
ATOM      2  N   UNL     1      -1.888   4.552  25.404  0.00  0.00    -0.304 N 
ATOM      3  C   UNL     1      -1.673   5.318  25.188  0.00  0.00    +0.112 C 
ENDBRANCH   4   2
ENDBRANCH   8   7
ENDBRANCH   9   8
TORSDOF 6
ENDMDL
MODEL 2
REMARK VINA RESULT:     -11.6      1.974      5.795
REMARK  Name = 
REMARK  6 active torsions:
REMARK  status: ('A' for Active; 'I' for Inactive)
REMARK    1  A    between atoms: N_2  and  C_4
REMARK    2  A    between atoms: C_7  and  C_8
REMARK    3  A    between atoms: C_8  and  N_9
REMARK    4  A    between atoms: C_12  and  C_14
REMARK    5  A    between atoms: C_17  and  C_18
REMARK    6  A    between atoms: C_18  and  C_19
REMARK                            x       y       z     vdW  Elec       q    Type
REMARK                         _______ _______ _______ _____ _____    ______ ____
ROOT
ATOM      9  N   UNL     1      -4.725   0.848  24.711  0.00  0.00    -0.268 NA
ATOM     10  C   UNL     1      -5.378   1.052  25.172  0.00  0.00    +0.073 C 
ATOM     11  C   UNL     1      -5.271   1.825  25.439  0.00  0.00    +0.028 C 
ATOM     12  C   UNL     1      -4.552   2.099  25.143  0.00  0.00    +0.096 C 
ATOM     13  C   UNL     1      -4.214   1.495  24.693  0.00  0.00    +0.082 C 
ENDROOT
BRANCH  12  14
ATOM     14  C   UNL     1      -4.226   2.846  25.273  0.00  0.00    +0.227 A 
ATOM     15  N   UNL     1      -4.529   3.562  24.995  0.00  0.00    -0.112 NA
ATOM     16  N   UNL     1      -4.030   4.166  25.254  0.00  0.00    -0.111 NA
ATOM     17  C   UNL     1      -3.421   3.824  25.692  0.00  0.00    +0.230 A 
ATOM     25  O   UNL     1      -3.542   3.008  25.704  0.00  0.00    -0.423 OA
BRANCH  17  18
ATOM     18  C   UNL     1      -2.799   4.228  26.055  0.00  0.00    +0.113 C 
BRANCH  18  19
ATOM     19  C   UNL     1      -2.079   4.314  25.663  0.00  0.00    -0.013 A 
ATOM     20  C   UNL     1      -1.912   5.011  25.253  0.00  0.00    -0.004 A 
ATOM     21  C   UNL     1      -1.192   5.097  24.861  0.00  0.00    -0.000 A 
ATOM     22  C   UNL     1      -0.637   4.486  24.879  0.00  0.00    -0.000 A 
ATOM     23  C   UNL     1      -0.803   3.790  25.288  0.00  0.00    -0.000 A 
ATOM     24  C   UNL     1      -1.524   3.703  25.680  0.00  0.00    -0.004 A 
ENDBRANCH  18  19
ENDBRANCH  17  18
ENDBRANCH  12  14
BRANCH   9   8
ATOM      8  C   UNL     1      -4.604   0.124  24.334  0.00  0.00    +0.099 C 
BRANCH   8   7
ATOM      4  C   UNL     1      -2.562  -1.190  24.809  0.00  0.00    +0.048 A 
ATOM      5  C   UNL     1      -2.562  -0.633  24.200  0.00  0.00    +0.014 A 
ATOM      6  C   UNL     1      -3.242  -0.195  24.042  0.00  0.00    -0.002 A 
ATOM      7  C   UNL     1      -3.923  -0.314  24.492  0.00  0.00    -0.006 A 
ATOM     26  C   UNL     1      -3.923  -0.871  25.101  0.00  0.00    -0.002 A 
ATOM     27  C   UNL     1      -3.242  -1.310  25.259  0.00  0.00    +0.014 A 
BRANCH   4   2
ATOM      1  C   UNL     1      -1.257  -1.286  25.386  0.00  0.00    +0.112 C 
ATOM      2  N   UNL     1      -1.880  -1.628  24.967  0.00  0.00    -0.304 N 
ATOM      3  C   UNL     1      -1.823  -2.409  24.706  0.00  0.00    +0.112 C 
ENDBRANCH   4   2
ENDBRANCH   8   7
ENDBRANCH   9   8
TORSDOF 6
ENDMDL
MODEL 3
REMARK VINA RESULT:     -11.4      2.000      3.217
REMARK  Name = 
REMARK  6 active torsions:
REMARK  status: ('A' for Active; 'I' for Inactive)
REMARK    1  A    between atoms: N_2  and  C_4
REMARK    2  A    between atoms: C_7  and  C_8
REMARK    3  A    between atoms: C_8  and  N_9
REMARK    4  A    between atoms: C_12  and  C_14
REMARK    5  A    between atoms: C_17  and  C_18
REMARK    6  A    between atoms: C_18  and  C_19
REMARK                            x       y       z     vdW  Elec       q    Type
REMARK                         _______ _______ _______ _____ _____    ______ ____
ROOT
ATOM      9  N   UNL     1      -4.765   2.368  24.911  0.00  0.00    -0.268 NA
ATOM     10  C   UNL     1      -5.398   2.119  25.377  0.00  0.00    +0.073 C 
ATOM     11  C   UNL     1      -5.370   1.296  25.429  0.00  0.00    +0.028 C 
ATOM     12  C   UNL     1      -4.719   1.036  24.994  0.00  0.00    +0.096 C 
ATOM     13  C   UNL     1      -4.345   1.699  24.675  0.00  0.00    +0.082 C 
ENDROOT
BRANCH  12  14
ATOM     14  C   UNL     1      -4.483   0.252  24.896  0.00  0.00    +0.227 A 
ATOM     15  N   UNL     1      -4.690  -0.242  24.268  0.00  0.00    -0.112 NA
ATOM     16  N   UNL     1      -4.333  -0.976  24.393  0.00  0.00    -0.111 NA
ATOM     17  C   UNL     1      -3.906  -0.935  25.097  0.00  0.00    +0.230 A 
ATOM     25  O   UNL     1      -3.998  -0.176  25.409  0.00  0.00    -0.423 OA
BRANCH  17  18
ATOM     18  C   UNL     1      -3.463  -1.546  25.432  0.00  0.00    +0.113 C 
BRANCH  18  19
ATOM     19  C   UNL     1      -2.690  -1.683  25.179  0.00  0.00    -0.013 A 
ATOM     20  C   UNL     1      -2.534  -2.284  24.635  0.00  0.00    -0.004 A 
ATOM     21  C   UNL     1      -1.761  -2.420  24.381  0.00  0.00    -0.000 A 
ATOM     22  C   UNL     1      -1.144  -1.955  24.671  0.00  0.00    -0.000 A 
ATOM     23  C   UNL     1      -1.300  -1.355  25.214  0.00  0.00    -0.000 A 
ATOM     24  C   UNL     1      -2.073  -1.218  25.468  0.00  0.00    -0.004 A 
ENDBRANCH  18  19
ENDBRANCH  17  18
ENDBRANCH  12  14
BRANCH   9   8
ATOM      8  C   UNL     1      -4.584   3.149  24.716  0.00  0.00    +0.099 C 
BRANCH   8   7
ATOM      4  C   UNL     1      -2.302   4.022  25.109  0.00  0.00    +0.048 A 
ATOM      5  C   UNL     1      -2.857   4.029  25.719  0.00  0.00    +0.014 A 
ATOM      6  C   UNL     1      -3.617   3.738  25.588  0.00  0.00    -0.002 A 
ATOM      7  C   UNL     1      -3.823   3.440  24.848  0.00  0.00    -0.006 A 
ATOM     26  C   UNL     1      -3.268   3.433  24.237  0.00  0.00    -0.002 A 
ATOM     27  C   UNL     1      -2.507   3.724  24.367  0.00  0.00    +0.014 A 
BRANCH   4   2
ATOM      1  C   UNL     1      -0.928   3.795  25.431  0.00  0.00    +0.112 C 
ATOM      2  N   UNL     1      -1.540   4.313  25.239  0.00  0.00    -0.304 N 
ATOM      3  C   UNL     1      -1.393   5.122  25.178  0.00  0.00    +0.112 C 
ENDBRANCH   4   2
ENDBRANCH   8   7
ENDBRANCH   9   8
TORSDOF 6
ENDMDL
MODEL 4
REMARK VINA RESULT:     -11.3      1.546      2.351
REMARK  Name = 
REMARK  6 active torsions:
REMARK  status: ('A' for Active; 'I' for Inactive)
REMARK    1  A    between atoms: N_2  and  C_4
REMARK    2  A    between atoms: C_7  and  C_8
REMARK    3  A    between atoms: C_8  and  N_9
REMARK    4  A    between atoms: C_12  and  C_14
REMARK    5  A    between atoms: C_17  and  C_18
REMARK    6  A    between atoms: C_18  and  C_19
REMARK                            x       y       z     vdW  Elec       q    Type
REMARK                         _______ _______ _______ _____ _____    ______ ____
ROOT
ATOM      9  N   UNL     1      -1.513   2.695  24.951  0.00  0.00    -0.268 NA
ATOM     10  C   UNL     1      -0.849   2.721  25.439  0.00  0.00    +0.073 C 
ATOM     11  C   UNL     1      -0.562   1.952  25.524  0.00  0.00    +0.028 C 
ATOM     12  C   UNL     1      -1.050   1.450  25.087  0.00  0.00    +0.096 C 
ATOM     13  C   UNL     1      -1.637   1.910  24.733  0.00  0.00    +0.082 C 
ENDROOT
BRANCH  12  14
ATOM     14  C   UNL     1      -0.966   0.633  25.017  0.00  0.00    +0.227 A 
ATOM     15  N   UNL     1      -0.436   0.241  24.521  0.00  0.00    -0.112 NA
ATOM     16  N   UNL     1      -0.539  -0.571  24.627  0.00  0.00    -0.111 NA
ATOM     17  C   UNL     1      -1.133  -0.681  25.189  0.00  0.00    +0.230 A 
ATOM     25  O   UNL     1      -1.397   0.063  25.430  0.00  0.00    -0.423 OA
BRANCH  17  18
ATOM     18  C   UNL     1      -1.414  -1.407  25.462  0.00  0.00    +0.113 C 
BRANCH  18  19
ATOM     19  C   UNL     1      -2.135  -1.699  25.189  0.00  0.00    -0.013 A 
ATOM     20  C   UNL     1      -2.153  -2.220  24.549  0.00  0.00    -0.004 A 
ATOM     21  C   UNL     1      -2.875  -2.513  24.275  0.00  0.00    -0.000 A 
ATOM     22  C   UNL     1      -3.578  -2.284  24.642  0.00  0.00    -0.000 A 
ATOM     23  C   UNL     1      -3.560  -1.764  25.282  0.00  0.00    -0.000 A 
ATOM     24  C   UNL     1      -2.838  -1.471  25.556  0.00  0.00    -0.004 A 
ENDBRANCH  18  19
ENDBRANCH  17  18
ENDBRANCH  12  14
BRANCH   9   8
ATOM      8  C   UNL     1      -1.972   3.341  24.721  0.00  0.00    +0.099 C 
BRANCH   8   7
ATOM      4  C   UNL     1      -4.369   3.432  25.326  0.00  0.00    +0.048 A 
ATOM      5  C   UNL     1      -3.799   3.699  25.859  0.00  0.00    +0.014 A 
ATOM      6  C   UNL     1      -3.000   3.668  25.658  0.00  0.00    -0.002 A 
ATOM      7  C   UNL     1      -2.771   3.372  24.923  0.00  0.00    -0.006 A 
ATOM     26  C   UNL     1      -3.341   3.105  24.390  0.00  0.00    -0.002 A 
ATOM     27  C   UNL     1      -4.141   3.135  24.591  0.00  0.00    +0.014 A 
BRANCH   4   2
ATOM      1  C   UNL     1      -5.579   4.177  25.484  0.00  0.00    +0.112 C 
ATOM      2  N   UNL     1      -5.169   3.462  25.528  0.00  0.00    -0.304 N 
ATOM      3  C   UNL     1      -5.558   2.778  25.774  0.00  0.00    +0.112 C 
ENDBRANCH   4   2
ENDBRANCH   8   7
ENDBRANCH   9   8
TORSDOF 6
ENDMDL
MODEL 5
REMARK VINA RESULT:     -11.0      1.173      5.132
REMARK  Name = 
REMARK  6 active torsions:
REMARK  status: ('A' for Active; 'I' for Inactive)
REMARK    1  A    between atoms: N_2  and  C_4
REMARK    2  A    between atoms: C_7  and  C_8
REMARK    3  A    between atoms: C_8  and  N_9
REMARK    4  A    between atoms: C_12  and  C_14
REMARK    5  A    between atoms: C_17  and  C_18
REMARK    6  A    between atoms: C_18  and  C_19
REMARK                            x       y       z     vdW  Elec       q    Type
REMARK                         _______ _______ _______ _____ _____    ______ ____
ROOT
ATOM      9  N   UNL     1      -0.742  -0.224  25.181  0.00  0.00    -0.268 NA
ATOM     10  C   UNL     1      -0.288  -0.066  24.511  0.00  0.00    +0.073 C 
ATOM     11  C   UNL     1      -0.197   0.752  24.450  0.00  0.00    +0.028 C 
ATOM     12  C   UNL     1      -0.595   1.100  25.084  0.00  0.00    +0.096 C 
ATOM     13  C   UNL     1      -0.931   0.497  25.535  0.00  0.00    +0.082 C 
ENDROOT
BRANCH  12  14
ATOM     14  C   UNL     1      -0.647   1.908  25.238  0.00  0.00    +0.227 A 
ATOM     15  N   UNL     1      -0.133   2.345  25.714  0.00  0.00    -0.112 NA
ATOM     16  N   UNL     1      -0.390   3.129  25.715  0.00  0.00    -0.111 NA
ATOM     17  C   UNL     1      -1.062   3.177  25.240  0.00  0.00    +0.230 A 
ATOM     25  O   UNL     1      -1.221   2.422  24.945  0.00  0.00    -0.423 OA
BRANCH  17  18
ATOM     18  C   UNL     1      -1.500   3.860  25.086  0.00  0.00    +0.113 C 
BRANCH  18  19
ATOM     19  C   UNL     1      -2.297   3.894  25.294  0.00  0.00    -0.013 A 
ATOM     20  C   UNL     1      -2.878   3.716  24.735  0.00  0.00    -0.004 A 
ATOM     21  C   UNL     1      -3.675   3.751  24.944  0.00  0.00    -0.000 A 
ATOM     22  C   UNL     1      -3.892   3.964  25.711  0.00  0.00    -0.000 A 
ATOM     23  C   UNL     1      -3.312   4.142  26.269  0.00  0.00    -0.000 A 
ATOM     24  C   UNL     1      -2.514   4.107  26.061  0.00  0.00    -0.004 A 
ENDBRANCH  18  19
ENDBRANCH  17  18
ENDBRANCH  12  14
BRANCH   9   8
ATOM      8  C   UNL     1      -0.967  -0.970  25.450  0.00  0.00    +0.099 C 
BRANCH   8   7
ATOM      4  C   UNL     1      -3.028  -2.028  24.581  0.00  0.00    +0.048 A 
ATOM      5  C   UNL     1      -3.077  -1.446  25.163  0.00  0.00    +0.014 A 
ATOM      6  C   UNL     1      -2.391  -1.094  25.453  0.00  0.00    -0.002 A 
ATOM      7  C   UNL     1      -1.655  -1.323  25.161  0.00  0.00    -0.006 A 
ATOM     26  C   UNL     1      -1.605  -1.905  24.578  0.00  0.00    -0.002 A 
ATOM     27  C   UNL     1      -2.292  -2.258  24.288  0.00  0.00    +0.014 A 
BRANCH   4   2
ATOM      1  C   UNL     1      -3.839  -3.191  24.393  0.00  0.00    +0.112 C 
ATOM      2  N   UNL     1      -3.715  -2.381  24.290  0.00  0.00    -0.304 N 
ATOM      3  C   UNL     1      -4.278  -1.925  23.897  0.00  0.00    +0.112 C 
ENDBRANCH   4   2
ENDBRANCH   8   7
ENDBRANCH   9   8
TORSDOF 6
ENDMDL
