MODEL 1
REMARK VINA RESULT:     -17.5      0.000      0.000
REMARK  Name = 
REMARK  3 active torsions:
REMARK  status: ('A' for Active; 'I' for Inactive)
REMARK    1  A    between atoms: C_7  and  N_10
REMARK    2  A    between atoms: C_19  and  C_24
REMARK    3  A    between atoms: C_26  and  C_30
REMARK                            x       y       z     vdW  Elec       q    Type
REMARK                         _______ _______ _______ _____ _____    ______ ____
ROOT
ATOM     10  N   UNL     1      -2.691   2.293  24.471  0.00  0.00    -0.273 NA
ATOM     11  C   UNL     1      -2.715   3.119  24.351  0.00  0.00    +0.074 C 
ATOM     12  C   UNL     1      -3.684   3.275  24.464  0.00  0.00    +0.039 C 
ATOM     13  C   UNL     1      -4.442   3.566  24.526  0.00  0.00    +0.011 C 
ATOM     14  C   UNL     1      -4.120   2.945  24.574  0.00  0.00    +0.054 C 
ATOM     15  C   UNL     1      -3.181   2.810  24.462  0.00  0.00    +0.078 C 
ATOM     16  C   UNL     1      -4.288   2.055  24.730  0.00  0.00    +0.041 A 
ATOM     17  C   UNL     1      -4.912   1.540  24.893  0.00  0.00    +0.013 A 
ATOM     18  C   UNL     1      -4.766   0.734  24.993  0.00  0.00    +0.006 A 
ATOM     19  C   UNL     1      -3.997   0.443  24.928  0.00  0.00    +0.056 A 
ATOM     20  C   UNL     1      -3.373   0.958  24.765  0.00  0.00    +0.261 A 
ATOM     21  O   UNL     1      -2.913   0.274  24.802  0.00  0.00    -0.267 OA
ATOM     22  N   UNL     1      -3.519   1.763  24.665  0.00  0.00    -0.299 N 
ATOM     23  C   UNL     1      -3.851   2.343  24.625  0.00  0.00    +0.110 C 
ENDROOT
BRANCH  10   7
ATOM      1  C   UNL     1      -1.164  -1.017  25.477  0.00  0.00    +0.095 C 
ATOM      2  C   UNL     1      -1.425  -0.743  24.745  0.00  0.00    +0.226 C 
ATOM      3  O   UNL     1      -1.369  -1.228  24.079  0.00  0.00    -0.275 OA
ATOM      4  N   UNL     1      -1.741   0.016  24.676  0.00  0.00    -0.279 N 
ATOM      5  C   UNL     1      -2.002   0.290  23.943  0.00  0.00    +0.095 C 
ATOM      6  C   UNL     1      -2.319   1.048  23.874  0.00  0.00    +0.038 C 
ATOM      7  C   UNL     1      -2.375   1.533  24.539  0.00  0.00    +0.061 C 
ATOM      8  C   UNL     1      -2.114   1.260  25.272  0.00  0.00    +0.038 C 
ATOM      9  C   UNL     1      -1.797   0.501  25.341  0.00  0.00    +0.095 C 
ENDBRANCH  10   7
BRANCH  19  24
ATOM     24  C   UNL     1      -3.852  -0.363  25.028  0.00  0.00    +0.005 A 
ATOM     25  C   UNL     1      -4.055  -0.895  24.432  0.00  0.00    +0.004 A 
ATOM     26  C   UNL     1      -3.909  -1.702  24.532  0.00  0.00    +0.071 A 
ATOM     27  C   UNL     1      -3.561  -1.974  25.229  0.00  0.00    +0.004 A 
ATOM     28  C   UNL     1      -3.358  -1.441  25.825  0.00  0.00    -0.000 A 
ATOM     29  C   UNL     1      -3.503  -0.636  25.724  0.00  0.00    +0.000 A 
BRANCH  26  30
ATOM     30  C   UNL     1      -4.113  -2.235  23.936  0.00  0.00    +0.419 C 
ATOM     31  F   UNL     1      -4.316  -2.768  23.341  0.00  0.00    -0.166 F 
ATOM     32  F   UNL     1      -3.828  -2.858  24.396  0.00  0.00    -0.166 F 
ATOM     33  F   UNL     1      -4.398  -1.612  23.477  0.00  0.00    -0.166 F 
ENDBRANCH  26  30
ENDBRANCH  19  24
TORSDOF 3
ENDMDL
MODEL 2
REMARK VINA RESULT:     -16.4      1.795      3.780
REMARK  Name = 
REMARK  3 active torsions:
REMARK  status: ('A' for Active; 'I' for Inactive)
REMARK    1  A    between atoms: C_7  and  N_10
REMARK    2  A    between atoms: C_19  and  C_24
REMARK    3  A    between atoms: C_26  and  C_30
REMARK                            x       y       z     vdW  Elec       q    Type
REMARK                         _______ _______ _______ _____ _____    ______ ____
ROOT
ATOM     10  N   UNL     1      -2.093  -1.395  24.815  0.00  0.00    -0.273 NA
ATOM     11  C   UNL     1      -1.966  -2.215  24.911  0.00  0.00    +0.074 C 
ATOM     12  C   UNL     1      -2.861  -2.552  24.663  0.00  0.00    +0.039 C 
ATOM     13  C   UNL     1      -3.530  -2.982  24.489  0.00  0.00    +0.011 C 
ATOM     14  C   UNL     1      -3.336  -2.308  24.501  0.00  0.00    +0.054 C 
ATOM     15  C   UNL     1      -2.466  -1.998  24.744  0.00  0.00    +0.078 C 
ATOM     16  C   UNL     1      -3.658  -1.462  24.345  0.00  0.00    +0.041 A 
ATOM     17  C   UNL     1      -4.345  -1.072  24.108  0.00  0.00    +0.013 A 
ATOM     18  C   UNL     1      -4.352  -0.249  24.049  0.00  0.00    +0.006 A 
ATOM     19  C   UNL     1      -3.672   0.184  24.226  0.00  0.00    +0.056 A 
ATOM     20  C   UNL     1      -2.985  -0.206  24.462  0.00  0.00    +0.261 A 
ATOM     21  O   UNL     1      -2.671   0.555  24.504  0.00  0.00    -0.267 OA
ATOM     22  N   UNL     1      -2.978  -1.029  24.521  0.00  0.00    -0.299 N 
ATOM     23  C   UNL     1      -3.189  -1.664  24.501  0.00  0.00    +0.110 C 
ENDROOT
BRANCH  10   7
ATOM      1  C   UNL     1      -1.146   2.196  24.106  0.00  0.00    +0.095 C 
ATOM      2  C   UNL     1      -1.438   1.839  24.790  0.00  0.00    +0.226 C 
ATOM      3  O   UNL     1      -1.565   2.292  25.469  0.00  0.00    -0.275 OA
ATOM      4  N   UNL     1      -1.602   1.031  24.797  0.00  0.00    -0.279 N 
ATOM      5  C   UNL     1      -1.893   0.674  25.481  0.00  0.00    +0.095 C 
ATOM      6  C   UNL     1      -2.057  -0.134  25.488  0.00  0.00    +0.038 C 
ATOM      7  C   UNL     1      -1.929  -0.586  24.809  0.00  0.00    +0.061 C 
ATOM      8  C   UNL     1      -1.638  -0.230  24.125  0.00  0.00    +0.038 C 
ATOM      9  C   UNL     1      -1.474   0.579  24.118  0.00  0.00    +0.095 C 
ENDBRANCH  10   7
BRANCH  19  24
ATOM     24  C   UNL     1      -3.680   1.006  24.166  0.00  0.00    +0.005 A 
ATOM     25  C   UNL     1      -4.056   1.459  24.745  0.00  0.00    +0.004 A 
ATOM     26  C   UNL     1      -4.064   2.282  24.684  0.00  0.00    +0.071 A 
ATOM     27  C   UNL     1      -3.695   2.652  24.045  0.00  0.00    +0.004 A 
ATOM     28  C   UNL     1      -3.320   2.199  23.467  0.00  0.00    -0.000 A 
ATOM     29  C   UNL     1      -3.312   1.377  23.527  0.00  0.00    +0.000 A 
BRANCH  26  30
ATOM     30  C   UNL     1      -4.439   2.734  25.263  0.00  0.00    +0.419 C 
ATOM     31  F   UNL     1      -4.815   3.187  25.841  0.00  0.00    -0.166 F 
ATOM     32  F   UNL     1      -4.740   2.047  25.605  0.00  0.00    -0.166 F 
ATOM     33  F   UNL     1      -4.139   3.422  24.920  0.00  0.00    -0.166 F 
ENDBRANCH  26  30
ENDBRANCH  19  24
TORSDOF 3
ENDMDL
MODEL 3
REMARK VINA RESULT:     -15.8      3.075      4.199
REMARK  Name = 
REMARK  3 active torsions:
REMARK  status: ('A' for Active; 'I' for Inactive)
REMARK    1  A    between atoms: C_7  and  N_10
REMARK    2  A    between atoms: C_19  and  C_24
REMARK    3  A    between atoms: C_26  and  C_30
REMARK                            x       y       z     vdW  Elec       q    Type
REMARK                         _______ _______ _______ _____ _____    ______ ____
ROOT
ATOM     10  N   UNL     1      -4.516   1.933  24.568  0.00  0.00    -0.273 NA
ATOM     11  C   UNL     1      -5.320   1.707  24.525  0.00  0.00    +0.074 C 
ATOM     12  C   UNL     1      -5.705   2.342  25.176  0.00  0.00    +0.039 C 
ATOM     13  C   UNL     1      -6.170   2.789  25.673  0.00  0.00    +0.011 C 
ATOM     14  C   UNL     1      -5.492   2.745  25.498  0.00  0.00    +0.054 C 
ATOM     15  C   UNL     1      -5.135   2.125  24.865  0.00  0.00    +0.078 C 
ATOM     16  C   UNL     1      -4.675   3.124  25.677  0.00  0.00    +0.041 A 
ATOM     17  C   UNL     1      -4.329   3.712  26.141  0.00  0.00    +0.013 A 
ATOM     18  C   UNL     1      -3.516   3.846  26.099  0.00  0.00    +0.006 A 
ATOM     19  C   UNL     1      -3.049   3.391  25.594  0.00  0.00    +0.056 A 
ATOM     20  C   UNL     1      -3.394   2.802  25.131  0.00  0.00    +0.261 A 
ATOM     21  O   UNL     1      -2.623   2.680  24.866  0.00  0.00    -0.267 OA
ATOM     22  N   UNL     1      -4.207   2.669  25.172  0.00  0.00    -0.299 N 
ATOM     23  C   UNL     1      -4.847   2.732  25.357  0.00  0.00    +0.110 C 
ENDROOT
BRANCH  10   7
ATOM      1  C   UNL     1      -0.772   1.452  24.358  0.00  0.00    +0.095 C 
ATOM      2  C   UNL     1      -1.280   1.932  23.921  0.00  0.00    +0.226 C 
ATOM      3  O   UNL     1      -0.979   2.413  23.321  0.00  0.00    -0.275 OA
ATOM      4  N   UNL     1      -2.089   1.933  24.082  0.00  0.00    -0.279 N 
ATOM      5  C   UNL     1      -2.597   2.413  23.646  0.00  0.00    +0.095 C 
ATOM      6  C   UNL     1      -3.406   2.414  23.807  0.00  0.00    +0.038 C 
ATOM      7  C   UNL     1      -3.707   1.932  24.406  0.00  0.00    +0.061 C 
ATOM      8  C   UNL     1      -3.199   1.452  24.844  0.00  0.00    +0.038 C 
ATOM      9  C   UNL     1      -2.390   1.452  24.682  0.00  0.00    +0.095 C 
ENDBRANCH  10   7
BRANCH  19  24
ATOM     24  C   UNL     1      -2.236   3.525  25.553  0.00  0.00    +0.005 A 
ATOM     25  C   UNL     1      -1.948   4.205  25.185  0.00  0.00    +0.004 A 
ATOM     26  C   UNL     1      -1.134   4.338  25.144  0.00  0.00    +0.071 A 
ATOM     27  C   UNL     1      -0.610   3.792  25.472  0.00  0.00    +0.004 A 
ATOM     28  C   UNL     1      -0.898   3.112  25.840  0.00  0.00    -0.000 A 
ATOM     29  C   UNL     1      -1.711   2.979  25.880  0.00  0.00    +0.000 A 
BRANCH  26  30
ATOM     30  C   UNL     1      -0.846   5.018  24.776  0.00  0.00    +0.419 C 
ATOM     31  F   UNL     1      -0.557   5.697  24.409  0.00  0.00    -0.166 F 
ATOM     32  F   UNL     1      -1.461   5.457  25.106  0.00  0.00    -0.166 F 
ATOM     33  F   UNL     1      -0.230   4.578  24.447  0.00  0.00    -0.166 F 
ENDBRANCH  26  30
ENDBRANCH  19  24
TORSDOF 3
ENDMDL
MODEL 4
REMARK VINA RESULT:     -15.4      2.746      4.774
REMARK  Name = 
REMARK  3 active torsions:
REMARK  status: ('A' for Active; 'I' for Inactive)
REMARK    1  A    between atoms: C_7  and  N_10
REMARK    2  A    between atoms: C_19  and  C_24
REMARK    3  A    between atoms: C_26  and  C_30
REMARK                            x       y       z     vdW  Elec       q    Type
REMARK                         _______ _______ _______ _____ _____    ______ ____
ROOT
ATOM     10  N   UNL     1      -2.393   0.452  24.419  0.00  0.00    -0.273 NA
ATOM     11  C   UNL     1      -2.288  -0.364  24.278  0.00  0.00    +0.074 C 
ATOM     12  C   UNL     1      -1.456  -0.515  24.789  0.00  0.00    +0.039 C 
ATOM     13  C   UNL     1      -0.788  -0.800  25.157  0.00  0.00    +0.011 C 
ATOM     14  C   UNL     1      -1.124  -0.187  25.093  0.00  0.00    +0.054 C 
ATOM     15  C   UNL     1      -1.928  -0.057  24.595  0.00  0.00    +0.078 C 
ATOM     16  C   UNL     1      -1.073   0.693  25.354  0.00  0.00    +0.041 A 
ATOM     17  C   UNL     1      -0.602   1.204  25.798  0.00  0.00    +0.013 A 
ATOM     18  C   UNL     1      -0.807   1.999  25.867  0.00  0.00    +0.006 A 
ATOM     19  C   UNL     1      -1.485   2.285  25.492  0.00  0.00    +0.056 A 
ATOM     20  C   UNL     1      -1.957   1.774  25.049  0.00  0.00    +0.261 A 
ATOM     21  O   UNL     1      -2.415   2.448  24.920  0.00  0.00    -0.267 OA
ATOM     22  N   UNL     1      -1.751   0.978  24.979  0.00  0.00    -0.299 N 
ATOM     23  C   UNL     1      -1.412   0.406  25.056  0.00  0.00    +0.110 C 
ENDROOT
BRANCH  10   7
ATOM      1  C   UNL     1      -4.332   3.671  24.843  0.00  0.00    +0.095 C 
ATOM      2  C   UNL     1      -3.772   3.447  24.280  0.00  0.00    +0.226 C 
ATOM      3  O   UNL     1      -3.557   3.974  23.682  0.00  0.00    -0.275 OA
ATOM      4  N   UNL     1      -3.427   2.699  24.314  0.00  0.00    -0.279 N 
ATOM      5  C   UNL     1      -2.868   2.476  23.752  0.00  0.00    +0.095 C 
ATOM      6  C   UNL     1      -2.523   1.728  23.786  0.00  0.00    +0.038 C 
ATOM      7  C   UNL     1      -2.738   1.201  24.384  0.00  0.00    +0.061 C 
ATOM      8  C   UNL     1      -3.298   1.424  24.948  0.00  0.00    +0.038 C 
ATOM      9  C   UNL     1      -3.643   2.173  24.913  0.00  0.00    +0.095 C 
ENDBRANCH  10   7
BRANCH  19  24
ATOM     24  C   UNL     1      -1.690   3.080  25.562  0.00  0.00    +0.005 A 
ATOM     25  C   UNL     1      -1.251   3.656  25.168  0.00  0.00    +0.004 A 
ATOM     26  C   UNL     1      -1.457   4.453  25.238  0.00  0.00    +0.071 A 
ATOM     27  C   UNL     1      -2.102   4.672  25.703  0.00  0.00    +0.004 A 
ATOM     28  C   UNL     1      -2.542   4.096  26.097  0.00  0.00    -0.000 A 
ATOM     29  C   UNL     1      -2.336   3.300  26.027  0.00  0.00    +0.000 A 
BRANCH  26  30
ATOM     30  C   UNL     1      -1.017   5.028  24.844  0.00  0.00    +0.419 C 
ATOM     31  F   UNL     1      -0.578   5.604  24.449  0.00  0.00    -0.166 F 
ATOM     32  F   UNL     1      -0.566   4.438  24.484  0.00  0.00    -0.166 F 
ATOM     33  F   UNL     1      -1.468   5.618  25.203  0.00  0.00    -0.166 F 
ENDBRANCH  26  30
ENDBRANCH  19  24
TORSDOF 3
ENDMDL
MODEL 5
REMARK VINA RESULT:     -15.4      1.631      3.048
REMARK  Name = 
REMARK  3 active torsions:
REMARK  status: ('A' for Active; 'I' for Inactive)
REMARK    1  A    between atoms: C_7  and  N_10
REMARK    2  A    between atoms: C_19  and  C_24
REMARK    3  A    between atoms: C_26  and  C_30
REMARK                            x       y       z     vdW  Elec       q    Type
REMARK                         _______ _______ _______ _____ _____    ______ ____
ROOT
ATOM     10  N   UNL     1      -2.658   4.147  25.184  0.00  0.00    -0.273 NA
ATOM     11  C   UNL     1      -2.234   4.855  25.315  0.00  0.00    +0.074 C 
ATOM     12  C   UNL     1      -1.315   4.532  25.151  0.00  0.00    +0.039 C 
ATOM     13  C   UNL     1      -0.514   4.426  25.050  0.00  0.00    +0.011 C 
ATOM     14  C   UNL     1      -1.097   4.038  25.011  0.00  0.00    +0.054 C 
ATOM     15  C   UNL     1      -1.980   4.365  25.173  0.00  0.00    +0.078 C 
ATOM     16  C   UNL     1      -1.384   3.183  24.832  0.00  0.00    +0.041 A 
ATOM     17  C   UNL     1      -1.093   2.440  24.626  0.00  0.00    +0.013 A 
ATOM     18  C   UNL     1      -1.612   1.807  24.522  0.00  0.00    +0.006 A 
ATOM     19  C   UNL     1      -2.423   1.918  24.625  0.00  0.00    +0.056 A 
ATOM     20  C   UNL     1      -2.715   2.662  24.832  0.00  0.00    +0.261 A 
ATOM     21  O   UNL     1      -3.448   2.285  24.810  0.00  0.00    -0.267 OA
ATOM     22  N   UNL     1      -2.195   3.294  24.935  0.00  0.00    -0.299 N 
ATOM     23  C   UNL     1      -1.624   3.642  24.965  0.00  0.00    +0.110 C 
ENDROOT
BRANCH  10   7
ATOM      1  C   UNL     1      -5.529   1.723  25.605  0.00  0.00    +0.095 C 
ATOM      2  C   UNL     1      -5.238   2.105  24.935  0.00  0.00    +0.226 C 
ATOM      3  O   UNL     1      -5.593   1.976  24.201  0.00  0.00    -0.275 OA
ATOM      4  N   UNL     1      -4.593   2.615  24.997  0.00  0.00    -0.279 N 
ATOM      5  C   UNL     1      -4.303   2.997  24.326  0.00  0.00    +0.095 C 
ATOM      6  C   UNL     1      -3.658   3.507  24.388  0.00  0.00    +0.038 C 
ATOM      7  C   UNL     1      -3.303   3.636  25.122  0.00  0.00    +0.061 C 
ATOM      8  C   UNL     1      -3.593   3.255  25.793  0.00  0.00    +0.038 C 
ATOM      9  C   UNL     1      -4.238   2.744  25.731  0.00  0.00    +0.095 C 
ENDBRANCH  10   7
BRANCH  19  24
ATOM     24  C   UNL     1      -2.942   1.286  24.522  0.00  0.00    +0.005 A 
ATOM     25  C   UNL     1      -3.003   0.703  25.102  0.00  0.00    +0.004 A 
ATOM     26  C   UNL     1      -3.522   0.069  24.997  0.00  0.00    +0.071 A 
ATOM     27  C   UNL     1      -3.980   0.020  24.313  0.00  0.00    +0.004 A 
ATOM     28  C   UNL     1      -3.919   0.604  23.733  0.00  0.00    -0.000 A 
ATOM     29  C   UNL     1      -3.400   1.236  23.837  0.00  0.00    +0.000 A 
BRANCH  26  30
ATOM     30  C   UNL     1      -3.583  -0.514  25.577  0.00  0.00    +0.419 C 
ATOM     31  F   UNL     1      -3.644  -1.097  26.157  0.00  0.00    -0.166 F 
ATOM     32  F   UNL     1      -2.854  -0.284  25.885  0.00  0.00    -0.166 F 
ATOM     33  F   UNL     1      -4.313  -0.744  25.270  0.00  0.00    -0.166 F 
ENDBRANCH  26  30
ENDBRANCH  19  24
TORSDOF 3
ENDMDL
MODEL 6
REMARK VINA RESULT:     -15.3      2.204      4.218
REMARK  Name = 
REMARK  3 active torsions:
REMARK  status: ('A' for Active; 'I' for Inactive)
REMARK    1  A    between atoms: C_7  and  N_10
REMARK    2  A    between atoms: C_19  and  C_24
REMARK    3  A    between atoms: C_26  and  C_30
REMARK                            x       y       z     vdW  Elec       q    Type
REMARK                         _______ _______ _______ _____ _____    ______ ____
ROOT
ATOM     10  N   UNL     1      -3.884  -0.742  24.343  0.00  0.00    -0.273 NA
ATOM     11  C   UNL     1      -4.366  -1.424  24.329  0.00  0.00    +0.074 C 
ATOM     12  C   UNL     1      -3.686  -2.113  24.525  0.00  0.00    +0.039 C 
ATOM     13  C   UNL     1      -3.256  -2.788  24.674  0.00  0.00    +0.011 C 
ATOM     14  C   UNL     1      -3.137  -2.099  24.622  0.00  0.00    +0.054 C 
ATOM     15  C   UNL     1      -3.806  -1.444  24.432  0.00  0.00    +0.078 C 
ATOM     16  C   UNL     1      -2.462  -1.477  24.678  0.00  0.00    +0.041 A 
ATOM     17  C   UNL     1      -1.651  -1.423  24.818  0.00  0.00    +0.013 A 
ATOM     18  C   UNL     1      -1.279  -0.687  24.807  0.00  0.00    +0.006 A 
ATOM     19  C   UNL     1      -1.717  -0.005  24.655  0.00  0.00    +0.056 A 
ATOM     20  C   UNL     1      -2.528  -0.059  24.515  0.00  0.00    +0.261 A 
ATOM     21  O   UNL     1      -2.481   0.760  24.436  0.00  0.00    -0.267 OA
ATOM     22  N   UNL     1      -2.901  -0.795  24.526  0.00  0.00    -0.299 N 
ATOM     23  C   UNL     1      -2.987  -1.456  24.581  0.00  0.00    +0.110 C 
ENDROOT
BRANCH  10   7
ATOM      1  C   UNL     1      -2.823   2.771  23.432  0.00  0.00    +0.095 C 
ATOM      2  C   UNL     1      -3.055   2.447  24.153  0.00  0.00    +0.226 C 
ATOM      3  O   UNL     1      -3.080   2.921  24.829  0.00  0.00    -0.275 OA
ATOM      4  N   UNL     1      -3.262   1.650  24.201  0.00  0.00    -0.279 N 
ATOM      5  C   UNL     1      -3.495   1.326  24.923  0.00  0.00    +0.095 C 
ATOM      6  C   UNL     1      -3.702   0.529  24.971  0.00  0.00    +0.038 C 
ATOM      7  C   UNL     1      -3.676   0.056  24.296  0.00  0.00    +0.061 C 
ATOM      8  C   UNL     1      -3.444   0.379  23.573  0.00  0.00    +0.038 C 
ATOM      9  C   UNL     1      -3.237   1.176  23.526  0.00  0.00    +0.095 C 
ENDBRANCH  10   7
BRANCH  19  24
ATOM     24  C   UNL     1      -1.345   0.730  24.644  0.00  0.00    +0.005 A 
ATOM     25  C   UNL     1      -1.130   1.095  25.352  0.00  0.00    +0.004 A 
ATOM     26  C   UNL     1      -0.756   1.831  25.340  0.00  0.00    +0.071 A 
ATOM     27  C   UNL     1      -0.598   2.202  24.620  0.00  0.00    +0.004 A 
ATOM     28  C   UNL     1      -0.813   1.837  23.912  0.00  0.00    -0.000 A 
ATOM     29  C   UNL     1      -1.186   1.101  23.924  0.00  0.00    +0.000 A 
BRANCH  26  30
ATOM     30  C   UNL     1      -0.541   2.196  26.048  0.00  0.00    +0.419 C 
ATOM     31  F   UNL     1      -0.326   2.561  26.756  0.00  0.00    -0.166 F 
ATOM     32  F   UNL     1      -0.490   2.921  25.659  0.00  0.00    -0.166 F 
ATOM     33  F   UNL     1      -0.593   1.471  26.437  0.00  0.00    -0.166 F 
ENDBRANCH  26  30
ENDBRANCH  19  24
TORSDOF 3
ENDMDL
