REMARK  Name = 
REMARK  2 active torsions:
REMARK  status: ('A' for Active; 'I' for Inactive)
REMARK    1  A    between atoms: N_13  and  S_14
REMARK    2  A    between atoms: S_14  and  C_17
REMARK                            x       y       z     vdW  Elec       q    Type
REMARK                         _______ _______ _______ _____ _____    ______ ____
ROOT
ATOM      1  C   UNL     1       1.393  -0.054   0.000  0.00  0.00    +0.012 C 
ATOM      2  C   UNL     1       2.105  -0.471   0.000  0.00  0.00    +0.103 C 
ATOM      3  C   UNL     1       2.861  -0.139   0.000  0.00  0.00    +0.051 C 
ATOM      4  C   UNL     1       3.120   0.644   0.000  0.00  0.00    +0.004 C 
ATOM      5  C   UNL     1       3.928   0.811   0.000  0.00  0.00    +0.001 C 
ATOM      6  C   UNL     1       4.477   0.194   0.000  0.00  0.00    +0.008 C 
ATOM      7  C   UNL     1       4.736   0.978   0.000  0.00  0.00    +0.000 C 
ATOM      8  C   UNL     1       5.285   0.361   0.000  0.00  0.00    +0.034 C 
ATOM      9  C   UNL     1       5.833  -0.255   0.000  0.00  0.00    +0.023 A 
ATOM     10  C   UNL     1       5.574  -1.038   0.000  0.00  0.00    +0.063 A 
ATOM     11  N   UNL     1       6.239  -1.527   0.000  0.00  0.00    -0.226 NA
ATOM     12  C   UNL     1       6.909  -1.046   0.000  0.00  0.00    +0.202 A 
ATOM     13  N   UNL     1       7.692  -1.305   0.000  0.00  0.00    -0.070 NA
ATOM     25  S   UNL     1       6.658  -0.260   0.000  0.00  0.00    -0.053 S 
ATOM     26  C   UNL     1       4.766  -1.205   0.000  0.00  0.00    +0.044 C 
ATOM     27  C   UNL     1       4.507  -1.988   0.000  0.00  0.00    +0.006 C 
ATOM     28  C   UNL     1       4.218  -0.589   0.000  0.00  0.00    +0.046 C 
ATOM     29  C   UNL     1       3.409  -0.756   0.000  0.00  0.00    +0.170 C 
ATOM     30  O   UNL     1       2.993  -1.468   0.000  0.00  0.00    -0.452 OA
ATOM     31  C   UNL     1       2.187  -1.292   0.000  0.00  0.00    +0.316 C 
ATOM     32  O   UNL     1       1.571  -1.840   0.000  0.00  0.00    -0.250 OA
ENDROOT
BRANCH  13  14
ATOM     14  S   UNL     1       7.859  -2.113   0.000  0.00  0.00    +0.096 S 
ATOM     15  O   UNL     1       7.051  -2.280   0.000  0.00  0.00    -0.148 OA
ATOM     16  O   UNL     1       8.667  -1.946   0.000  0.00  0.00    -0.148 OA
BRANCH  14  17
ATOM     17  C   UNL     1       8.026  -2.921   0.000  0.00  0.00    +0.148 A 
ATOM     18  C   UNL     1       8.809  -3.180   0.000  0.00  0.00    +0.077 A 
ATOM     19 CL   UNL     1       9.425  -2.632   0.000  0.00  0.00    -0.081 Cl
ATOM     20  C   UNL     1       8.976  -3.988   0.000  0.00  0.00    +0.013 A 
ATOM     21  C   UNL     1       8.360  -4.537   0.000  0.00  0.00    +0.002 A 
ATOM     22  C   UNL     1       7.576  -4.277   0.000  0.00  0.00    +0.013 A 
ATOM     23  C   UNL     1       7.410  -3.470   0.000  0.00  0.00    +0.077 A 
ATOM     24 CL   UNL     1       6.626  -3.210   0.000  0.00  0.00    -0.081 Cl
ENDBRANCH  14  17
ENDBRANCH  13  14
TORSDOF 2
