MODEL 1
REMARK VINA RESULT:      -9.0      0.000      0.000
REMARK  Name = 
REMARK  9 active torsions:
REMARK  status: ('A' for Active; 'I' for Inactive)
REMARK    1  A    between atoms: O_2  and  C_3
REMARK    2  A    between atoms: C_3  and  C_4
REMARK    3  A    between atoms: N_6  and  C_7
REMARK    4  A    between atoms: C_7  and  C_8
REMARK    5  A    between atoms: C_12  and  C_13
REMARK    6  A    between atoms: C_13  and  C_14
REMARK    7  A    between atoms: C_17  and  C_19
REMARK    8  A    between atoms: C_22  and  O_23
REMARK    9  A    between atoms: C_28  and  C_29
REMARK                            x       y       z     vdW  Elec       q    Type
REMARK                         _______ _______ _______ _____ _____    ______ ____
ROOT
ATOM      8  C   UNL     1      -0.223   0.347  24.255  0.00  0.00    +0.043 C 
ATOM      9  C   UNL     1      -0.371  -0.460  24.168  0.00  0.00    -0.033 C 
ATOM     10  C   UNL     1      -1.070  -0.785  24.464  0.00  0.00    -0.048 C 
ATOM     11  C   UNL     1      -1.218  -1.591  24.377  0.00  0.00    +0.026 C 
ATOM     12  C   UNL     1      -1.620  -0.303  24.846  0.00  0.00    +0.027 C 
ATOM     27  C   UNL     1      -1.471   0.504  24.932  0.00  0.00    +0.005 C 
ATOM     28  C   UNL     1      -0.773   0.829  24.637  0.00  0.00    +0.006 C 
ENDROOT
BRANCH  28  29
ATOM     29  C   UNL     1      -0.624   1.636  24.723  0.00  0.00    +0.000 C 
ATOM     30  C   UNL     1      -0.827   2.160  24.120  0.00  0.00    +0.000 C 
ATOM     31  C   UNL     1      -0.272   1.919  25.414  0.00  0.00    +0.000 C 
ENDBRANCH  28  29
BRANCH   8   7
ATOM      7  C   UNL     1       0.476   0.672  23.959  0.00  0.00    +0.119 C 
BRANCH   7   6
ATOM      4  C   UNL     1       1.682   0.513  23.210  0.00  0.00    +0.272 C 
ATOM      5  O   UNL     1       1.991   1.192  23.562  0.00  0.00    -0.271 OA
ATOM      6  N   UNL     1       0.924   0.252  23.408  0.00  0.00    -0.203 NA
BRANCH   4   3
ATOM      3  C   UNL     1       2.131   0.093  22.659  0.00  0.00    +0.229 C 
BRANCH   3   2
ATOM      1  C   UNL     1       3.241   0.093  21.760  0.00  0.00    +0.175 C 
ATOM      2  O   UNL     1       2.887   0.356  22.457  0.00  0.00    -0.342 OA
ENDBRANCH   3   2
ENDBRANCH   4   3
ENDBRANCH   7   6
ENDBRANCH   8   7
BRANCH  12  13
ATOM     13  C   UNL     1      -2.318  -0.627  25.142  0.00  0.00    +0.091 C 
BRANCH  13  14
ATOM     14  C   UNL     1      -3.046  -0.296  24.940  0.00  0.00    +0.227 A 
ATOM     15  N   UNL     1      -3.609  -0.631  24.438  0.00  0.00    -0.111 NA
ATOM     16  N   UNL     1      -4.249  -0.113  24.393  0.00  0.00    -0.107 NA
ATOM     17  C   UNL     1      -4.083   0.541  24.866  0.00  0.00    +0.250 A 
ATOM     18  O   UNL     1      -3.339   0.428  25.205  0.00  0.00    -0.420 OA
BRANCH  17  19
ATOM     19  C   UNL     1      -4.574   1.194  24.982  0.00  0.00    +0.055 A 
ATOM     20  C   UNL     1      -4.444   1.888  24.555  0.00  0.00    +0.008 A 
ATOM     21  C   UNL     1      -4.934   2.541  24.670  0.00  0.00    +0.037 A 
ATOM     22  C   UNL     1      -5.555   2.501  25.212  0.00  0.00    +0.139 A 
ATOM     25  C   UNL     1      -5.685   1.807  25.640  0.00  0.00    +0.037 A 
ATOM     26  C   UNL     1      -5.194   1.153  25.524  0.00  0.00    +0.008 A 
BRANCH  22  23
ATOM     23  O   UNL     1      -6.045   3.154  25.327  0.00  0.00    -0.471 OA
ATOM     24  C   UNL     1      -5.733   3.857  25.626  0.00  0.00    +0.252 C 
ENDBRANCH  22  23
ENDBRANCH  17  19
ENDBRANCH  13  14
ENDBRANCH  12  13
TORSDOF 9
ENDMDL
MODEL 2
REMARK VINA RESULT:      -8.9      1.617      2.437
REMARK  Name = 
REMARK  9 active torsions:
REMARK  status: ('A' for Active; 'I' for Inactive)
REMARK    1  A    between atoms: O_2  and  C_3
REMARK    2  A    between atoms: C_3  and  C_4
REMARK    3  A    between atoms: N_6  and  C_7
REMARK    4  A    between atoms: C_7  and  C_8
REMARK    5  A    between atoms: C_12  and  C_13
REMARK    6  A    between atoms: C_13  and  C_14
REMARK    7  A    between atoms: C_17  and  C_19
REMARK    8  A    between atoms: C_22  and  O_23
REMARK    9  A    between atoms: C_28  and  C_29
REMARK                            x       y       z     vdW  Elec       q    Type
REMARK                         _______ _______ _______ _____ _____    ______ ____
ROOT
ATOM      8  C   UNL     1      -0.268   1.206  24.446  0.00  0.00    +0.043 C 
ATOM      9  C   UNL     1       0.029   1.965  24.322  0.00  0.00    -0.033 C 
ATOM     10  C   UNL     1      -0.303   2.608  24.721  0.00  0.00    -0.048 C 
ATOM     11  C   UNL     1      -0.007   3.367  24.596  0.00  0.00    +0.026 C 
ATOM     12  C   UNL     1      -0.931   2.490  25.243  0.00  0.00    +0.027 C 
ATOM     27  C   UNL     1      -1.227   1.729  25.366  0.00  0.00    +0.005 C 
ATOM     28  C   UNL     1      -0.895   1.088  24.969  0.00  0.00    +0.006 C 
ENDROOT
BRANCH  28  29
ATOM     29  C   UNL     1      -1.191   0.327  25.092  0.00  0.00    +0.000 C 
ATOM     30  C   UNL     1      -1.753   0.014  24.577  0.00  0.00    +0.000 C 
ATOM     31  C   UNL     1      -0.924  -0.120  25.732  0.00  0.00    +0.000 C 
ENDBRANCH  28  29
BRANCH   8   7
ATOM      7  C   UNL     1       0.064   0.563  24.047  0.00  0.00    +0.119 C 
BRANCH   7   6
ATOM      4  C   UNL     1       1.019   0.041  23.121  0.00  0.00    +0.272 C 
ATOM      5  O   UNL     1       0.748  -0.723  23.274  0.00  0.00    -0.271 OA
ATOM      6  N   UNL     1       0.676   0.685  23.508  0.00  0.00    -0.203 NA
BRANCH   4   3
ATOM      3  C   UNL     1       1.631   0.163  22.582  0.00  0.00    +0.229 C 
BRANCH   3   2
ATOM      1  C   UNL     1       3.035   0.160  22.315  0.00  0.00    +0.175 C 
ATOM      2  O   UNL     1       2.391  -0.113  22.752  0.00  0.00    -0.342 OA
ENDBRANCH   3   2
ENDBRANCH   4   3
ENDBRANCH   7   6
ENDBRANCH   8   7
BRANCH  12  13
ATOM     13  C   UNL     1      -1.262   3.131  25.641  0.00  0.00    +0.091 C 
BRANCH  13  14
ATOM     14  C   UNL     1      -2.038   3.362  25.480  0.00  0.00    +0.227 A 
ATOM     15  N   UNL     1      -2.281   4.117  25.253  0.00  0.00    -0.111 NA
ATOM     16  N   UNL     1      -3.100   4.100  25.150  0.00  0.00    -0.107 NA
ATOM     17  C   UNL     1      -3.361   3.336  25.313  0.00  0.00    +0.250 A 
ATOM     18  O   UNL     1      -2.705   2.879  25.517  0.00  0.00    -0.420 OA
BRANCH  17  19
ATOM     19  C   UNL     1      -4.143   3.072  25.279  0.00  0.00    +0.055 A 
ATOM     20  C   UNL     1      -4.389   2.591  24.654  0.00  0.00    +0.008 A 
ATOM     21  C   UNL     1      -5.169   2.328  24.619  0.00  0.00    +0.037 A 
ATOM     22  C   UNL     1      -5.705   2.545  25.209  0.00  0.00    +0.139 A 
ATOM     25  C   UNL     1      -5.459   3.026  25.833  0.00  0.00    +0.037 A 
ATOM     26  C   UNL     1      -4.678   3.289  25.867  0.00  0.00    +0.008 A 
BRANCH  22  23
ATOM     23  O   UNL     1      -6.485   2.281  25.174  0.00  0.00    -0.471 OA
ATOM     24  C   UNL     1      -6.651   1.513  24.922  0.00  0.00    +0.252 C 
ENDBRANCH  22  23
ENDBRANCH  17  19
ENDBRANCH  13  14
ENDBRANCH  12  13
TORSDOF 9
ENDMDL
MODEL 3
REMARK VINA RESULT:      -8.4      2.634      4.395
REMARK  Name = 
REMARK  9 active torsions:
REMARK  status: ('A' for Active; 'I' for Inactive)
REMARK    1  A    between atoms: O_2  and  C_3
REMARK    2  A    between atoms: C_3  and  C_4
REMARK    3  A    between atoms: N_6  and  C_7
REMARK    4  A    between atoms: C_7  and  C_8
REMARK    5  A    between atoms: C_12  and  C_13
REMARK    6  A    between atoms: C_13  and  C_14
REMARK    7  A    between atoms: C_17  and  C_19
REMARK    8  A    between atoms: C_22  and  O_23
REMARK    9  A    between atoms: C_28  and  C_29
REMARK                            x       y       z     vdW  Elec       q    Type
REMARK                         _______ _______ _______ _____ _____    ______ ____
ROOT
ATOM      8  C   UNL     1      -3.080   3.887  24.945  0.00  0.00    +0.043 C 
ATOM      9  C   UNL     1      -3.201   3.645  24.165  0.00  0.00    -0.033 C 
ATOM     10  C   UNL     1      -3.821   3.130  23.985  0.00  0.00    -0.048 C 
ATOM     11  C   UNL     1      -3.942   2.888  23.206  0.00  0.00    +0.026 C 
ATOM     12  C   UNL     1      -4.318   2.858  24.584  0.00  0.00    +0.027 C 
ATOM     27  C   UNL     1      -4.196   3.100  25.363  0.00  0.00    +0.005 C 
ATOM     28  C   UNL     1      -3.578   3.614  25.544  0.00  0.00    +0.006 C 
ENDROOT
BRANCH  28  29
ATOM     29  C   UNL     1      -3.456   3.857  26.323  0.00  0.00    +0.000 C 
ATOM     30  C   UNL     1      -3.854   4.515  26.618  0.00  0.00    +0.000 C 
ATOM     31  C   UNL     1      -2.934   3.439  26.807  0.00  0.00    +0.000 C 
ENDBRANCH  28  29
BRANCH   8   7
ATOM      7  C   UNL     1      -2.460   4.402  25.125  0.00  0.00    +0.119 C 
BRANCH   7   6
ATOM      4  C   UNL     1      -1.128   4.836  24.846  0.00  0.00    +0.272 C 
ATOM      5  O   UNL     1      -1.321   5.595  25.107  0.00  0.00    -0.271 OA
ATOM      6  N   UNL     1      -1.698   4.239  24.855  0.00  0.00    -0.203 NA
BRANCH   4   3
ATOM      3  C   UNL     1      -0.366   4.674  24.576  0.00  0.00    +0.229 C 
BRANCH   3   2
ATOM      1  C   UNL     1       0.379   3.522  24.176  0.00  0.00    +0.175 C 
ATOM      2  O   UNL     1      -0.007   3.954  24.763  0.00  0.00    -0.342 OA
ENDBRANCH   3   2
ENDBRANCH   4   3
ENDBRANCH   7   6
ENDBRANCH   8   7
BRANCH  12  13
ATOM     13  C   UNL     1      -4.937   2.343  24.404  0.00  0.00    +0.091 C 
BRANCH  13  14
ATOM     14  C   UNL     1      -4.936   1.575  24.703  0.00  0.00    +0.227 A 
ATOM     15  N   UNL     1      -5.456   1.275  25.270  0.00  0.00    -0.111 NA
ATOM     16  N   UNL     1      -5.257   0.486  25.406  0.00  0.00    -0.107 NA
ATOM     17  C   UNL     1      -4.615   0.298  24.924  0.00  0.00    +0.250 A 
ATOM     18  O   UNL     1      -4.417   0.971  24.490  0.00  0.00    -0.420 OA
BRANCH  17  19
ATOM     19  C   UNL     1      -4.237  -0.434  24.882  0.00  0.00    +0.055 A 
ATOM     20  C   UNL     1      -3.759  -0.687  25.506  0.00  0.00    +0.008 A 
ATOM     21  C   UNL     1      -3.380  -1.418  25.465  0.00  0.00    +0.037 A 
ATOM     22  C   UNL     1      -3.480  -1.898  24.801  0.00  0.00    +0.139 A 
ATOM     25  C   UNL     1      -3.958  -1.646  24.178  0.00  0.00    +0.037 A 
ATOM     26  C   UNL     1      -4.337  -0.913  24.219  0.00  0.00    +0.008 A 
BRANCH  22  23
ATOM     23  O   UNL     1      -3.102  -2.630  24.761  0.00  0.00    -0.471 OA
ATOM     24  C   UNL     1      -2.315  -2.675  24.516  0.00  0.00    +0.252 C 
ENDBRANCH  22  23
ENDBRANCH  17  19
ENDBRANCH  13  14
ENDBRANCH  12  13
TORSDOF 9
ENDMDL
MODEL 4
REMARK VINA RESULT:      -8.2      2.078      5.829
REMARK  Name = 
REMARK  9 active torsions:
REMARK  status: ('A' for Active; 'I' for Inactive)
REMARK    1  A    between atoms: O_2  and  C_3
REMARK    2  A    between atoms: C_3  and  C_4
REMARK    3  A    between atoms: N_6  and  C_7
REMARK    4  A    between atoms: C_7  and  C_8
REMARK    5  A    between atoms: C_12  and  C_13
REMARK    6  A    between atoms: C_13  and  C_14
REMARK    7  A    between atoms: C_17  and  C_19
REMARK    8  A    between atoms: C_22  and  O_23
REMARK    9  A    between atoms: C_28  and  C_29
REMARK                            x       y       z     vdW  Elec       q    Type
REMARK                         _______ _______ _______ _____ _____    ______ ____
ROOT
ATOM      8  C   UNL     1      -3.388   3.360  24.911  0.00  0.00    +0.043 C 
ATOM      9  C   UNL     1      -2.936   3.547  25.575  0.00  0.00    -0.033 C 
ATOM     10  C   UNL     1      -2.115   3.455  25.554  0.00  0.00    -0.048 C 
ATOM     11  C   UNL     1      -1.663   3.642  26.218  0.00  0.00    +0.026 C 
ATOM     12  C   UNL     1      -1.749   3.177  24.869  0.00  0.00    +0.027 C 
ATOM     27  C   UNL     1      -2.202   2.990  24.206  0.00  0.00    +0.005 C 
ATOM     28  C   UNL     1      -3.021   3.082  24.226  0.00  0.00    +0.006 C 
ENDROOT
BRANCH  28  29
ATOM     29  C   UNL     1      -3.475   2.895  23.563  0.00  0.00    +0.000 C 
ATOM     30  C   UNL     1      -3.693   3.487  23.032  0.00  0.00    +0.000 C 
ATOM     31  C   UNL     1      -3.711   2.116  23.431  0.00  0.00    +0.000 C 
ENDBRANCH  28  29
BRANCH   8   7
ATOM      7  C   UNL     1      -4.208   3.451  24.932  0.00  0.00    +0.119 C 
BRANCH   7   6
ATOM      4  C   UNL     1      -5.406   3.302  25.697  0.00  0.00    +0.272 C 
ATOM      5  O   UNL     1      -5.709   3.990  25.357  0.00  0.00    -0.271 OA
ATOM      6  N   UNL     1      -4.655   3.033  25.485  0.00  0.00    -0.203 NA
BRANCH   4   3
ATOM      3  C   UNL     1      -5.853   2.883  26.249  0.00  0.00    +0.229 C 
BRANCH   3   2
ATOM      1  C   UNL     1      -6.551   1.693  26.622  0.00  0.00    +0.175 C 
ATOM      2  O   UNL     1      -6.181   2.153  26.046  0.00  0.00    -0.342 OA
ENDBRANCH   3   2
ENDBRANCH   4   3
ENDBRANCH   7   6
ENDBRANCH   8   7
BRANCH  12  13
ATOM     13  C   UNL     1      -0.930   3.085  24.848  0.00  0.00    +0.091 C 
BRANCH  13  14
ATOM     14  C   UNL     1      -0.600   2.344  24.698  0.00  0.00    +0.227 A 
ATOM     15  N   UNL     1       0.119   2.202  24.319  0.00  0.00    -0.111 NA
ATOM     16  N   UNL     1       0.232   1.385  24.286  0.00  0.00    -0.107 NA
ATOM     17  C   UNL     1      -0.416   1.024  24.644  0.00  0.00    +0.250 A 
ATOM     18  O   UNL     1      -0.931   1.616  24.898  0.00  0.00    -0.420 OA
BRANCH  17  19
ATOM     19  C   UNL     1      -0.532   0.211  24.733  0.00  0.00    +0.055 A 
ATOM     20  C   UNL     1      -0.874  -0.084  25.423  0.00  0.00    +0.008 A 
ATOM     21  C   UNL     1      -0.990  -0.895  25.513  0.00  0.00    +0.037 A 
ATOM     22  C   UNL     1      -0.763  -1.413  24.912  0.00  0.00    +0.139 A 
ATOM     25  C   UNL     1      -0.420  -1.119  24.221  0.00  0.00    +0.037 A 
ATOM     26  C   UNL     1      -0.305  -0.306  24.132  0.00  0.00    +0.008 A 
BRANCH  22  23
ATOM     23  O   UNL     1      -0.878  -2.225  25.001  0.00  0.00    -0.471 OA
ATOM     24  C   UNL     1      -1.557  -2.581  24.697  0.00  0.00    +0.252 C 
ENDBRANCH  22  23
ENDBRANCH  17  19
ENDBRANCH  13  14
ENDBRANCH  12  13
TORSDOF 9
ENDMDL
MODEL 5
REMARK VINA RESULT:      -8.1      1.748      2.985
REMARK  Name = 
REMARK  9 active torsions:
REMARK  status: ('A' for Active; 'I' for Inactive)
REMARK    1  A    between atoms: O_2  and  C_3
REMARK    2  A    between atoms: C_3  and  C_4
REMARK    3  A    between atoms: N_6  and  C_7
REMARK    4  A    between atoms: C_7  and  C_8
REMARK    5  A    between atoms: C_12  and  C_13
REMARK    6  A    between atoms: C_13  and  C_14
REMARK    7  A    between atoms: C_17  and  C_19
REMARK    8  A    between atoms: C_22  and  O_23
REMARK    9  A    between atoms: C_28  and  C_29
REMARK                            x       y       z     vdW  Elec       q    Type
REMARK                         _______ _______ _______ _____ _____    ______ ____
ROOT
ATOM      8  C   UNL     1      -0.682   2.007  24.267  0.00  0.00    +0.043 C 
ATOM      9  C   UNL     1      -1.067   2.024  23.538  0.00  0.00    -0.033 C 
ATOM     10  C   UNL     1      -1.892   2.049  23.509  0.00  0.00    -0.048 C 
ATOM     11  C   UNL     1      -2.277   2.066  22.780  0.00  0.00    +0.026 C 
ATOM     12  C   UNL     1      -2.330   2.057  24.208  0.00  0.00    +0.027 C 
ATOM     27  C   UNL     1      -1.943   2.040  24.936  0.00  0.00    +0.005 C 
ATOM     28  C   UNL     1      -1.120   2.015  24.966  0.00  0.00    +0.006 C 
ENDROOT
BRANCH  28  29
ATOM     29  C   UNL     1      -0.733   1.999  25.695  0.00  0.00    +0.000 C 
ATOM     30  C   UNL     1      -0.572   1.277  26.061  0.00  0.00    +0.000 C 
ATOM     31  C   UNL     1      -0.507   2.704  26.058  0.00  0.00    +0.000 C 
ENDBRANCH  28  29
BRANCH   8   7
ATOM      7  C   UNL     1       0.143   1.983  24.297  0.00  0.00    +0.119 C 
BRANCH   7   6
ATOM      4  C   UNL     1       1.352   1.528  23.686  0.00  0.00    +0.272 C 
ATOM      5  O   UNL     1       1.738   2.210  23.941  0.00  0.00    -0.271 OA
ATOM      6  N   UNL     1       0.554   1.414  23.863  0.00  0.00    -0.203 NA
BRANCH   4   3
ATOM      3  C   UNL     1       1.763   0.959  23.252  0.00  0.00    +0.229 C 
BRANCH   3   2
ATOM      1  C   UNL     1       2.989   0.464  22.709  0.00  0.00    +0.175 C 
ATOM      2  O   UNL     1       2.581   1.022  23.160  0.00  0.00    -0.342 OA
ENDBRANCH   3   2
ENDBRANCH   4   3
ENDBRANCH   7   6
ENDBRANCH   8   7
BRANCH  12  13
ATOM     13  C   UNL     1      -3.153   2.082  24.178  0.00  0.00    +0.091 C 
BRANCH  13  14
ATOM     14  C   UNL     1      -3.594   1.415  24.383  0.00  0.00    +0.227 A 
ATOM     15  N   UNL     1      -4.341   1.418  24.735  0.00  0.00    -0.111 NA
ATOM     16  N   UNL     1      -4.575   0.634  24.842  0.00  0.00    -0.107 NA
ATOM     17  C   UNL     1      -3.974   0.148  24.555  0.00  0.00    +0.250 A 
ATOM     18  O   UNL     1      -3.368   0.630  24.271  0.00  0.00    -0.420 OA
BRANCH  17  19
ATOM     19  C   UNL     1      -3.977  -0.678  24.552  0.00  0.00    +0.055 A 
ATOM     20  C   UNL     1      -4.283  -1.086  23.903  0.00  0.00    +0.008 A 
ATOM     21  C   UNL     1      -4.287  -1.911  23.899  0.00  0.00    +0.037 A 
ATOM     22  C   UNL     1      -3.985  -2.328  24.544  0.00  0.00    +0.139 A 
ATOM     25  C   UNL     1      -3.679  -1.920  25.193  0.00  0.00    +0.037 A 
ATOM     26  C   UNL     1      -3.676  -1.094  25.196  0.00  0.00    +0.008 A 
BRANCH  22  23
ATOM     23  O   UNL     1      -3.989  -3.152  24.540  0.00  0.00    -0.471 OA
ATOM     24  C   UNL     1      -3.285  -3.568  24.430  0.00  0.00    +0.252 C 
ENDBRANCH  22  23
ENDBRANCH  17  19
ENDBRANCH  13  14
ENDBRANCH  12  13
TORSDOF 9
ENDMDL
MODEL 6
REMARK VINA RESULT:      -8.1      2.837      4.911
REMARK  Name = 
REMARK  9 active torsions:
REMARK  status: ('A' for Active; 'I' for Inactive)
REMARK    1  A    between atoms: O_2  and  C_3
REMARK    2  A    between atoms: C_3  and  C_4
REMARK    3  A    between atoms: N_6  and  C_7
REMARK    4  A    between atoms: C_7  and  C_8
REMARK    5  A    between atoms: C_12  and  C_13
REMARK    6  A    between atoms: C_13  and  C_14
REMARK    7  A    between atoms: C_17  and  C_19
REMARK    8  A    between atoms: C_22  and  O_23
REMARK    9  A    between atoms: C_28  and  C_29
REMARK                            x       y       z     vdW  Elec       q    Type
REMARK                         _______ _______ _______ _____ _____    ______ ____
ROOT
ATOM      8  C   UNL     1      -4.218   0.455  24.276  0.00  0.00    +0.043 C 
ATOM      9  C   UNL     1      -4.866   0.548  24.778  0.00  0.00    -0.033 C 
ATOM     10  C   UNL     1      -5.057   1.296  25.070  0.00  0.00    -0.048 C 
ATOM     11  C   UNL     1      -5.705   1.389  25.572  0.00  0.00    +0.026 C 
ATOM     12  C   UNL     1      -4.600   1.950  24.860  0.00  0.00    +0.027 C 
ATOM     27  C   UNL     1      -3.952   1.855  24.357  0.00  0.00    +0.005 C 
ATOM     28  C   UNL     1      -3.761   1.108  24.066  0.00  0.00    +0.006 C 
ENDROOT
BRANCH  28  29
ATOM     29  C   UNL     1      -3.113   1.014  23.563  0.00  0.00    +0.000 C 
ATOM     30  C   UNL     1      -3.191   1.161  22.756  0.00  0.00    +0.000 C 
ATOM     31  C   UNL     1      -2.387   0.771  23.870  0.00  0.00    +0.000 C 
ENDBRANCH  28  29
BRANCH   8   7
ATOM      7  C   UNL     1      -4.027  -0.294  23.984  0.00  0.00    +0.119 C 
BRANCH   7   6
ATOM      4  C   UNL     1      -4.082  -1.707  24.190  0.00  0.00    +0.272 C 
ATOM      5  O   UNL     1      -4.171  -1.822  23.378  0.00  0.00    -0.271 OA
ATOM      6  N   UNL     1      -4.010  -0.942  24.494  0.00  0.00    -0.203 NA
BRANCH   4   3
ATOM      3  C   UNL     1      -4.064  -2.355  24.700  0.00  0.00    +0.229 C 
BRANCH   3   2
ATOM      1  C   UNL     1      -3.162  -3.300  25.280  0.00  0.00    +0.175 C 
ATOM      2  O   UNL     1      -3.479  -2.932  24.613  0.00  0.00    -0.342 OA
ENDBRANCH   3   2
ENDBRANCH   4   3
ENDBRANCH   7   6
ENDBRANCH   8   7
BRANCH  12  13
ATOM     13  C   UNL     1      -4.791   2.697  25.151  0.00  0.00    +0.091 C 
BRANCH  13  14
ATOM     14  C   UNL     1      -4.200   3.183  25.462  0.00  0.00    +0.227 A 
ATOM     15  N   UNL     1      -4.173   3.481  26.231  0.00  0.00    -0.111 NA
ATOM     16  N   UNL     1      -3.490   3.938  26.302  0.00  0.00    -0.107 NA
ATOM     17  C   UNL     1      -3.096   3.922  25.578  0.00  0.00    +0.250 A 
ATOM     18  O   UNL     1      -3.535   3.456  25.059  0.00  0.00    -0.420 OA
BRANCH  17  19
ATOM     19  C   UNL     1      -2.386   4.306  25.403  0.00  0.00    +0.055 A 
ATOM     20  C   UNL     1      -1.678   3.882  25.401  0.00  0.00    +0.008 A 
ATOM     21  C   UNL     1      -0.969   4.265  25.226  0.00  0.00    +0.037 A 
ATOM     22  C   UNL     1      -0.967   5.072  25.053  0.00  0.00    +0.139 A 
ATOM     25  C   UNL     1      -1.675   5.496  25.055  0.00  0.00    +0.037 A 
ATOM     26  C   UNL     1      -2.385   5.112  25.230  0.00  0.00    +0.008 A 
BRANCH  22  23
ATOM     23  O   UNL     1      -0.258   5.454  24.879  0.00  0.00    -0.471 OA
ATOM     24  C   UNL     1       0.130   5.300  24.167  0.00  0.00    +0.252 C 
ENDBRANCH  22  23
ENDBRANCH  17  19
ENDBRANCH  13  14
ENDBRANCH  12  13
TORSDOF 9
ENDMDL
MODEL 7
REMARK VINA RESULT:      -8.0      1.462      6.285
REMARK  Name = 
REMARK  9 active torsions:
REMARK  status: ('A' for Active; 'I' for Inactive)
REMARK    1  A    between atoms: O_2  and  C_3
REMARK    2  A    between atoms: C_3  and  C_4
REMARK    3  A    between atoms: N_6  and  C_7
REMARK    4  A    between atoms: C_7  and  C_8
REMARK    5  A    between atoms: C_12  and  C_13
REMARK    6  A    between atoms: C_13  and  C_14
REMARK    7  A    between atoms: C_17  and  C_19
REMARK    8  A    between atoms: C_22  and  O_23
REMARK    9  A    between atoms: C_28  and  C_29
REMARK                            x       y       z     vdW  Elec       q    Type
REMARK                         _______ _______ _______ _____ _____    ______ ____
ROOT
ATOM      8  C   UNL     1      -1.560   1.724  24.818  0.00  0.00    +0.043 C 
ATOM      9  C   UNL     1      -1.930   1.011  24.631  0.00  0.00    -0.033 C 
ATOM     10  C   UNL     1      -1.479   0.362  24.392  0.00  0.00    -0.048 C 
ATOM     11  C   UNL     1      -1.849  -0.351  24.205  0.00  0.00    +0.026 C 
ATOM     12  C   UNL     1      -0.658   0.427  24.341  0.00  0.00    +0.027 C 
ATOM     27  C   UNL     1      -0.288   1.141  24.529  0.00  0.00    +0.005 C 
ATOM     28  C   UNL     1      -0.739   1.789  24.767  0.00  0.00    +0.006 C 
ENDROOT
BRANCH  28  29
ATOM     29  C   UNL     1      -0.370   2.502  24.955  0.00  0.00    +0.000 C 
ATOM     30  C   UNL     1      -0.090   2.634  25.719  0.00  0.00    +0.000 C 
ATOM     31  C   UNL     1      -0.280   3.084  24.377  0.00  0.00    +0.000 C 
ENDBRANCH  28  29
BRANCH   8   7
ATOM      7  C   UNL     1      -2.011   2.373  25.056  0.00  0.00    +0.119 C 
BRANCH   7   6
ATOM      4  C   UNL     1      -3.293   2.968  25.269  0.00  0.00    +0.272 C 
ATOM      5  O   UNL     1      -2.943   3.558  25.726  0.00  0.00    -0.271 OA
ATOM      6  N   UNL     1      -2.827   2.374  24.934  0.00  0.00    -0.203 NA
BRANCH   4   3
ATOM      3  C   UNL     1      -4.109   2.969  25.146  0.00  0.00    +0.229 C 
BRANCH   3   2
ATOM      1  C   UNL     1      -5.434   3.046  25.676  0.00  0.00    +0.175 C 
ATOM      2  O   UNL     1      -4.620   3.138  25.773  0.00  0.00    -0.342 OA
ENDBRANCH   3   2
ENDBRANCH   4   3
ENDBRANCH   7   6
ENDBRANCH   8   7
BRANCH  12  13
ATOM     13  C   UNL     1      -0.207  -0.221  24.103  0.00  0.00    +0.091 C 
BRANCH  13  14
ATOM     14  C   UNL     1       0.411  -0.120  23.567  0.00  0.00    +0.227 A 
ATOM     15  N   UNL     1       0.340  -0.090  22.745  0.00  0.00    -0.111 NA
ATOM     16  N   UNL     1       1.094   0.018  22.428  0.00  0.00    -0.107 NA
ATOM     17  C   UNL     1       1.630   0.055  23.053  0.00  0.00    +0.250 A 
ATOM     18  O   UNL     1       1.208  -0.030  23.756  0.00  0.00    -0.420 OA
BRANCH  17  19
ATOM     19  C   UNL     1       2.447   0.158  22.986  0.00  0.00    +0.055 A 
ATOM     20  C   UNL     1       2.754   0.901  22.797  0.00  0.00    +0.008 A 
ATOM     21  C   UNL     1       3.569   1.005  22.731  0.00  0.00    +0.037 A 
ATOM     22  C   UNL     1       4.078   0.367  22.853  0.00  0.00    +0.139 A 
ATOM     25  C   UNL     1       3.771  -0.375  23.042  0.00  0.00    +0.037 A 
ATOM     26  C   UNL     1       2.955  -0.479  23.109  0.00  0.00    +0.008 A 
BRANCH  22  23
ATOM     23  O   UNL     1       4.893   0.472  22.787  0.00  0.00    -0.471 OA
ATOM     24  C   UNL     1       5.393   0.214  23.390  0.00  0.00    +0.252 C 
ENDBRANCH  22  23
ENDBRANCH  17  19
ENDBRANCH  13  14
ENDBRANCH  12  13
TORSDOF 9
ENDMDL
MODEL 8
REMARK VINA RESULT:      -7.9      2.155      5.077
REMARK  Name = 
REMARK  9 active torsions:
REMARK  status: ('A' for Active; 'I' for Inactive)
REMARK    1  A    between atoms: O_2  and  C_3
REMARK    2  A    between atoms: C_3  and  C_4
REMARK    3  A    between atoms: N_6  and  C_7
REMARK    4  A    between atoms: C_7  and  C_8
REMARK    5  A    between atoms: C_12  and  C_13
REMARK    6  A    between atoms: C_13  and  C_14
REMARK    7  A    between atoms: C_17  and  C_19
REMARK    8  A    between atoms: C_22  and  O_23
REMARK    9  A    between atoms: C_28  and  C_29
REMARK                            x       y       z     vdW  Elec       q    Type
REMARK                         _______ _______ _______ _____ _____    ______ ____
ROOT
ATOM      8  C   UNL     1      -2.283   2.559  24.342  0.00  0.00    +0.043 C 
ATOM      9  C   UNL     1      -1.833   2.577  25.033  0.00  0.00    -0.033 C 
ATOM     10  C   UNL     1      -1.209   2.046  25.132  0.00  0.00    -0.048 C 
ATOM     11  C   UNL     1      -0.759   2.064  25.823  0.00  0.00    +0.026 C 
ATOM     12  C   UNL     1      -1.036   1.497  24.541  0.00  0.00    +0.027 C 
ATOM     27  C   UNL     1      -1.487   1.480  23.850  0.00  0.00    +0.005 C 
ATOM     28  C   UNL     1      -2.110   2.010  23.750  0.00  0.00    +0.006 C 
ENDROOT
BRANCH  28  29
ATOM     29  C   UNL     1      -2.561   1.992  23.060  0.00  0.00    +0.000 C 
ATOM     30  C   UNL     1      -2.327   2.431  22.402  0.00  0.00    +0.000 C 
ATOM     31  C   UNL     1      -3.248   1.536  23.027  0.00  0.00    +0.000 C 
ENDBRANCH  28  29
BRANCH   8   7
ATOM      7  C   UNL     1      -2.908   3.090  24.242  0.00  0.00    +0.119 C 
BRANCH   7   6
ATOM      4  C   UNL     1      -3.984   3.829  24.824  0.00  0.00    +0.272 C 
ATOM      5  O   UNL     1      -3.939   4.378  24.210  0.00  0.00    -0.271 OA
ATOM      6  N   UNL     1      -3.468   3.184  24.840  0.00  0.00    -0.203 NA
BRANCH   4   3
ATOM      3  C   UNL     1      -4.544   3.923  25.422  0.00  0.00    +0.229 C 
BRANCH   3   2
ATOM      1  C   UNL     1      -5.831   3.461  25.835  0.00  0.00    +0.175 C 
ATOM      2  O   UNL     1      -5.344   3.796  25.261  0.00  0.00    -0.342 OA
ENDBRANCH   3   2
ENDBRANCH   4   3
ENDBRANCH   7   6
ENDBRANCH   8   7
BRANCH  12  13
ATOM     13  C   UNL     1      -0.413   0.967  24.641  0.00  0.00    +0.091 C 
BRANCH  13  14
ATOM     14  C   UNL     1      -0.557   0.154  24.639  0.00  0.00    +0.227 A 
ATOM     15  N   UNL     1       0.015  -0.439  24.597  0.00  0.00    -0.111 NA
ATOM     16  N   UNL     1      -0.373  -1.167  24.610  0.00  0.00    -0.107 NA
ATOM     17  C   UNL     1      -1.183  -1.024  24.660  0.00  0.00    +0.250 A 
ATOM     18  O   UNL     1      -1.297  -0.207  24.678  0.00  0.00    -0.420 OA
BRANCH  17  19
ATOM     19  C   UNL     1      -1.777  -1.597  24.688  0.00  0.00    +0.055 A 
ATOM     20  C   UNL     1      -2.435  -1.485  25.174  0.00  0.00    +0.008 A 
ATOM     21  C   UNL     1      -3.028  -2.057  25.202  0.00  0.00    +0.037 A 
ATOM     22  C   UNL     1      -2.964  -2.741  24.745  0.00  0.00    +0.139 A 
ATOM     25  C   UNL     1      -2.306  -2.853  24.259  0.00  0.00    +0.037 A 
ATOM     26  C   UNL     1      -1.712  -2.280  24.232  0.00  0.00    +0.008 A 
BRANCH  22  23
ATOM     23  O   UNL     1      -3.558  -3.313  24.773  0.00  0.00    -0.471 OA
ATOM     24  C   UNL     1      -4.153  -3.319  24.202  0.00  0.00    +0.252 C 
ENDBRANCH  22  23
ENDBRANCH  17  19
ENDBRANCH  13  14
ENDBRANCH  12  13
TORSDOF 9
ENDMDL
