MODEL 1
REMARK VINA RESULT:      -8.3      0.000      0.000
REMARK  Name = 
REMARK  11 active torsions:
REMARK  status: ('A' for Active; 'I' for Inactive)
REMARK    1  A    between atoms: C_2  and  C_4
REMARK    2  A    between atoms: C_6  and  C_7
REMARK    3  A    between atoms: C_7  and  C_8
REMARK    4  A    between atoms: N_10  and  C_11
REMARK    5  A    between atoms: C_11  and  C_12
REMARK    6  A    between atoms: C_15  and  C_18
REMARK    7  A    between atoms: C_23  and  C_24
REMARK    8  A    between atoms: C_24  and  N_25
REMARK    9  A    between atoms: N_25  and  S_26
REMARK   10  A    between atoms: S_26  and  C_29
REMARK   11  A    between atoms: C_32  and  C_35
REMARK                            x       y       z     vdW  Elec       q    Type
REMARK                         _______ _______ _______ _____ _____    ______ ____
ROOT
ATOM      4  C   UNL     1      -0.552   1.388  24.300  0.00  0.00    +0.006 C 
ATOM      5  C   UNL     1       0.049   0.871  24.072  0.00  0.00    +0.005 C 
ATOM      6  C   UNL     1      -0.127   0.081  23.911  0.00  0.00    +0.027 C 
ATOM     20  C   UNL     1      -0.903  -0.191  23.979  0.00  0.00    -0.048 C 
ATOM     21  C   UNL     1      -1.078  -0.981  23.818  0.00  0.00    +0.026 C 
ATOM     22  C   UNL     1      -1.503   0.326  24.207  0.00  0.00    -0.033 C 
ATOM     23  C   UNL     1      -1.327   1.116  24.367  0.00  0.00    +0.041 C 
ENDROOT
BRANCH   4   2
ATOM      1  C   UNL     1      -0.158   2.405  25.224  0.00  0.00    +0.000 C 
ATOM      2  C   UNL     1      -0.376   2.178  24.461  0.00  0.00    +0.000 C 
ATOM      3  C   UNL     1      -0.417   2.741  23.859  0.00  0.00    +0.000 C 
ENDBRANCH   4   2
BRANCH   6   7
ATOM      7  C   UNL     1       0.474  -0.437  23.683  0.00  0.00    +0.091 C 
BRANCH   7   8
ATOM      8  C   UNL     1       1.012  -0.213  23.098  0.00  0.00    +0.242 C 
ATOM      9  O   UNL     1       0.749  -0.068  22.330  0.00  0.00    -0.273 OA
ATOM     10  N   UNL     1       1.812  -0.135  23.283  0.00  0.00    -0.201 NA
BRANCH  10  11
ATOM     11  C   UNL     1       2.349   0.089  22.698  0.00  0.00    +0.141 C 
BRANCH  11  12
ATOM     12  C   UNL     1       3.156   0.119  22.870  0.00  0.00    -0.001 A 
ATOM     13  C   UNL     1       3.540  -0.548  23.167  0.00  0.00    -0.002 A 
ATOM     14  C   UNL     1       4.346  -0.519  23.339  0.00  0.00    +0.010 A 
ATOM     15  C   UNL     1       4.769   0.178  23.212  0.00  0.00    +0.068 A 
ATOM     16  C   UNL     1       4.386   0.846  22.915  0.00  0.00    +0.010 A 
ATOM     17  C   UNL     1       3.579   0.816  22.743  0.00  0.00    -0.002 A 
BRANCH  15  18
ATOM     18  C   UNL     1       5.576   0.208  23.383  0.00  0.00    +0.100 C 
ATOM     19  N   UNL     1       6.382   0.235  23.555  0.00  0.00    -0.191 NA
ENDBRANCH  15  18
ENDBRANCH  11  12
ENDBRANCH  10  11
ENDBRANCH   7   8
ENDBRANCH   6   7
BRANCH  23  24
ATOM     24  C   UNL     1      -1.928   1.634  24.595  0.00  0.00    +0.120 C 
BRANCH  24  25
ATOM     25  N   UNL     1      -2.716   1.396  24.552  0.00  0.00    -0.077 NA
BRANCH  25  26
ATOM     26  S   UNL     1      -3.317   1.920  24.763  0.00  0.00    +0.077 S 
ATOM     27  O   UNL     1      -3.409   2.134  23.972  0.00  0.00    -0.152 OA
ATOM     28  O   UNL     1      -3.226   1.705  25.555  0.00  0.00    -0.152 OA
BRANCH  26  29
ATOM     29  C   UNL     1      -3.919   2.444  24.975  0.00  0.00    +0.124 A 
ATOM     30  C   UNL     1      -3.736   3.225  25.167  0.00  0.00    +0.021 A 
ATOM     31  C   UNL     1      -4.337   3.749  25.378  0.00  0.00    +0.012 A 
ATOM     32  C   UNL     1      -5.121   3.492  25.398  0.00  0.00    +0.069 A 
ATOM     33  C   UNL     1      -5.303   2.710  25.206  0.00  0.00    +0.012 A 
ATOM     34  C   UNL     1      -4.702   2.186  24.994  0.00  0.00    +0.021 A 
BRANCH  32  35
ATOM     35  C   UNL     1      -5.722   4.015  25.609  0.00  0.00    +0.100 C 
ATOM     36  N   UNL     1      -6.324   4.539  25.820  0.00  0.00    -0.191 NA
ENDBRANCH  32  35
ENDBRANCH  26  29
ENDBRANCH  25  26
ENDBRANCH  24  25
ENDBRANCH  23  24
TORSDOF 11
ENDMDL
MODEL 2
REMARK VINA RESULT:      -7.8      1.547      7.118
REMARK  Name = 
REMARK  11 active torsions:
REMARK  status: ('A' for Active; 'I' for Inactive)
REMARK    1  A    between atoms: C_2  and  C_4
REMARK    2  A    between atoms: C_6  and  C_7
REMARK    3  A    between atoms: C_7  and  C_8
REMARK    4  A    between atoms: N_10  and  C_11
REMARK    5  A    between atoms: C_11  and  C_12
REMARK    6  A    between atoms: C_15  and  C_18
REMARK    7  A    between atoms: C_23  and  C_24
REMARK    8  A    between atoms: C_24  and  N_25
REMARK    9  A    between atoms: N_25  and  S_26
REMARK   10  A    between atoms: S_26  and  C_29
REMARK   11  A    between atoms: C_32  and  C_35
REMARK                            x       y       z     vdW  Elec       q    Type
REMARK                         _______ _______ _______ _____ _____    ______ ____
ROOT
ATOM      4  C   UNL     1      -1.627   0.444  24.887  0.00  0.00    +0.006 C 
ATOM      5  C   UNL     1      -2.374   0.227  25.161  0.00  0.00    +0.005 C 
ATOM      6  C   UNL     1      -2.656  -0.536  25.028  0.00  0.00    +0.027 C 
ATOM     20  C   UNL     1      -2.192  -1.083  24.620  0.00  0.00    -0.048 C 
ATOM     21  C   UNL     1      -2.476  -1.846  24.487  0.00  0.00    +0.026 C 
ATOM     22  C   UNL     1      -1.445  -0.866  24.346  0.00  0.00    -0.033 C 
ATOM     23  C   UNL     1      -1.163  -0.103  24.479  0.00  0.00    +0.041 C 
ENDROOT
BRANCH   4   2
ATOM      1  C   UNL     1      -0.920   1.375  25.708  0.00  0.00    +0.000 C 
ATOM      2  C   UNL     1      -1.344   1.208  25.021  0.00  0.00    +0.000 C 
ATOM      3  C   UNL     1      -1.485   1.803  24.467  0.00  0.00    +0.000 C 
ENDBRANCH   4   2
BRANCH   6   7
ATOM      7  C   UNL     1      -3.404  -0.753  25.302  0.00  0.00    +0.091 C 
BRANCH   7   8
ATOM      8  C   UNL     1      -4.080  -0.406  24.977  0.00  0.00    +0.242 C 
ATOM      9  O   UNL     1      -4.439  -0.743  24.316  0.00  0.00    -0.273 OA
ATOM     10  N   UNL     1      -4.394   0.278  25.315  0.00  0.00    -0.201 NA
BRANCH  10  11
ATOM     11  C   UNL     1      -5.068   0.624  24.990  0.00  0.00    +0.141 C 
BRANCH  11  12
ATOM     12  C   UNL     1      -5.237   1.418  25.140  0.00  0.00    -0.001 A 
ATOM     13  C   UNL     1      -5.653   1.630  25.821  0.00  0.00    -0.002 A 
ATOM     14  C   UNL     1      -5.822   2.423  25.972  0.00  0.00    +0.010 A 
ATOM     15  C   UNL     1      -5.575   3.005  25.441  0.00  0.00    +0.068 A 
ATOM     16  C   UNL     1      -5.159   2.793  24.760  0.00  0.00    +0.010 A 
ATOM     17  C   UNL     1      -4.991   1.999  24.610  0.00  0.00    -0.002 A 
BRANCH  15  18
ATOM     18  C   UNL     1      -5.744   3.798  25.591  0.00  0.00    +0.100 C 
ATOM     19  N   UNL     1      -5.912   4.592  25.743  0.00  0.00    -0.191 NA
ENDBRANCH  15  18
ENDBRANCH  11  12
ENDBRANCH  10  11
ENDBRANCH   7   8
ENDBRANCH   6   7
BRANCH  23  24
ATOM     24  C   UNL     1      -0.415   0.115  24.205  0.00  0.00    +0.120 C 
BRANCH  24  25
ATOM     25  N   UNL     1      -0.052  -0.324  23.608  0.00  0.00    -0.077 NA
BRANCH  25  26
ATOM     26  S   UNL     1       0.711  -0.131  23.361  0.00  0.00    +0.077 S 
ATOM     27  O   UNL     1       0.398   0.328  22.752  0.00  0.00    -0.152 OA
ATOM     28  O   UNL     1       1.025  -0.590  23.971  0.00  0.00    -0.152 OA
BRANCH  26  29
ATOM     29  C   UNL     1       1.475   0.062  23.114  0.00  0.00    +0.124 A 
ATOM     30  C   UNL     1       1.876   0.690  23.468  0.00  0.00    +0.021 A 
ATOM     31  C   UNL     1       2.639   0.883  23.221  0.00  0.00    +0.012 A 
ATOM     32  C   UNL     1       3.001   0.448  22.620  0.00  0.00    +0.069 A 
ATOM     33  C   UNL     1       2.599  -0.179  22.266  0.00  0.00    +0.012 A 
ATOM     34  C   UNL     1       1.835  -0.372  22.513  0.00  0.00    +0.021 A 
BRANCH  32  35
ATOM     35  C   UNL     1       3.763   0.641  22.373  0.00  0.00    +0.100 C 
ATOM     36  N   UNL     1       4.527   0.834  22.126  0.00  0.00    -0.191 NA
ENDBRANCH  32  35
ENDBRANCH  26  29
ENDBRANCH  25  26
ENDBRANCH  24  25
ENDBRANCH  23  24
TORSDOF 11
ENDMDL
MODEL 3
REMARK VINA RESULT:      -7.3      2.762      6.179
REMARK  Name = 
REMARK  11 active torsions:
REMARK  status: ('A' for Active; 'I' for Inactive)
REMARK    1  A    between atoms: C_2  and  C_4
REMARK    2  A    between atoms: C_6  and  C_7
REMARK    3  A    between atoms: C_7  and  C_8
REMARK    4  A    between atoms: N_10  and  C_11
REMARK    5  A    between atoms: C_11  and  C_12
REMARK    6  A    between atoms: C_15  and  C_18
REMARK    7  A    between atoms: C_23  and  C_24
REMARK    8  A    between atoms: C_24  and  N_25
REMARK    9  A    between atoms: N_25  and  S_26
REMARK   10  A    between atoms: S_26  and  C_29
REMARK   11  A    between atoms: C_32  and  C_35
REMARK                            x       y       z     vdW  Elec       q    Type
REMARK                         _______ _______ _______ _____ _____    ______ ____
ROOT
ATOM      4  C   UNL     1      -0.471   1.603  24.357  0.00  0.00    +0.006 C 
ATOM      5  C   UNL     1      -0.364   2.404  24.523  0.00  0.00    +0.005 C 
ATOM      6  C   UNL     1      -0.267   2.653  25.303  0.00  0.00    +0.027 C 
ATOM     20  C   UNL     1      -0.276   2.102  25.917  0.00  0.00    -0.048 C 
ATOM     21  C   UNL     1      -0.178   2.352  26.697  0.00  0.00    +0.026 C 
ATOM     22  C   UNL     1      -0.382   1.302  25.751  0.00  0.00    -0.033 C 
ATOM     23  C   UNL     1      -0.480   1.052  24.971  0.00  0.00    +0.041 C 
ENDROOT
BRANCH   4   2
ATOM      1  C   UNL     1      -1.297   1.449  23.202  0.00  0.00    +0.000 C 
ATOM      2  C   UNL     1      -0.569   1.353  23.576  0.00  0.00    +0.000 C 
ATOM      3  C   UNL     1       0.062   1.008  23.172  0.00  0.00    +0.000 C 
ENDBRANCH   4   2
BRANCH   6   7
ATOM      7  C   UNL     1      -0.160   3.455  25.470  0.00  0.00    +0.091 C 
BRANCH   7   8
ATOM      8  C   UNL     1      -0.743   4.001  25.262  0.00  0.00    +0.242 C 
ATOM      9  O   UNL     1      -0.562   4.627  24.756  0.00  0.00    -0.273 OA
ATOM     10  N   UNL     1      -1.508   3.919  25.560  0.00  0.00    -0.201 NA
BRANCH  10  11
ATOM     11  C   UNL     1      -2.091   4.465  25.352  0.00  0.00    +0.141 C 
BRANCH  11  12
ATOM     12  C   UNL     1      -2.888   4.260  25.414  0.00  0.00    -0.001 A 
ATOM     13  C   UNL     1      -3.247   4.217  26.155  0.00  0.00    -0.002 A 
ATOM     14  C   UNL     1      -4.044   4.012  26.218  0.00  0.00    +0.010 A 
ATOM     15  C   UNL     1      -4.482   3.850  25.537  0.00  0.00    +0.068 A 
ATOM     16  C   UNL     1      -4.123   3.893  24.795  0.00  0.00    +0.010 A 
ATOM     17  C   UNL     1      -3.325   4.098  24.733  0.00  0.00    -0.002 A 
BRANCH  15  18
ATOM     18  C   UNL     1      -5.278   3.645  25.599  0.00  0.00    +0.100 C 
ATOM     19  N   UNL     1      -6.076   3.441  25.662  0.00  0.00    -0.191 NA
ENDBRANCH  15  18
ENDBRANCH  11  12
ENDBRANCH  10  11
ENDBRANCH   7   8
ENDBRANCH   6   7
BRANCH  23  24
ATOM     24  C   UNL     1      -0.587   0.251  24.804  0.00  0.00    +0.120 C 
BRANCH  24  25
ATOM     25  N   UNL     1      -0.857  -0.260  25.393  0.00  0.00    -0.077 NA
BRANCH  25  26
ATOM     26  S   UNL     1      -1.393  -0.858  25.205  0.00  0.00    +0.077 S 
ATOM     27  O   UNL     1      -0.795  -1.272  24.815  0.00  0.00    -0.152 OA
ATOM     28  O   UNL     1      -1.992  -0.445  25.594  0.00  0.00    -0.152 OA
BRANCH  26  29
ATOM     29  C   UNL     1      -1.929  -1.457  25.017  0.00  0.00    +0.124 A 
ATOM     30  C   UNL     1      -2.721  -1.386  25.238  0.00  0.00    +0.021 A 
ATOM     31  C   UNL     1      -3.256  -1.984  25.051  0.00  0.00    +0.012 A 
ATOM     32  C   UNL     1      -3.002  -2.654  24.641  0.00  0.00    +0.069 A 
ATOM     33  C   UNL     1      -2.210  -2.725  24.420  0.00  0.00    +0.012 A 
ATOM     34  C   UNL     1      -1.673  -2.126  24.608  0.00  0.00    +0.021 A 
BRANCH  32  35
ATOM     35  C   UNL     1      -3.537  -3.252  24.454  0.00  0.00    +0.100 C 
ATOM     36  N   UNL     1      -4.073  -3.851  24.266  0.00  0.00    -0.191 NA
ENDBRANCH  32  35
ENDBRANCH  26  29
ENDBRANCH  25  26
ENDBRANCH  24  25
ENDBRANCH  23  24
TORSDOF 11
ENDMDL
MODEL 4
REMARK VINA RESULT:      -7.0      2.048      6.701
REMARK  Name = 
REMARK  11 active torsions:
REMARK  status: ('A' for Active; 'I' for Inactive)
REMARK    1  A    between atoms: C_2  and  C_4
REMARK    2  A    between atoms: C_6  and  C_7
REMARK    3  A    between atoms: C_7  and  C_8
REMARK    4  A    between atoms: N_10  and  C_11
REMARK    5  A    between atoms: C_11  and  C_12
REMARK    6  A    between atoms: C_15  and  C_18
REMARK    7  A    between atoms: C_23  and  C_24
REMARK    8  A    between atoms: C_24  and  N_25
REMARK    9  A    between atoms: N_25  and  S_26
REMARK   10  A    between atoms: S_26  and  C_29
REMARK   11  A    between atoms: C_32  and  C_35
REMARK                            x       y       z     vdW  Elec       q    Type
REMARK                         _______ _______ _______ _____ _____    ______ ____
ROOT
ATOM      4  C   UNL     1      -0.981   1.598  24.753  0.00  0.00    +0.006 C 
ATOM      5  C   UNL     1      -1.782   1.789  24.804  0.00  0.00    +0.005 C 
ATOM      6  C   UNL     1      -2.220   1.911  24.116  0.00  0.00    +0.027 C 
ATOM     20  C   UNL     1      -1.858   1.843  23.378  0.00  0.00    -0.048 C 
ATOM     21  C   UNL     1      -2.297   1.965  22.690  0.00  0.00    +0.026 C 
ATOM     22  C   UNL     1      -1.057   1.652  23.328  0.00  0.00    -0.033 C 
ATOM     23  C   UNL     1      -0.619   1.530  24.015  0.00  0.00    +0.041 C 
ENDROOT
BRANCH   4   2
ATOM      1  C   UNL     1      -0.128   2.102  25.783  0.00  0.00    +0.000 C 
ATOM      2  C   UNL     1      -0.542   1.476  25.442  0.00  0.00    +0.000 C 
ATOM      3  C   UNL     1      -0.518   0.727  25.788  0.00  0.00    +0.000 C 
ENDBRANCH   4   2
BRANCH   6   7
ATOM      7  C   UNL     1      -3.022   2.102  24.166  0.00  0.00    +0.091 C 
BRANCH   7   8
ATOM      8  C   UNL     1      -3.542   1.598  24.563  0.00  0.00    +0.242 C 
ATOM      9  O   UNL     1      -3.936   1.860  25.238  0.00  0.00    -0.273 OA
ATOM     10  N   UNL     1      -3.667   0.832  24.282  0.00  0.00    -0.201 NA
BRANCH  10  11
ATOM     11  C   UNL     1      -4.186   0.329  24.679  0.00  0.00    +0.141 C 
BRANCH  11  12
ATOM     12  C   UNL     1      -4.086  -0.489  24.629  0.00  0.00    -0.001 A 
ATOM     13  C   UNL     1      -3.764  -0.905  25.266  0.00  0.00    -0.002 A 
ATOM     14  C   UNL     1      -3.664  -1.722  25.217  0.00  0.00    +0.010 A 
ATOM     15  C   UNL     1      -3.885  -2.124  24.530  0.00  0.00    +0.068 A 
ATOM     16  C   UNL     1      -4.206  -1.709  23.894  0.00  0.00    +0.010 A 
ATOM     17  C   UNL     1      -4.307  -0.891  23.944  0.00  0.00    -0.002 A 
BRANCH  15  18
ATOM     18  C   UNL     1      -3.784  -2.941  24.482  0.00  0.00    +0.100 C 
ATOM     19  N   UNL     1      -3.682  -3.759  24.433  0.00  0.00    -0.191 NA
ENDBRANCH  15  18
ENDBRANCH  11  12
ENDBRANCH  10  11
ENDBRANCH   7   8
ENDBRANCH   6   7
BRANCH  23  24
ATOM     24  C   UNL     1       0.183   1.339  23.966  0.00  0.00    +0.120 C 
BRANCH  24  25
ATOM     25  N   UNL     1       0.488   1.018  23.269  0.00  0.00    -0.077 NA
BRANCH  25  26
ATOM     26  S   UNL     1       1.294   0.861  23.207  0.00  0.00    +0.077 S 
ATOM     27  O   UNL     1       1.463   1.644  23.402  0.00  0.00    -0.152 OA
ATOM     28  O   UNL     1       1.127   0.077  23.012  0.00  0.00    -0.152 OA
BRANCH  26  29
ATOM     29  C   UNL     1       2.102   0.703  23.144  0.00  0.00    +0.124 A 
ATOM     30  C   UNL     1       2.641   1.325  23.080  0.00  0.00    +0.021 A 
ATOM     31  C   UNL     1       3.447   1.167  23.017  0.00  0.00    +0.012 A 
ATOM     32  C   UNL     1       3.717   0.387  23.019  0.00  0.00    +0.069 A 
ATOM     33  C   UNL     1       3.179  -0.235  23.084  0.00  0.00    +0.012 A 
ATOM     34  C   UNL     1       2.371  -0.077  23.146  0.00  0.00    +0.021 A 
BRANCH  32  35
ATOM     35  C   UNL     1       4.524   0.229  22.957  0.00  0.00    +0.100 C 
ATOM     36  N   UNL     1       5.332   0.070  22.894  0.00  0.00    -0.191 NA
ENDBRANCH  32  35
ENDBRANCH  26  29
ENDBRANCH  25  26
ENDBRANCH  24  25
ENDBRANCH  23  24
TORSDOF 11
ENDMDL
