REMARK  Name = 
REMARK  5 active torsions:
REMARK  status: ('A' for Active; 'I' for Inactive)
REMARK    1  A    between atoms: O_2  and  C_3
REMARK    2  A    between atoms: C_3  and  C_4
REMARK    3  A    between atoms: N_6  and  C_7
REMARK    4  A    between atoms: C_13  and  C_14
REMARK    5  A    between atoms: C_17  and  C_20
REMARK                            x       y       z     vdW  Elec       q    Type
REMARK                         _______ _______ _______ _____ _____    ______ ____
ROOT
ATOM      7  C   UNL     1       5.708  -1.352   0.000  0.00  0.00    +0.132 C 
ATOM      8  C   UNL     1       5.794  -0.532   0.000  0.00  0.00    +0.202 C 
ATOM      9  O   UNL     1       5.181   0.020   0.000  0.00  0.00    -0.219 OA
ATOM     10  C   UNL     1       6.601  -0.360   0.000  0.00  0.00    +0.184 C 
ATOM     11  O   UNL     1       6.936   0.394   0.000  0.00  0.00    -0.220 OA
ATOM     12  C   UNL     1       7.013  -1.075   0.000  0.00  0.00    +0.042 C 
ATOM     13  C   UNL     1       6.461  -1.688   0.000  0.00  0.00    +0.049 C 
ENDROOT
BRANCH  13  14
ATOM     14  C   UNL     1       6.633  -2.495   0.000  0.00  0.00    -0.002 A 
ATOM     15  C   UNL     1       7.418  -2.749   0.000  0.00  0.00    +0.095 A 
ATOM     16  N   UNL     1       7.589  -3.557   0.000  0.00  0.00    -0.240 NA
ATOM     17  C   UNL     1       6.976  -4.109   0.000  0.00  0.00    +0.153 A 
ATOM     18  C   UNL     1       6.191  -3.854   0.000  0.00  0.00    +0.023 A 
ATOM     19  C   UNL     1       6.020  -3.047   0.000  0.00  0.00    -0.001 A 
BRANCH  17  20
ATOM     20  C   UNL     1       7.147  -4.915   0.000  0.00  0.00    +0.435 C 
ATOM     21  F   UNL     1       7.319  -5.723   0.000  0.00  0.00    -0.164 F 
ATOM     22  F   UNL     1       6.340  -5.087   0.000  0.00  0.00    -0.164 F 
ATOM     23  F   UNL     1       7.954  -4.744   0.000  0.00  0.00    -0.164 F 
ENDBRANCH  17  20
ENDBRANCH  13  14
BRANCH   7   6
ATOM      4  C   UNL     1       4.279  -1.352   0.000  0.00  0.00    +0.272 C 
ATOM      5  O   UNL     1       4.279  -0.527   0.000  0.00  0.00    -0.271 OA
ATOM      6  N   UNL     1       4.993  -1.765   0.000  0.00  0.00    -0.202 NA
BRANCH   4   3
ATOM      3  C   UNL     1       3.564  -1.765   0.000  0.00  0.00    +0.229 C 
BRANCH   3   2
ATOM      1  C   UNL     1       2.135  -1.765   0.000  0.00  0.00    +0.175 C 
ATOM      2  O   UNL     1       2.850  -1.352   0.000  0.00  0.00    -0.342 OA
ENDBRANCH   3   2
ENDBRANCH   4   3
ENDBRANCH   7   6
TORSDOF 5
