MODEL 1
REMARK VINA RESULT:     -11.3      0.000      0.000
REMARK  Name = 
REMARK  5 active torsions:
REMARK  status: ('A' for Active; 'I' for Inactive)
REMARK    1  A    between atoms: C_2  and  C_26
REMARK    2  A    between atoms: N_3  and  C_4
REMARK    3  A    between atoms: C_4  and  C_5
REMARK    4  A    between atoms: C_12  and  C_13
REMARK    5  A    between atoms: C_13  and  N_14
REMARK                            x       y       z     vdW  Elec       q    Type
REMARK                         _______ _______ _______ _____ _____    ______ ____
ROOT
ATOM      5  C   UNL     1      -4.543   3.163  25.548  0.00  0.00    +0.079 C 
ATOM      6  C   UNL     1      -5.222   2.852  25.332  0.00  0.00    +0.018 C 
ATOM      7  C   UNL     1      -5.338   2.084  25.102  0.00  0.00    +0.005 C 
ATOM      8  C   UNL     1      -6.195   1.924  24.893  0.00  0.00    +0.017 C 
ATOM      9  C   UNL     1      -5.688   2.286  25.089  0.00  0.00    +0.072 C 
ATOM     10  N   UNL     1      -4.668   2.382  25.312  0.00  0.00    -0.272 NA
ATOM     11  C   UNL     1      -4.103   1.671  25.230  0.00  0.00    +0.073 C 
ATOM     12  C   UNL     1      -4.788   1.404  25.025  0.00  0.00    +0.032 C 
ENDROOT
BRANCH   5   4
ATOM      4  C   UNL     1      -4.068   3.785  25.808  0.00  0.00    +0.131 C 
BRANCH   4   3
ATOM      1  O   UNL     1      -2.921   4.668  26.600  0.00  0.00    -0.268 OA
ATOM      2  C   UNL     1      -2.761   4.362  25.851  0.00  0.00    +0.265 C 
ATOM      3  N   UNL     1      -3.335   3.920  25.454  0.00  0.00    -0.200 NA
BRANCH   2  26
ATOM     26  C   UNL     1      -2.028   4.497  25.498  0.00  0.00    +0.055 A 
ATOM     27  C   UNL     1      -1.845   5.244  25.201  0.00  0.00    +0.005 A 
ATOM     28  C   UNL     1      -1.112   5.379  24.847  0.00  0.00    +0.000 A 
ATOM     29  C   UNL     1      -0.562   4.767  24.791  0.00  0.00    +0.000 A 
ATOM     30  C   UNL     1      -0.745   4.019  25.089  0.00  0.00    +0.000 A 
ATOM     31  C   UNL     1      -1.478   3.884  25.442  0.00  0.00    +0.005 A 
ENDBRANCH   2  26
ENDBRANCH   4   3
ENDBRANCH   5   4
BRANCH  12  13
ATOM     13  C   UNL     1      -4.974   0.637  24.782  0.00  0.00    +0.074 C 
BRANCH  13  14
ATOM     14  N   UNL     1      -4.384   0.061  24.752  0.00  0.00    -0.270 NA
ATOM     15  C   UNL     1      -4.208  -0.384  25.423  0.00  0.00    +0.094 C 
ATOM     16  C   UNL     1      -3.617  -0.961  25.393  0.00  0.00    +0.111 C 
ATOM     17  N   UNL     1      -3.205  -1.091  24.690  0.00  0.00    -0.275 N 
ATOM     18  C   UNL     1      -3.381  -0.645  24.019  0.00  0.00    +0.111 C 
ATOM     19  C   UNL     1      -3.971  -0.069  24.050  0.00  0.00    +0.094 C 
ATOM     20  C   UNL     1      -2.615  -1.667  24.659  0.00  0.00    +0.220 A 
ATOM     21  N   UNL     1      -2.438  -2.112  25.331  0.00  0.00    -0.212 NA
ATOM     22  C   UNL     1      -1.848  -2.688  25.300  0.00  0.00    +0.103 A 
ATOM     23  C   UNL     1      -1.435  -2.819  24.597  0.00  0.00    +0.041 A 
ATOM     24  C   UNL     1      -1.612  -2.373  23.927  0.00  0.00    +0.103 A 
ATOM     25  N   UNL     1      -2.202  -1.797  23.957  0.00  0.00    -0.212 NA
ENDBRANCH  13  14
ENDBRANCH  12  13
TORSDOF 5
ENDMDL
MODEL 2
REMARK VINA RESULT:     -10.7      3.677      5.858
REMARK  Name = 
REMARK  5 active torsions:
REMARK  status: ('A' for Active; 'I' for Inactive)
REMARK    1  A    between atoms: C_2  and  C_26
REMARK    2  A    between atoms: N_3  and  C_4
REMARK    3  A    between atoms: C_4  and  C_5
REMARK    4  A    between atoms: C_12  and  C_13
REMARK    5  A    between atoms: C_13  and  N_14
REMARK                            x       y       z     vdW  Elec       q    Type
REMARK                         _______ _______ _______ _____ _____    ______ ____
ROOT
ATOM      5  C   UNL     1       0.481  -0.352  23.500  0.00  0.00    +0.079 C 
ATOM      6  C   UNL     1       0.226  -0.859  24.032  0.00  0.00    +0.018 C 
ATOM      7  C   UNL     1      -0.447  -0.779  24.476  0.00  0.00    +0.005 C 
ATOM      8  C   UNL     1      -0.565  -1.473  25.032  0.00  0.00    +0.017 C 
ATOM      9  C   UNL     1      -0.259  -1.125  24.571  0.00  0.00    +0.072 C 
ATOM     10  N   UNL     1      -0.203  -0.277  23.957  0.00  0.00    -0.272 NA
ATOM     11  C   UNL     1      -0.844   0.371  23.994  0.00  0.00    +0.073 C 
ATOM     12  C   UNL     1      -1.060  -0.152  24.507  0.00  0.00    +0.032 C 
ENDROOT
BRANCH   5   4
ATOM      4  C   UNL     1       1.015  -0.092  22.929  0.00  0.00    +0.131 C 
BRANCH   4   3
ATOM      1  O   UNL     1       2.160   0.011  21.745  0.00  0.00    -0.268 OA
ATOM      2  C   UNL     1       2.378   0.084  22.537  0.00  0.00    +0.265 C 
ATOM      3  N   UNL     1       1.806   0.033  23.129  0.00  0.00    -0.200 NA
BRANCH   2  26
ATOM     26  C   UNL     1       3.168   0.208  22.737  0.00  0.00    +0.055 A 
ATOM     27  C   UNL     1       3.609  -0.401  23.076  0.00  0.00    +0.005 A 
ATOM     28  C   UNL     1       4.399  -0.277  23.276  0.00  0.00    +0.000 A 
ATOM     29  C   UNL     1       4.749   0.457  23.137  0.00  0.00    +0.000 A 
ATOM     30  C   UNL     1       4.309   1.067  22.798  0.00  0.00    +0.000 A 
ATOM     31  C   UNL     1       3.519   0.943  22.598  0.00  0.00    +0.005 A 
ENDBRANCH   2  26
ENDBRANCH   4   3
ENDBRANCH   5   4
BRANCH  12  13
ATOM     13  C   UNL     1      -1.730  -0.132  24.989  0.00  0.00    +0.074 C 
BRANCH  13  14
ATOM     14  N   UNL     1      -2.225   0.528  24.978  0.00  0.00    -0.270 NA
ATOM     15  C   UNL     1      -1.983   1.231  25.333  0.00  0.00    +0.094 C 
ATOM     16  C   UNL     1      -2.479   1.892  25.322  0.00  0.00    +0.111 C 
ATOM     17  N   UNL     1      -3.216   1.846  24.956  0.00  0.00    -0.275 N 
ATOM     18  C   UNL     1      -3.459   1.142  24.601  0.00  0.00    +0.111 C 
ATOM     19  C   UNL     1      -2.963   0.482  24.612  0.00  0.00    +0.094 C 
ATOM     20  C   UNL     1      -3.712   2.505  24.945  0.00  0.00    +0.220 A 
ATOM     21  N   UNL     1      -3.470   3.210  25.299  0.00  0.00    -0.212 NA
ATOM     22  C   UNL     1      -3.966   3.869  25.288  0.00  0.00    +0.103 A 
ATOM     23  C   UNL     1      -4.705   3.824  24.922  0.00  0.00    +0.041 A 
ATOM     24  C   UNL     1      -4.946   3.120  24.568  0.00  0.00    +0.103 A 
ATOM     25  N   UNL     1      -4.451   2.460  24.579  0.00  0.00    -0.212 NA
ENDBRANCH  13  14
ENDBRANCH  12  13
TORSDOF 5
ENDMDL
MODEL 3
REMARK VINA RESULT:     -10.4      1.759      3.716
REMARK  Name = 
REMARK  5 active torsions:
REMARK  status: ('A' for Active; 'I' for Inactive)
REMARK    1  A    between atoms: C_2  and  C_26
REMARK    2  A    between atoms: N_3  and  C_4
REMARK    3  A    between atoms: C_4  and  C_5
REMARK    4  A    between atoms: C_12  and  C_13
REMARK    5  A    between atoms: C_13  and  N_14
REMARK                            x       y       z     vdW  Elec       q    Type
REMARK                         _______ _______ _______ _____ _____    ______ ____
ROOT
ATOM      5  C   UNL     1      -2.846   4.128  25.288  0.00  0.00    +0.079 C 
ATOM      6  C   UNL     1      -2.121   4.401  25.214  0.00  0.00    +0.018 C 
ATOM      7  C   UNL     1      -1.454   3.951  25.123  0.00  0.00    +0.005 C 
ATOM      8  C   UNL     1      -0.716   4.456  25.056  0.00  0.00    +0.017 C 
ATOM      9  C   UNL     1      -1.356   4.343  25.125  0.00  0.00    +0.072 C 
ATOM     10  N   UNL     1      -2.162   3.676  25.195  0.00  0.00    -0.272 NA
ATOM     11  C   UNL     1      -2.028   2.774  25.149  0.00  0.00    +0.073 C 
ATOM     12  C   UNL     1      -1.333   3.082  25.080  0.00  0.00    +0.032 C 
ENDROOT
BRANCH   5   4
ATOM      4  C   UNL     1      -3.660   4.219  25.383  0.00  0.00    +0.131 C 
BRANCH   4   3
ATOM      1  O   UNL     1      -5.300   4.398  25.409  0.00  0.00    -0.268 OA
ATOM      2  C   UNL     1      -4.967   3.645  25.444  0.00  0.00    +0.265 C 
ATOM      3  N   UNL     1      -4.146   3.555  25.431  0.00  0.00    -0.200 NA
BRANCH   2  26
ATOM     26  C   UNL     1      -5.453   2.980  25.492  0.00  0.00    +0.055 A 
ATOM     27  C   UNL     1      -5.632   2.550  24.812  0.00  0.00    +0.005 A 
ATOM     28  C   UNL     1      -6.118   1.885  24.861  0.00  0.00    +0.000 A 
ATOM     29  C   UNL     1      -6.426   1.652  25.589  0.00  0.00    +0.000 A 
ATOM     30  C   UNL     1      -6.248   2.082  26.270  0.00  0.00    +0.000 A 
ATOM     31  C   UNL     1      -5.761   2.746  26.222  0.00  0.00    +0.005 A 
ENDBRANCH   2  26
ENDBRANCH   4   3
ENDBRANCH   5   4
BRANCH  12  13
ATOM     13  C   UNL     1      -0.617   2.683  24.986  0.00  0.00    +0.074 C 
BRANCH  13  14
ATOM     14  N   UNL     1      -0.607   1.858  24.945  0.00  0.00    -0.270 NA
ATOM     15  C   UNL     1      -0.637   1.412  25.637  0.00  0.00    +0.094 C 
ATOM     16  C   UNL     1      -0.628   0.587  25.597  0.00  0.00    +0.111 C 
ATOM     17  N   UNL     1      -0.588   0.211  24.863  0.00  0.00    -0.275 N 
ATOM     18  C   UNL     1      -0.558   0.658  24.171  0.00  0.00    +0.111 C 
ATOM     19  C   UNL     1      -0.568   1.483  24.212  0.00  0.00    +0.094 C 
ATOM     20  C   UNL     1      -0.579  -0.613  24.822  0.00  0.00    +0.220 A 
ATOM     21  N   UNL     1      -0.609  -1.061  25.515  0.00  0.00    -0.212 NA
ATOM     22  C   UNL     1      -0.600  -1.884  25.474  0.00  0.00    +0.103 A 
ATOM     23  C   UNL     1      -0.560  -2.261  24.740  0.00  0.00    +0.041 A 
ATOM     24  C   UNL     1      -0.530  -1.813  24.049  0.00  0.00    +0.103 A 
ATOM     25  N   UNL     1      -0.539  -0.989  24.089  0.00  0.00    -0.212 NA
ENDBRANCH  13  14
ENDBRANCH  12  13
TORSDOF 5
ENDMDL
MODEL 4
REMARK VINA RESULT:     -10.4      2.345      3.918
REMARK  Name = 
REMARK  5 active torsions:
REMARK  status: ('A' for Active; 'I' for Inactive)
REMARK    1  A    between atoms: C_2  and  C_26
REMARK    2  A    between atoms: N_3  and  C_4
REMARK    3  A    between atoms: C_4  and  C_5
REMARK    4  A    between atoms: C_12  and  C_13
REMARK    5  A    between atoms: C_13  and  N_14
REMARK                            x       y       z     vdW  Elec       q    Type
REMARK                         _______ _______ _______ _____ _____    ______ ____
ROOT
ATOM      5  C   UNL     1      -4.195  -0.086  25.107  0.00  0.00    +0.079 C 
ATOM      6  C   UNL     1      -3.986  -0.731  25.487  0.00  0.00    +0.018 C 
ATOM      7  C   UNL     1      -3.240  -1.045  25.512  0.00  0.00    +0.005 C 
ATOM      8  C   UNL     1      -3.208  -1.793  26.005  0.00  0.00    +0.017 C 
ATOM      9  C   UNL     1      -3.493  -1.274  25.728  0.00  0.00    +0.072 C 
ATOM     10  N   UNL     1      -3.437  -0.411  25.136  0.00  0.00    -0.272 NA
ATOM     11  C   UNL     1      -2.646  -0.149  24.764  0.00  0.00    +0.073 C 
ATOM     12  C   UNL     1      -2.482  -0.787  25.151  0.00  0.00    +0.032 C 
ENDROOT
BRANCH   5   4
ATOM      4  C   UNL     1      -4.743   0.481  24.864  0.00  0.00    +0.131 C 
BRANCH   4   3
ATOM      1  O   UNL     1      -5.927   1.590  24.564  0.00  0.00    -0.268 OA
ATOM      2  C   UNL     1      -5.202   1.833  24.873  0.00  0.00    +0.265 C 
ATOM      3  N   UNL     1      -4.610   1.279  25.023  0.00  0.00    -0.200 NA
BRANCH   2  26
ATOM     26  C   UNL     1      -5.070   2.632  25.033  0.00  0.00    +0.055 A 
ATOM     27  C   UNL     1      -4.450   3.029  24.661  0.00  0.00    +0.005 A 
ATOM     28  C   UNL     1      -4.318   3.828  24.820  0.00  0.00    +0.000 A 
ATOM     29  C   UNL     1      -4.804   4.228  25.352  0.00  0.00    +0.000 A 
ATOM     30  C   UNL     1      -5.424   3.831  25.725  0.00  0.00    +0.000 A 
ATOM     31  C   UNL     1      -5.556   3.033  25.565  0.00  0.00    +0.005 A 
ENDBRANCH   2  26
ENDBRANCH   4   3
ENDBRANCH   5   4
BRANCH  12  13
ATOM     13  C   UNL     1      -1.747  -1.157  25.216  0.00  0.00    +0.074 C 
BRANCH  13  14
ATOM     14  N   UNL     1      -1.106  -0.880  24.776  0.00  0.00    -0.270 NA
ATOM     15  C   UNL     1      -0.724  -0.184  24.998  0.00  0.00    +0.094 C 
ATOM     16  C   UNL     1      -0.083   0.093  24.558  0.00  0.00    +0.111 C 
ATOM     17  N   UNL     1       0.175  -0.328  23.897  0.00  0.00    -0.275 N 
ATOM     18  C   UNL     1      -0.208  -1.024  23.675  0.00  0.00    +0.111 C 
ATOM     19  C   UNL     1      -0.849  -1.300  24.115  0.00  0.00    +0.094 C 
ATOM     20  C   UNL     1       0.816  -0.051  23.457  0.00  0.00    +0.220 A 
ATOM     21  N   UNL     1       1.199   0.645  23.678  0.00  0.00    -0.212 NA
ATOM     22  C   UNL     1       1.839   0.921  23.238  0.00  0.00    +0.103 A 
ATOM     23  C   UNL     1       2.097   0.501  22.577  0.00  0.00    +0.041 A 
ATOM     24  C   UNL     1       1.715  -0.194  22.355  0.00  0.00    +0.103 A 
ATOM     25  N   UNL     1       1.074  -0.471  22.795  0.00  0.00    -0.212 NA
ENDBRANCH  13  14
ENDBRANCH  12  13
TORSDOF 5
ENDMDL
MODEL 5
REMARK VINA RESULT:     -10.3      4.173      5.473
REMARK  Name = 
REMARK  5 active torsions:
REMARK  status: ('A' for Active; 'I' for Inactive)
REMARK    1  A    between atoms: C_2  and  C_26
REMARK    2  A    between atoms: N_3  and  C_4
REMARK    3  A    between atoms: C_4  and  C_5
REMARK    4  A    between atoms: C_12  and  C_13
REMARK    5  A    between atoms: C_13  and  N_14
REMARK                            x       y       z     vdW  Elec       q    Type
REMARK                         _______ _______ _______ _____ _____    ______ ____
ROOT
ATOM      5  C   UNL     1       1.304   1.161  23.547  0.00  0.00    +0.079 C 
ATOM      6  C   UNL     1       0.990   1.694  24.020  0.00  0.00    +0.018 C 
ATOM      7  C   UNL     1       0.287   1.619  24.414  0.00  0.00    +0.005 C 
ATOM      8  C   UNL     1       0.101   2.344  24.907  0.00  0.00    +0.017 C 
ATOM      9  C   UNL     1       0.454   1.977  24.498  0.00  0.00    +0.072 C 
ATOM     10  N   UNL     1       0.588   1.092  23.952  0.00  0.00    -0.272 NA
ATOM     11  C   UNL     1      -0.032   0.424  23.985  0.00  0.00    +0.073 C 
ATOM     12  C   UNL     1      -0.306   0.972  24.440  0.00  0.00    +0.032 C 
ENDROOT
BRANCH   5   4
ATOM      4  C   UNL     1       1.892   0.883  23.040  0.00  0.00    +0.131 C 
BRANCH   4   3
ATOM      1  O   UNL     1       3.085   0.387  22.015  0.00  0.00    -0.268 OA
ATOM      2  C   UNL     1       3.237   0.453  22.822  0.00  0.00    +0.265 C 
ATOM      3  N   UNL     1       2.640   0.701  23.336  0.00  0.00    -0.200 NA
BRANCH   2  26
ATOM     26  C   UNL     1       3.985   0.271  23.118  0.00  0.00    +0.055 A 
ATOM     27  C   UNL     1       4.585   0.837  23.099  0.00  0.00    +0.005 A 
ATOM     28  C   UNL     1       5.333   0.655  23.394  0.00  0.00    +0.000 A 
ATOM     29  C   UNL     1       5.482  -0.092  23.709  0.00  0.00    +0.000 A 
ATOM     30  C   UNL     1       4.882  -0.659  23.728  0.00  0.00    +0.000 A 
ATOM     31  C   UNL     1       4.134  -0.477  23.433  0.00  0.00    +0.005 A 
ENDBRANCH   2  26
ENDBRANCH   4   3
ENDBRANCH   5   4
BRANCH  12  13
ATOM     13  C   UNL     1      -1.012   0.959  24.868  0.00  0.00    +0.074 C 
BRANCH  13  14
ATOM     14  N   UNL     1      -1.553   0.348  24.752  0.00  0.00    -0.270 NA
ATOM     15  C   UNL     1      -1.425  -0.388  25.100  0.00  0.00    +0.094 C 
ATOM     16  C   UNL     1      -1.968  -1.000  24.983  0.00  0.00    +0.111 C 
ATOM     17  N   UNL     1      -2.636  -0.874  24.518  0.00  0.00    -0.275 N 
ATOM     18  C   UNL     1      -2.765  -0.138  24.169  0.00  0.00    +0.111 C 
ATOM     19  C   UNL     1      -2.222   0.473  24.286  0.00  0.00    +0.094 C 
ATOM     20  C   UNL     1      -3.178  -1.485  24.401  0.00  0.00    +0.220 A 
ATOM     21  N   UNL     1      -3.051  -2.222  24.749  0.00  0.00    -0.212 NA
ATOM     22  C   UNL     1      -3.592  -2.833  24.632  0.00  0.00    +0.103 A 
ATOM     23  C   UNL     1      -4.262  -2.707  24.166  0.00  0.00    +0.041 A 
ATOM     24  C   UNL     1      -4.389  -1.971  23.818  0.00  0.00    +0.103 A 
ATOM     25  N   UNL     1      -3.848  -1.360  23.935  0.00  0.00    -0.212 NA
ENDBRANCH  13  14
ENDBRANCH  12  13
TORSDOF 5
ENDMDL
MODEL 6
REMARK VINA RESULT:      -9.7      2.326      6.074
REMARK  Name = 
REMARK  5 active torsions:
REMARK  status: ('A' for Active; 'I' for Inactive)
REMARK    1  A    between atoms: C_2  and  C_26
REMARK    2  A    between atoms: N_3  and  C_4
REMARK    3  A    between atoms: C_4  and  C_5
REMARK    4  A    between atoms: C_12  and  C_13
REMARK    5  A    between atoms: C_13  and  N_14
REMARK                            x       y       z     vdW  Elec       q    Type
REMARK                         _______ _______ _______ _____ _____    ______ ____
ROOT
ATOM      5  C   UNL     1      -0.319  -0.219  24.328  0.00  0.00    +0.079 C 
ATOM      6  C   UNL     1       0.145   0.378  24.144  0.00  0.00    +0.018 C 
ATOM      7  C   UNL     1      -0.071   1.158  24.137  0.00  0.00    +0.005 C 
ATOM      8  C   UNL     1       0.609   1.691  23.898  0.00  0.00    +0.017 C 
ATOM      9  C   UNL     1       0.317   1.122  24.030  0.00  0.00    +0.072 C 
ATOM     10  N   UNL     1      -0.532   0.579  24.318  0.00  0.00    -0.272 NA
ATOM     11  C   UNL     1      -1.318   1.003  24.504  0.00  0.00    +0.073 C 
ATOM     12  C   UNL     1      -0.830   1.560  24.317  0.00  0.00    +0.032 C 
ENDROOT
BRANCH   5   4
ATOM      4  C   UNL     1      -0.476  -1.020  24.443  0.00  0.00    +0.131 C 
BRANCH   4   3
ATOM      1  O   UNL     1      -0.843  -2.516  25.036  0.00  0.00    -0.268 OA
ATOM      2  C   UNL     1      -1.436  -2.045  24.709  0.00  0.00    +0.265 C 
ATOM      3  N   UNL     1      -1.253  -1.297  24.412  0.00  0.00    -0.200 NA
BRANCH   2  26
ATOM     26  C   UNL     1      -2.212  -2.322  24.679  0.00  0.00    +0.055 A 
ATOM     27  C   UNL     1      -2.449  -2.819  24.065  0.00  0.00    +0.005 A 
ATOM     28  C   UNL     1      -3.225  -3.096  24.034  0.00  0.00    +0.000 A 
ATOM     29  C   UNL     1      -3.765  -2.876  24.617  0.00  0.00    +0.000 A 
ATOM     30  C   UNL     1      -3.528  -2.378  25.232  0.00  0.00    +0.000 A 
ATOM     31  C   UNL     1      -2.752  -2.101  25.263  0.00  0.00    +0.005 A 
ENDBRANCH   2  26
ENDBRANCH   4   3
ENDBRANCH   5   4
BRANCH  12  13
ATOM     13  C   UNL     1      -0.985   2.370  24.290  0.00  0.00    +0.074 C 
BRANCH  13  14
ATOM     14  N   UNL     1      -1.727   2.656  24.513  0.00  0.00    -0.270 NA
ATOM     15  C   UNL     1      -2.355   2.631  23.980  0.00  0.00    +0.094 C 
ATOM     16  C   UNL     1      -3.097   2.917  24.204  0.00  0.00    +0.111 C 
ATOM     17  N   UNL     1      -3.209   3.226  24.960  0.00  0.00    -0.275 N 
ATOM     18  C   UNL     1      -2.580   3.251  25.493  0.00  0.00    +0.111 C 
ATOM     19  C   UNL     1      -1.838   2.965  25.269  0.00  0.00    +0.094 C 
ATOM     20  C   UNL     1      -3.949   3.512  25.183  0.00  0.00    +0.220 A 
ATOM     21  N   UNL     1      -4.579   3.488  24.650  0.00  0.00    -0.212 NA
ATOM     22  C   UNL     1      -5.320   3.773  24.874  0.00  0.00    +0.103 A 
ATOM     23  C   UNL     1      -5.432   4.083  25.630  0.00  0.00    +0.041 A 
ATOM     24  C   UNL     1      -4.803   4.107  26.163  0.00  0.00    +0.103 A 
ATOM     25  N   UNL     1      -4.061   3.822  25.940  0.00  0.00    -0.212 NA
ENDBRANCH  13  14
ENDBRANCH  12  13
TORSDOF 5
ENDMDL
MODEL 7
REMARK VINA RESULT:      -9.6      1.605      3.326
REMARK  Name = 
REMARK  5 active torsions:
REMARK  status: ('A' for Active; 'I' for Inactive)
REMARK    1  A    between atoms: C_2  and  C_26
REMARK    2  A    between atoms: N_3  and  C_4
REMARK    3  A    between atoms: C_4  and  C_5
REMARK    4  A    between atoms: C_12  and  C_13
REMARK    5  A    between atoms: C_13  and  N_14
REMARK                            x       y       z     vdW  Elec       q    Type
REMARK                         _______ _______ _______ _____ _____    ______ ____
ROOT
ATOM      5  C   UNL     1      -1.652   3.276  25.429  0.00  0.00    +0.079 C 
ATOM      6  C   UNL     1      -0.943   3.101  25.699  0.00  0.00    +0.018 C 
ATOM      7  C   UNL     1      -0.614   2.361  25.716  0.00  0.00    +0.005 C 
ATOM      8  C   UNL     1       0.212   2.371  26.065  0.00  0.00    +0.017 C 
ATOM      9  C   UNL     1      -0.355   2.631  25.869  0.00  0.00    +0.072 C 
ATOM     10  N   UNL     1      -1.310   2.525  25.450  0.00  0.00    -0.272 NA
ATOM     11  C   UNL     1      -1.617   1.707  25.187  0.00  0.00    +0.073 C 
ATOM     12  C   UNL     1      -0.916   1.578  25.461  0.00  0.00    +0.032 C 
ENDROOT
BRANCH   5   4
ATOM      4  C   UNL     1      -2.264   3.800  25.257  0.00  0.00    +0.131 C 
BRANCH   4   3
ATOM      1  O   UNL     1      -3.507   4.358  24.327  0.00  0.00    -0.268 OA
ATOM      2  C   UNL     1      -3.664   3.881  24.981  0.00  0.00    +0.265 C 
ATOM      3  N   UNL     1      -3.042   3.602  25.447  0.00  0.00    -0.200 NA
BRANCH   2  26
ATOM     26  C   UNL     1      -4.442   3.683  25.170  0.00  0.00    +0.055 A 
ATOM     27  C   UNL     1      -4.921   4.225  25.567  0.00  0.00    +0.005 A 
ATOM     28  C   UNL     1      -5.699   4.027  25.756  0.00  0.00    +0.000 A 
ATOM     29  C   UNL     1      -5.998   3.287  25.549  0.00  0.00    +0.000 A 
ATOM     30  C   UNL     1      -5.519   2.744  25.153  0.00  0.00    +0.000 A 
ATOM     31  C   UNL     1      -4.741   2.942  24.963  0.00  0.00    +0.005 A 
ENDBRANCH   2  26
ENDBRANCH   4   3
ENDBRANCH   5   4
BRANCH  12  13
ATOM     13  C   UNL     1      -0.524   0.852  25.507  0.00  0.00    +0.074 C 
BRANCH  13  14
ATOM     14  N   UNL     1      -0.928   0.154  25.331  0.00  0.00    -0.270 NA
ATOM     15  C   UNL     1      -1.566  -0.081  25.797  0.00  0.00    +0.094 C 
ATOM     16  C   UNL     1      -1.970  -0.780  25.621  0.00  0.00    +0.111 C 
ATOM     17  N   UNL     1      -1.734  -1.241  24.980  0.00  0.00    -0.275 N 
ATOM     18  C   UNL     1      -1.095  -1.006  24.514  0.00  0.00    +0.111 C 
ATOM     19  C   UNL     1      -0.692  -0.307  24.690  0.00  0.00    +0.094 C 
ATOM     20  C   UNL     1      -2.137  -1.939  24.804  0.00  0.00    +0.220 A 
ATOM     21  N   UNL     1      -2.776  -2.175  25.270  0.00  0.00    -0.212 NA
ATOM     22  C   UNL     1      -3.179  -2.873  25.094  0.00  0.00    +0.103 A 
ATOM     23  C   UNL     1      -2.943  -3.336  24.453  0.00  0.00    +0.041 A 
ATOM     24  C   UNL     1      -2.305  -3.100  23.988  0.00  0.00    +0.103 A 
ATOM     25  N   UNL     1      -1.901  -2.402  24.163  0.00  0.00    -0.212 NA
ENDBRANCH  13  14
ENDBRANCH  12  13
TORSDOF 5
ENDMDL
MODEL 8
REMARK VINA RESULT:      -9.6      1.628      5.415
REMARK  Name = 
REMARK  5 active torsions:
REMARK  status: ('A' for Active; 'I' for Inactive)
REMARK    1  A    between atoms: C_2  and  C_26
REMARK    2  A    between atoms: N_3  and  C_4
REMARK    3  A    between atoms: C_4  and  C_5
REMARK    4  A    between atoms: C_12  and  C_13
REMARK    5  A    between atoms: C_13  and  N_14
REMARK                            x       y       z     vdW  Elec       q    Type
REMARK                         _______ _______ _______ _____ _____    ______ ____
ROOT
ATOM      5  C   UNL     1      -5.055   0.382  24.657  0.00  0.00    +0.079 C 
ATOM      6  C   UNL     1      -5.519   0.819  25.103  0.00  0.00    +0.018 C 
ATOM      7  C   UNL     1      -5.373   1.582  25.332  0.00  0.00    +0.005 C 
ATOM      8  C   UNL     1      -6.031   1.908  25.845  0.00  0.00    +0.017 C 
ATOM      9  C   UNL     1      -5.726   1.457  25.485  0.00  0.00    +0.072 C 
ATOM     10  N   UNL     1      -4.913   1.160  24.893  0.00  0.00    -0.272 NA
ATOM     11  C   UNL     1      -4.221   1.732  24.728  0.00  0.00    +0.073 C 
ATOM     12  C   UNL     1      -4.704   2.126  25.169  0.00  0.00    +0.032 C 
ENDROOT
BRANCH   5   4
ATOM      4  C   UNL     1      -4.858  -0.312  24.258  0.00  0.00    +0.131 C 
BRANCH   4   3
ATOM      1  O   UNL     1      -4.388  -1.639  23.398  0.00  0.00    -0.268 OA
ATOM      2  C   UNL     1      -4.007  -1.450  24.104  0.00  0.00    +0.265 C 
ATOM      3  N   UNL     1      -4.242  -0.786  24.535  0.00  0.00    -0.200 NA
BRANCH   2  26
ATOM     26  C   UNL     1      -3.391  -1.923  24.381  0.00  0.00    +0.055 A 
ATOM     27  C   UNL     1      -2.612  -1.658  24.331  0.00  0.00    +0.005 A 
ATOM     28  C   UNL     1      -1.995  -2.131  24.607  0.00  0.00    +0.000 A 
ATOM     29  C   UNL     1      -2.158  -2.871  24.933  0.00  0.00    +0.000 A 
ATOM     30  C   UNL     1      -2.938  -3.137  24.984  0.00  0.00    +0.000 A 
ATOM     31  C   UNL     1      -3.554  -2.663  24.707  0.00  0.00    +0.005 A 
ENDBRANCH   2  26
ENDBRANCH   4   3
ENDBRANCH   5   4
BRANCH  12  13
ATOM     13  C   UNL     1      -4.616   2.903  25.436  0.00  0.00    +0.074 C 
BRANCH  13  14
ATOM     14  N   UNL     1      -3.896   3.293  25.336  0.00  0.00    -0.270 NA
ATOM     15  C   UNL     1      -3.877   4.039  24.984  0.00  0.00    +0.094 C 
ATOM     16  C   UNL     1      -3.156   4.429  24.885  0.00  0.00    +0.111 C 
ATOM     17  N   UNL     1      -2.456   4.073  25.137  0.00  0.00    -0.275 N 
ATOM     18  C   UNL     1      -2.476   3.327  25.488  0.00  0.00    +0.111 C 
ATOM     19  C   UNL     1      -3.197   2.937  25.588  0.00  0.00    +0.094 C 
ATOM     20  C   UNL     1      -1.737   4.463  25.037  0.00  0.00    +0.220 A 
ATOM     21  N   UNL     1      -1.716   5.209  24.685  0.00  0.00    -0.212 NA
ATOM     22  C   UNL     1      -0.996   5.599  24.586  0.00  0.00    +0.103 A 
ATOM     23  C   UNL     1      -0.296   5.243  24.838  0.00  0.00    +0.041 A 
ATOM     24  C   UNL     1      -0.316   4.498  25.189  0.00  0.00    +0.103 A 
ATOM     25  N   UNL     1      -1.036   4.107  25.289  0.00  0.00    -0.212 NA
ENDBRANCH  13  14
ENDBRANCH  12  13
TORSDOF 5
ENDMDL
MODEL 9
REMARK VINA RESULT:      -9.1      2.146      5.380
REMARK  Name = 
REMARK  5 active torsions:
REMARK  status: ('A' for Active; 'I' for Inactive)
REMARK    1  A    between atoms: C_2  and  C_26
REMARK    2  A    between atoms: N_3  and  C_4
REMARK    3  A    between atoms: C_4  and  C_5
REMARK    4  A    between atoms: C_12  and  C_13
REMARK    5  A    between atoms: C_13  and  N_14
REMARK                            x       y       z     vdW  Elec       q    Type
REMARK                         _______ _______ _______ _____ _____    ______ ____
ROOT
ATOM      5  C   UNL     1      -0.171   1.786  24.237  0.00  0.00    +0.079 C 
ATOM      6  C   UNL     1      -0.114   2.553  24.350  0.00  0.00    +0.018 C 
ATOM      7  C   UNL     1      -0.735   3.066  24.436  0.00  0.00    +0.005 C 
ATOM      8  C   UNL     1      -0.457   3.910  24.557  0.00  0.00    +0.017 C 
ATOM      9  C   UNL     1      -0.385   3.268  24.461  0.00  0.00    +0.072 C 
ATOM     10  N   UNL     1      -0.799   2.314  24.325  0.00  0.00    -0.272 NA
ATOM     11  C   UNL     1      -1.704   2.193  24.321  0.00  0.00    +0.073 C 
ATOM     12  C   UNL     1      -1.604   2.942  24.431  0.00  0.00    +0.032 C 
ENDROOT
BRANCH   5   4
ATOM      4  C   UNL     1       0.145   1.033  24.121  0.00  0.00    +0.131 C 
BRANCH   4   3
ATOM      1  O   UNL     1       0.525  -0.463  23.538  0.00  0.00    -0.268 OA
ATOM      2  C   UNL     1      -0.066  -0.380  24.106  0.00  0.00    +0.265 C 
ATOM      3  N   UNL     1      -0.257   0.369  24.398  0.00  0.00    -0.200 NA
BRANCH   2  26
ATOM     26  C   UNL     1      -0.468  -1.044  24.384  0.00  0.00    +0.055 A 
ATOM     27  C   UNL     1      -1.020  -1.424  23.902  0.00  0.00    +0.005 A 
ATOM     28  C   UNL     1      -1.422  -2.089  24.179  0.00  0.00    +0.000 A 
ATOM     29  C   UNL     1      -1.272  -2.374  24.938  0.00  0.00    +0.000 A 
ATOM     30  C   UNL     1      -0.721  -1.994  25.421  0.00  0.00    +0.000 A 
ATOM     31  C   UNL     1      -0.319  -1.330  25.144  0.00  0.00    +0.005 A 
ENDBRANCH   2  26
ENDBRANCH   4   3
ENDBRANCH   5   4
BRANCH  12  13
ATOM     13  C   UNL     1      -2.190   3.516  24.525  0.00  0.00    +0.074 C 
BRANCH  13  14
ATOM     14  N   UNL     1      -2.956   3.291  24.734  0.00  0.00    -0.270 NA
ATOM     15  C   UNL     1      -3.235   3.433  25.496  0.00  0.00    +0.094 C 
ATOM     16  C   UNL     1      -4.002   3.208  25.704  0.00  0.00    +0.111 C 
ATOM     17  N   UNL     1      -4.488   2.841  25.148  0.00  0.00    -0.275 N 
ATOM     18  C   UNL     1      -4.210   2.699  24.385  0.00  0.00    +0.111 C 
ATOM     19  C   UNL     1      -3.443   2.924  24.178  0.00  0.00    +0.094 C 
ATOM     20  C   UNL     1      -5.254   2.616  25.356  0.00  0.00    +0.220 A 
ATOM     21  N   UNL     1      -5.534   2.758  26.119  0.00  0.00    -0.212 NA
ATOM     22  C   UNL     1      -6.299   2.533  26.326  0.00  0.00    +0.103 A 
ATOM     23  C   UNL     1      -6.787   2.166  25.770  0.00  0.00    +0.041 A 
ATOM     24  C   UNL     1      -6.508   2.025  25.008  0.00  0.00    +0.103 A 
ATOM     25  N   UNL     1      -5.741   2.249  24.800  0.00  0.00    -0.212 NA
ENDBRANCH  13  14
ENDBRANCH  12  13
TORSDOF 5
ENDMDL
MODEL 10
REMARK VINA RESULT:      -8.8     14.512     16.248
REMARK  Name = 
REMARK  5 active torsions:
REMARK  status: ('A' for Active; 'I' for Inactive)
REMARK    1  A    between atoms: C_2  and  C_26
REMARK    2  A    between atoms: N_3  and  C_4
REMARK    3  A    between atoms: C_4  and  C_5
REMARK    4  A    between atoms: C_12  and  C_13
REMARK    5  A    between atoms: C_13  and  N_14
REMARK                            x       y       z     vdW  Elec       q    Type
REMARK                         _______ _______ _______ _____ _____    ______ ____
ROOT
ATOM      5  C   UNL     1      -4.815 -10.530  14.380  0.00  0.00    +0.079 C 
ATOM      6  C   UNL     1      -4.394 -10.541  15.035  0.00  0.00    +0.018 C 
ATOM      7  C   UNL     1      -4.678 -10.408  15.781  0.00  0.00    +0.005 C 
ATOM      8  C   UNL     1      -4.032 -10.465  16.400  0.00  0.00    +0.017 C 
ATOM      9  C   UNL     1      -4.281 -10.482  15.796  0.00  0.00    +0.072 C 
ATOM     10  N   UNL     1      -5.097 -10.396  15.144  0.00  0.00    -0.272 NA
ATOM     11  C   UNL     1      -5.931 -10.205  15.461  0.00  0.00    +0.073 C 
ATOM     12  C   UNL     1      -5.483 -10.224  16.079  0.00  0.00    +0.032 C 
ENDROOT
BRANCH   5   4
ATOM      4  C   UNL     1      -4.907 -10.599  13.564  0.00  0.00    +0.131 C 
BRANCH   4   3
ATOM      1  O   UNL     1      -5.073 -10.779  11.932  0.00  0.00    -0.268 OA
ATOM      2  C   UNL     1      -4.390 -10.436  12.242  0.00  0.00    +0.265 C 
ATOM      3  N   UNL     1      -4.307 -10.345  13.058  0.00  0.00    -0.200 NA
BRANCH   2  26
ATOM     26  C   UNL     1      -3.790 -10.182  11.736  0.00  0.00    +0.055 A 
ATOM     27  C   UNL     1      -3.020 -10.458  11.838  0.00  0.00    +0.005 A 
ATOM     28  C   UNL     1      -2.420 -10.204  11.332  0.00  0.00    +0.000 A 
ATOM     29  C   UNL     1      -2.591  -9.674  10.724  0.00  0.00    +0.000 A 
ATOM     30  C   UNL     1      -3.361  -9.398  10.620  0.00  0.00    +0.000 A 
ATOM     31  C   UNL     1      -3.961  -9.652  11.126  0.00  0.00    +0.005 A 
ENDBRANCH   2  26
ENDBRANCH   4   3
ENDBRANCH   5   4
BRANCH  12  13
ATOM     13  C   UNL     1      -5.708 -10.099  16.863  0.00  0.00    +0.074 C 
BRANCH  13  14
ATOM     14  N   UNL     1      -6.504  -9.989  17.051  0.00  0.00    -0.270 NA
ATOM     15  C   UNL     1      -6.876  -9.276  16.870  0.00  0.00    +0.094 C 
ATOM     16  C   UNL     1      -7.673  -9.167  17.058  0.00  0.00    +0.111 C 
ATOM     17  N   UNL     1      -8.096  -9.772  17.426  0.00  0.00    -0.275 N 
ATOM     18  C   UNL     1      -7.724 -10.486  17.607  0.00  0.00    +0.111 C 
ATOM     19  C   UNL     1      -6.927 -10.594  17.419  0.00  0.00    +0.094 C 
ATOM     20  C   UNL     1      -8.892  -9.664  17.614  0.00  0.00    +0.220 A 
ATOM     21  N   UNL     1      -9.265  -8.950  17.433  0.00  0.00    -0.212 NA
ATOM     22  C   UNL     1     -10.060  -8.842  17.621  0.00  0.00    +0.103 A 
ATOM     23  C   UNL     1     -10.484  -9.447  17.990  0.00  0.00    +0.041 A 
ATOM     24  C   UNL     1     -10.111 -10.159  18.170  0.00  0.00    +0.103 A 
ATOM     25  N   UNL     1      -9.315 -10.269  17.983  0.00  0.00    -0.212 NA
ENDBRANCH  13  14
ENDBRANCH  12  13
TORSDOF 5
ENDMDL
