MODEL 1
REMARK VINA RESULT:     -12.8      0.000      0.000
REMARK  Name = 
REMARK  7 active torsions:
REMARK  status: ('A' for Active; 'I' for Inactive)
REMARK    1  A    between atoms: C_2  and  O_14
REMARK    2  A    between atoms: N_3  and  C_4
REMARK    3  A    between atoms: O_14  and  C_15
REMARK    4  A    between atoms: C_19  and  N_23
REMARK    5  A    between atoms: C_27  and  S_28
REMARK    6  A    between atoms: S_28  and  C_29
REMARK    7  A    between atoms: C_29  and  C_30
REMARK                            x       y       z     vdW  Elec       q    Type
REMARK                         _______ _______ _______ _____ _____    ______ ____
ROOT
ATOM     15  C   UNL     1      -0.352   1.187  24.888  0.00  0.00    +0.229 C 
ATOM     16  C   UNL     1      -0.411   1.478  24.118  0.00  0.00    +0.188 C 
ATOM     17  O   UNL     1      -0.638   2.270  24.162  0.00  0.00    -0.348 OA
ATOM     18  C   UNL     1      -0.720   2.468  24.958  0.00  0.00    +0.171 C 
ATOM     19  C   UNL     1      -0.911   3.080  25.478  0.00  0.00    +0.168 C 
ATOM     20  C   UNL     1      -0.851   2.789  26.248  0.00  0.00    +0.169 C 
ATOM     21  O   UNL     1      -0.624   1.997  26.204  0.00  0.00    -0.348 OA
ATOM     22  C   UNL     1      -0.543   1.799  25.407  0.00  0.00    +0.187 C 
ENDROOT
BRANCH  19  23
ATOM     23  N   UNL     1      -1.123   3.848  25.265  0.00  0.00    -0.205 N 
ATOM     24  N   UNL     1      -0.605   4.453  25.051  0.00  0.00    -0.042 NA
ATOM     25  N   UNL     1      -1.053   5.125  24.883  0.00  0.00    -0.022 NA
ATOM     26  N   UNL     1      -1.847   4.935  24.992  0.00  0.00    -0.101 NA
ATOM     27  C   UNL     1      -1.891   4.146  25.228  0.00  0.00    +0.211 A 
BRANCH  27  28
ATOM     28  S   UNL     1      -2.582   3.728  25.398  0.00  0.00    -0.066 S 
BRANCH  28  29
ATOM     29  C   UNL     1      -3.312   4.019  25.146  0.00  0.00    +0.129 C 
BRANCH  29  30
ATOM     30  C   UNL     1      -3.994   3.565  25.249  0.00  0.00    +0.134 A 
ATOM     31  C   UNL     1      -4.343   3.078  24.682  0.00  0.00    +0.037 A 
ATOM     32  C   UNL     1      -5.011   2.733  25.020  0.00  0.00    +0.043 A 
ATOM     33  C   UNL     1      -5.076   3.005  25.796  0.00  0.00    +0.179 A 
ATOM     34  O   UNL     1      -4.447   3.521  25.938  0.00  0.00    -0.454 OA
ENDBRANCH  29  30
ENDBRANCH  28  29
ENDBRANCH  27  28
ENDBRANCH  19  23
BRANCH  15  14
ATOM     14  O   UNL     1      -0.139   0.419  25.101  0.00  0.00    -0.432 OA
BRANCH  14   2
ATOM      1  O   UNL     1      -0.427  -0.471  24.020  0.00  0.00    -0.224 OA
ATOM      2  C   UNL     1      -0.557  -0.224  24.796  0.00  0.00    +0.425 C 
ATOM      3  N   UNL     1      -1.106  -0.620  25.269  0.00  0.00    -0.142 NA
BRANCH   3   4
ATOM      4  C   UNL     1      -1.524  -1.263  24.964  0.00  0.00    +0.077 A 
ATOM      5  C   UNL     1      -1.130  -1.840  24.525  0.00  0.00    +0.017 A 
ATOM      6  C   UNL     1      -1.547  -2.483  24.220  0.00  0.00    +0.001 A 
ATOM      7  C   UNL     1      -2.359  -2.549  24.354  0.00  0.00    +0.000 A 
ATOM      8  C   UNL     1      -2.753  -1.972  24.793  0.00  0.00    +0.001 A 
ATOM      9  C   UNL     1      -3.564  -2.038  24.927  0.00  0.00    +0.000 A 
ATOM     10  C   UNL     1      -3.958  -1.460  25.366  0.00  0.00    +0.000 A 
ATOM     11  C   UNL     1      -3.540  -0.818  25.671  0.00  0.00    +0.000 A 
ATOM     12  C   UNL     1      -2.728  -0.752  25.537  0.00  0.00    +0.001 A 
ATOM     13  C   UNL     1      -2.335  -1.329  25.098  0.00  0.00    +0.015 A 
ENDBRANCH   3   4
ENDBRANCH  14   2
ENDBRANCH  15  14
TORSDOF 7
ENDMDL
MODEL 2
REMARK VINA RESULT:     -11.6      1.583      4.695
REMARK  Name = 
REMARK  7 active torsions:
REMARK  status: ('A' for Active; 'I' for Inactive)
REMARK    1  A    between atoms: C_2  and  O_14
REMARK    2  A    between atoms: N_3  and  C_4
REMARK    3  A    between atoms: O_14  and  C_15
REMARK    4  A    between atoms: C_19  and  N_23
REMARK    5  A    between atoms: C_27  and  S_28
REMARK    6  A    between atoms: S_28  and  C_29
REMARK    7  A    between atoms: C_29  and  C_30
REMARK                            x       y       z     vdW  Elec       q    Type
REMARK                         _______ _______ _______ _____ _____    ______ ____
ROOT
ATOM     15  C   UNL     1      -0.306   1.029  24.737  0.00  0.00    +0.229 C 
ATOM     16  C   UNL     1      -0.450   0.859  23.943  0.00  0.00    +0.188 C 
ATOM     17  O   UNL     1      -0.894   0.164  23.907  0.00  0.00    -0.348 OA
ATOM     18  C   UNL     1      -1.024  -0.095  24.678  0.00  0.00    +0.171 C 
ATOM     19  C   UNL     1      -1.378  -0.685  25.134  0.00  0.00    +0.168 C 
ATOM     20  C   UNL     1      -1.234  -0.515  25.929  0.00  0.00    +0.169 C 
ATOM     21  O   UNL     1      -0.791   0.180  25.964  0.00  0.00    -0.348 OA
ATOM     22  C   UNL     1      -0.661   0.439  25.192  0.00  0.00    +0.187 C 
ENDROOT
BRANCH  19  23
ATOM     23  N   UNL     1      -1.802  -1.331  24.846  0.00  0.00    -0.205 N 
ATOM     24  N   UNL     1      -1.479  -2.015  24.515  0.00  0.00    -0.042 NA
ATOM     25  N   UNL     1      -2.100  -2.513  24.302  0.00  0.00    -0.022 NA
ATOM     26  N   UNL     1      -2.807  -2.138  24.501  0.00  0.00    -0.101 NA
ATOM     27  C   UNL     1      -2.623  -1.407  24.837  0.00  0.00    +0.211 A 
BRANCH  27  28
ATOM     28  S   UNL     1      -3.165  -0.851  25.115  0.00  0.00    -0.066 S 
BRANCH  28  29
ATOM     29  C   UNL     1      -3.905  -0.782  24.758  0.00  0.00    +0.129 C 
BRANCH  29  30
ATOM     30  C   UNL     1      -4.353  -0.097  24.865  0.00  0.00    +0.134 A 
ATOM     31  C   UNL     1      -4.519   0.469  24.287  0.00  0.00    +0.037 A 
ATOM     32  C   UNL     1      -4.981   1.057  24.634  0.00  0.00    +0.043 A 
ATOM     33  C   UNL     1      -5.101   0.857  25.425  0.00  0.00    +0.179 A 
ATOM     34  O   UNL     1      -4.712   0.143  25.568  0.00  0.00    -0.454 OA
ENDBRANCH  29  30
ENDBRANCH  28  29
ENDBRANCH  27  28
ENDBRANCH  19  23
BRANCH  15  14
ATOM     14  O   UNL     1       0.118   1.675  25.026  0.00  0.00    -0.432 OA
BRANCH  14   2
ATOM      1  O   UNL     1       0.021   2.774  24.117  0.00  0.00    -0.224 OA
ATOM      2  C   UNL     1      -0.134   2.442  24.856  0.00  0.00    +0.425 C 
ATOM      3  N   UNL     1      -0.541   2.878  25.427  0.00  0.00    -0.142 NA
BRANCH   3   4
ATOM      4  C   UNL     1      -0.793   3.645  25.258  0.00  0.00    +0.077 A 
ATOM      5  C   UNL     1      -0.303   4.155  24.833  0.00  0.00    +0.017 A 
ATOM      6  C   UNL     1      -0.554   4.923  24.663  0.00  0.00    +0.001 A 
ATOM      7  C   UNL     1      -1.296   5.180  24.917  0.00  0.00    +0.000 A 
ATOM      8  C   UNL     1      -1.786   4.669  25.342  0.00  0.00    +0.001 A 
ATOM      9  C   UNL     1      -2.527   4.926  25.597  0.00  0.00    +0.000 A 
ATOM     10  C   UNL     1      -3.017   4.416  26.022  0.00  0.00    +0.000 A 
ATOM     11  C   UNL     1      -2.765   3.649  26.191  0.00  0.00    +0.000 A 
ATOM     12  C   UNL     1      -2.024   3.392  25.937  0.00  0.00    +0.001 A 
ATOM     13  C   UNL     1      -1.535   3.902  25.512  0.00  0.00    +0.015 A 
ENDBRANCH   3   4
ENDBRANCH  14   2
ENDBRANCH  15  14
TORSDOF 7
ENDMDL
MODEL 3
REMARK VINA RESULT:     -11.4      1.964      3.321
REMARK  Name = 
REMARK  7 active torsions:
REMARK  status: ('A' for Active; 'I' for Inactive)
REMARK    1  A    between atoms: C_2  and  O_14
REMARK    2  A    between atoms: N_3  and  C_4
REMARK    3  A    between atoms: O_14  and  C_15
REMARK    4  A    between atoms: C_19  and  N_23
REMARK    5  A    between atoms: C_27  and  S_28
REMARK    6  A    between atoms: S_28  and  C_29
REMARK    7  A    between atoms: C_29  and  C_30
REMARK                            x       y       z     vdW  Elec       q    Type
REMARK                         _______ _______ _______ _____ _____    ______ ____
ROOT
ATOM     15  C   UNL     1      -4.472   0.513  24.430  0.00  0.00    +0.229 C 
ATOM     16  C   UNL     1      -4.741   0.458  25.207  0.00  0.00    +0.188 C 
ATOM     17  O   UNL     1      -4.815   1.224  25.506  0.00  0.00    -0.348 OA
ATOM     18  C   UNL     1      -4.592   1.751  24.913  0.00  0.00    +0.171 C 
ATOM     19  C   UNL     1      -4.499   2.550  24.730  0.00  0.00    +0.168 C 
ATOM     20  C   UNL     1      -4.229   2.604  23.952  0.00  0.00    +0.169 C 
ATOM     21  O   UNL     1      -4.156   1.839  23.654  0.00  0.00    -0.348 OA
ATOM     22  C   UNL     1      -4.380   1.311  24.248  0.00  0.00    +0.187 C 
ENDROOT
BRANCH  19  23
ATOM     23  N   UNL     1      -4.649   3.184  25.236  0.00  0.00    -0.205 N 
ATOM     24  N   UNL     1      -5.384   3.391  25.549  0.00  0.00    -0.042 NA
ATOM     25  N   UNL     1      -5.280   4.057  26.025  0.00  0.00    -0.022 NA
ATOM     26  N   UNL     1      -4.481   4.261  26.006  0.00  0.00    -0.101 NA
ATOM     27  C   UNL     1      -4.091   3.722  25.518  0.00  0.00    +0.211 A 
BRANCH  27  28
ATOM     28  S   UNL     1      -3.284   3.721  25.344  0.00  0.00    -0.066 S 
BRANCH  28  29
ATOM     29  C   UNL     1      -2.777   4.236  25.739  0.00  0.00    +0.129 C 
BRANCH  29  30
ATOM     30  C   UNL     1      -1.985   4.291  25.512  0.00  0.00    +0.134 A 
ATOM     31  C   UNL     1      -1.629   4.939  25.146  0.00  0.00    +0.037 A 
ATOM     32  C   UNL     1      -0.835   4.755  25.019  0.00  0.00    +0.043 A 
ATOM     33  C   UNL     1      -0.700   3.993  25.306  0.00  0.00    +0.179 A 
ATOM     34  O   UNL     1      -1.411   3.706  25.611  0.00  0.00    -0.454 OA
ENDBRANCH  29  30
ENDBRANCH  28  29
ENDBRANCH  27  28
ENDBRANCH  19  23
BRANCH  15  14
ATOM     14  O   UNL     1      -4.322  -0.121  23.923  0.00  0.00    -0.432 OA
BRANCH  14   2
ATOM      1  O   UNL     1      -4.338  -1.354  24.646  0.00  0.00    -0.224 OA
ATOM      2  C   UNL     1      -3.929  -0.790  24.205  0.00  0.00    +0.425 C 
ATOM      3  N   UNL     1      -3.126  -0.894  24.044  0.00  0.00    -0.142 NA
BRANCH   3   4
ATOM      4  C   UNL     1      -2.733  -1.562  24.326  0.00  0.00    +0.077 A 
ATOM      5  C   UNL     1      -3.129  -2.285  24.370  0.00  0.00    +0.017 A 
ATOM      6  C   UNL     1      -2.736  -2.954  24.651  0.00  0.00    +0.001 A 
ATOM      7  C   UNL     1      -1.948  -2.900  24.889  0.00  0.00    +0.000 A 
ATOM      8  C   UNL     1      -1.553  -2.177  24.846  0.00  0.00    +0.001 A 
ATOM      9  C   UNL     1      -0.765  -2.123  25.084  0.00  0.00    +0.000 A 
ATOM     10  C   UNL     1      -0.369  -1.400  25.040  0.00  0.00    +0.000 A 
ATOM     11  C   UNL     1      -0.762  -0.732  24.759  0.00  0.00    +0.000 A 
ATOM     12  C   UNL     1      -1.550  -0.786  24.520  0.00  0.00    +0.001 A 
ATOM     13  C   UNL     1      -1.945  -1.508  24.564  0.00  0.00    +0.015 A 
ENDBRANCH   3   4
ENDBRANCH  14   2
ENDBRANCH  15  14
TORSDOF 7
ENDMDL
MODEL 4
REMARK VINA RESULT:     -11.2      2.063      5.576
REMARK  Name = 
REMARK  7 active torsions:
REMARK  status: ('A' for Active; 'I' for Inactive)
REMARK    1  A    between atoms: C_2  and  O_14
REMARK    2  A    between atoms: N_3  and  C_4
REMARK    3  A    between atoms: O_14  and  C_15
REMARK    4  A    between atoms: C_19  and  N_23
REMARK    5  A    between atoms: C_27  and  S_28
REMARK    6  A    between atoms: S_28  and  C_29
REMARK    7  A    between atoms: C_29  and  C_30
REMARK                            x       y       z     vdW  Elec       q    Type
REMARK                         _______ _______ _______ _____ _____    ______ ____
ROOT
ATOM     15  C   UNL     1      -3.982   1.546  24.504  0.00  0.00    +0.229 C 
ATOM     16  C   UNL     1      -3.815   1.401  23.710  0.00  0.00    +0.188 C 
ATOM     17  O   UNL     1      -3.830   0.584  23.591  0.00  0.00    -0.348 OA
ATOM     18  C   UNL     1      -4.007   0.226  24.312  0.00  0.00    +0.171 C 
ATOM     19  C   UNL     1      -4.126  -0.501  24.685  0.00  0.00    +0.168 C 
ATOM     20  C   UNL     1      -4.294  -0.355  25.480  0.00  0.00    +0.169 C 
ATOM     21  O   UNL     1      -4.278   0.461  25.598  0.00  0.00    -0.348 OA
ATOM     22  C   UNL     1      -4.101   0.820  24.876  0.00  0.00    +0.187 C 
ENDROOT
BRANCH  19  23
ATOM     23  N   UNL     1      -4.085  -1.242  24.327  0.00  0.00    -0.205 N 
ATOM     24  N   UNL     1      -4.680  -1.597  23.877  0.00  0.00    -0.042 NA
ATOM     25  N   UNL     1      -4.405  -2.334  23.627  0.00  0.00    -0.022 NA
ATOM     26  N   UNL     1      -3.641  -2.434  23.922  0.00  0.00    -0.101 NA
ATOM     27  C   UNL     1      -3.444  -1.760  24.354  0.00  0.00    +0.211 A 
BRANCH  27  28
ATOM     28  S   UNL     1      -2.729  -1.626  24.746  0.00  0.00    -0.066 S 
BRANCH  28  29
ATOM     29  C   UNL     1      -2.062  -2.067  24.546  0.00  0.00    +0.129 C 
BRANCH  29  30
ATOM     30  C   UNL     1      -1.308  -1.769  24.705  0.00  0.00    +0.134 A 
ATOM     31  C   UNL     1      -0.889  -1.861  25.410  0.00  0.00    +0.037 A 
ATOM     32  C   UNL     1      -0.165  -1.476  25.327  0.00  0.00    +0.043 A 
ATOM     33  C   UNL     1      -0.135  -1.146  24.572  0.00  0.00    +0.179 A 
ATOM     34  O   UNL     1      -0.842  -1.327  24.187  0.00  0.00    -0.454 OA
ENDBRANCH  29  30
ENDBRANCH  28  29
ENDBRANCH  27  28
ENDBRANCH  19  23
BRANCH  15  14
ATOM     14  O   UNL     1      -4.023   2.288  24.863  0.00  0.00    -0.432 OA
BRANCH  14   2
ATOM      1  O   UNL     1      -3.330   3.272  24.093  0.00  0.00    -0.224 OA
ATOM      2  C   UNL     1      -3.399   2.821  24.780  0.00  0.00    +0.425 C 
ATOM      3  N   UNL     1      -2.844   2.903  25.385  0.00  0.00    -0.142 NA
BRANCH   3   4
ATOM      4  C   UNL     1      -2.219   3.436  25.302  0.00  0.00    +0.077 A 
ATOM      5  C   UNL     1      -2.364   4.200  25.027  0.00  0.00    +0.017 A 
ATOM      6  C   UNL     1      -1.740   4.734  24.944  0.00  0.00    +0.001 A 
ATOM      7  C   UNL     1      -0.972   4.503  25.136  0.00  0.00    +0.000 A 
ATOM      8  C   UNL     1      -0.827   3.739  25.411  0.00  0.00    +0.001 A 
ATOM      9  C   UNL     1      -0.059   3.508  25.602  0.00  0.00    +0.000 A 
ATOM     10  C   UNL     1       0.086   2.743  25.877  0.00  0.00    +0.000 A 
ATOM     11  C   UNL     1      -0.538   2.210  25.960  0.00  0.00    +0.000 A 
ATOM     12  C   UNL     1      -1.307   2.441  25.768  0.00  0.00    +0.001 A 
ATOM     13  C   UNL     1      -1.451   3.205  25.494  0.00  0.00    +0.015 A 
ENDBRANCH   3   4
ENDBRANCH  14   2
ENDBRANCH  15  14
TORSDOF 7
ENDMDL
MODEL 5
REMARK VINA RESULT:     -11.1      1.632      4.738
REMARK  Name = 
REMARK  7 active torsions:
REMARK  status: ('A' for Active; 'I' for Inactive)
REMARK    1  A    between atoms: C_2  and  O_14
REMARK    2  A    between atoms: N_3  and  C_4
REMARK    3  A    between atoms: O_14  and  C_15
REMARK    4  A    between atoms: C_19  and  N_23
REMARK    5  A    between atoms: C_27  and  S_28
REMARK    6  A    between atoms: S_28  and  C_29
REMARK    7  A    between atoms: C_29  and  C_30
REMARK                            x       y       z     vdW  Elec       q    Type
REMARK                         _______ _______ _______ _____ _____    ______ ____
ROOT
ATOM     15  C   UNL     1      -1.684   2.569  24.379  0.00  0.00    +0.229 C 
ATOM     16  C   UNL     1      -1.241   2.466  25.067  0.00  0.00    +0.188 C 
ATOM     17  O   UNL     1      -0.823   1.757  24.997  0.00  0.00    -0.348 OA
ATOM     18  C   UNL     1      -1.010   1.423  24.266  0.00  0.00    +0.171 C 
ATOM     19  C   UNL     1      -0.867   0.779  23.771  0.00  0.00    +0.168 C 
ATOM     20  C   UNL     1      -1.312   0.883  23.083  0.00  0.00    +0.169 C 
ATOM     21  O   UNL     1      -1.728   1.591  23.153  0.00  0.00    -0.348 OA
ATOM     22  C   UNL     1      -1.542   1.925  23.885  0.00  0.00    +0.187 C 
ENDROOT
BRANCH  19  23
ATOM     23  N   UNL     1      -0.369   0.142  23.934  0.00  0.00    -0.205 N 
ATOM     24  N   UNL     1       0.452   0.136  23.852  0.00  0.00    -0.042 NA
ATOM     25  N   UNL     1       0.725  -0.610  24.075  0.00  0.00    -0.022 NA
ATOM     26  N   UNL     1       0.073  -1.064  24.296  0.00  0.00    -0.101 NA
ATOM     27  C   UNL     1      -0.603  -0.599  24.208  0.00  0.00    +0.211 A 
BRANCH  27  28
ATOM     28  S   UNL     1      -1.378  -0.835  24.368  0.00  0.00    -0.066 S 
BRANCH  28  29
ATOM     29  C   UNL     1      -1.525  -1.587  24.673  0.00  0.00    +0.129 C 
BRANCH  29  30
ATOM     30  C   UNL     1      -2.301  -1.861  24.738  0.00  0.00    +0.134 A 
ATOM     31  C   UNL     1      -2.847  -1.641  25.317  0.00  0.00    +0.037 A 
ATOM     32  C   UNL     1      -3.549  -2.048  25.171  0.00  0.00    +0.043 A 
ATOM     33  C   UNL     1      -3.439  -2.519  24.503  0.00  0.00    +0.179 A 
ATOM     34  O   UNL     1      -2.666  -2.403  24.235  0.00  0.00    -0.454 OA
ENDBRANCH  29  30
ENDBRANCH  28  29
ENDBRANCH  27  28
ENDBRANCH  19  23
BRANCH  15  14
ATOM     14  O   UNL     1      -2.183   3.206  24.215  0.00  0.00    -0.432 OA
BRANCH  14   2
ATOM      1  O   UNL     1      -2.786   3.719  25.405  0.00  0.00    -0.224 OA
ATOM      2  C   UNL     1      -2.854   3.334  24.679  0.00  0.00    +0.425 C 
ATOM      3  N   UNL     1      -3.592   3.076  24.415  0.00  0.00    -0.142 NA
BRANCH   3   4
ATOM      4  C   UNL     1      -4.263   3.204  24.879  0.00  0.00    +0.077 A 
ATOM      5  C   UNL     1      -4.377   3.935  25.245  0.00  0.00    +0.017 A 
ATOM      6  C   UNL     1      -5.047   4.064  25.709  0.00  0.00    +0.001 A 
ATOM      7  C   UNL     1      -5.603   3.462  25.806  0.00  0.00    +0.000 A 
ATOM      8  C   UNL     1      -5.489   2.731  25.439  0.00  0.00    +0.001 A 
ATOM      9  C   UNL     1      -6.045   2.130  25.536  0.00  0.00    +0.000 A 
ATOM     10  C   UNL     1      -5.930   1.399  25.170  0.00  0.00    +0.000 A 
ATOM     11  C   UNL     1      -5.260   1.271  24.706  0.00  0.00    +0.000 A 
ATOM     12  C   UNL     1      -4.704   1.873  24.609  0.00  0.00    +0.001 A 
ATOM     13  C   UNL     1      -4.818   2.603  24.976  0.00  0.00    +0.015 A 
ENDBRANCH   3   4
ENDBRANCH  14   2
ENDBRANCH  15  14
TORSDOF 7
ENDMDL
MODEL 6
REMARK VINA RESULT:     -11.1      1.703      3.262
REMARK  Name = 
REMARK  7 active torsions:
REMARK  status: ('A' for Active; 'I' for Inactive)
REMARK    1  A    between atoms: C_2  and  O_14
REMARK    2  A    between atoms: N_3  and  C_4
REMARK    3  A    between atoms: O_14  and  C_15
REMARK    4  A    between atoms: C_19  and  N_23
REMARK    5  A    between atoms: C_27  and  S_28
REMARK    6  A    between atoms: S_28  and  C_29
REMARK    7  A    between atoms: C_29  and  C_30
REMARK                            x       y       z     vdW  Elec       q    Type
REMARK                         _______ _______ _______ _____ _____    ______ ____
ROOT
ATOM     15  C   UNL     1      -4.460   0.914  24.478  0.00  0.00    +0.229 C 
ATOM     16  C   UNL     1      -4.655   0.950  25.278  0.00  0.00    +0.188 C 
ATOM     17  O   UNL     1      -4.425   1.690  25.563  0.00  0.00    -0.348 OA
ATOM     18  C   UNL     1      -4.087   2.109  24.939  0.00  0.00    +0.171 C 
ATOM     19  C   UNL     1      -3.735   2.826  24.729  0.00  0.00    +0.168 C 
ATOM     20  C   UNL     1      -3.539   2.789  23.928  0.00  0.00    +0.169 C 
ATOM     21  O   UNL     1      -3.770   2.050  23.643  0.00  0.00    -0.348 OA
ATOM     22  C   UNL     1      -4.108   1.630  24.268  0.00  0.00    +0.187 C 
ENDROOT
BRANCH  19  23
ATOM     23  N   UNL     1      -3.603   3.466  25.231  0.00  0.00    -0.205 N 
ATOM     24  N   UNL     1      -4.181   3.964  25.546  0.00  0.00    -0.042 NA
ATOM     25  N   UNL     1      -3.805   4.527  26.016  0.00  0.00    -0.022 NA
ATOM     26  N   UNL     1      -2.994   4.378  25.992  0.00  0.00    -0.101 NA
ATOM     27  C   UNL     1      -2.869   3.723  25.507  0.00  0.00    +0.211 A 
BRANCH  27  28
ATOM     28  S   UNL     1      -2.138   3.383  25.329  0.00  0.00    -0.066 S 
BRANCH  28  29
ATOM     29  C   UNL     1      -1.488   3.528  25.814  0.00  0.00    +0.129 C 
BRANCH  29  30
ATOM     30  C   UNL     1      -0.806   3.068  25.739  0.00  0.00    +0.134 A 
ATOM     31  C   UNL     1      -0.450   2.626  26.337  0.00  0.00    +0.037 A 
ATOM     32  C   UNL     1       0.214   2.256  26.019  0.00  0.00    +0.043 A 
ATOM     33  C   UNL     1       0.269   2.468  25.224  0.00  0.00    +0.179 A 
ATOM     34  O   UNL     1      -0.362   2.970  25.050  0.00  0.00    -0.454 OA
ENDBRANCH  29  30
ENDBRANCH  28  29
ENDBRANCH  27  28
ENDBRANCH  19  23
BRANCH  15  14
ATOM     14  O   UNL     1      -4.592   0.273  23.975  0.00  0.00    -0.432 OA
BRANCH  14   2
ATOM      1  O   UNL     1      -4.836  -0.953  24.669  0.00  0.00    -0.224 OA
ATOM      2  C   UNL     1      -4.348  -0.483  24.198  0.00  0.00    +0.425 C 
ATOM      3  N   UNL     1      -3.615  -0.769  23.949  0.00  0.00    -0.142 NA
BRANCH   3   4
ATOM      4  C   UNL     1      -3.370  -1.525  24.172  0.00  0.00    +0.077 A 
ATOM      5  C   UNL     1      -3.909  -2.151  24.167  0.00  0.00    +0.017 A 
ATOM      6  C   UNL     1      -3.666  -2.907  24.390  0.00  0.00    +0.001 A 
ATOM      7  C   UNL     1      -2.884  -3.038  24.618  0.00  0.00    +0.000 A 
ATOM      8  C   UNL     1      -2.345  -2.412  24.623  0.00  0.00    +0.001 A 
ATOM      9  C   UNL     1      -1.563  -2.543  24.851  0.00  0.00    +0.000 A 
ATOM     10  C   UNL     1      -1.025  -1.918  24.856  0.00  0.00    +0.000 A 
ATOM     11  C   UNL     1      -1.269  -1.162  24.633  0.00  0.00    +0.000 A 
ATOM     12  C   UNL     1      -2.051  -1.031  24.405  0.00  0.00    +0.001 A 
ATOM     13  C   UNL     1      -2.588  -1.656  24.400  0.00  0.00    +0.015 A 
ENDBRANCH   3   4
ENDBRANCH  14   2
ENDBRANCH  15  14
TORSDOF 7
ENDMDL
MODEL 7
REMARK VINA RESULT:     -10.2      1.987      5.637
REMARK  Name = 
REMARK  7 active torsions:
REMARK  status: ('A' for Active; 'I' for Inactive)
REMARK    1  A    between atoms: C_2  and  O_14
REMARK    2  A    between atoms: N_3  and  C_4
REMARK    3  A    between atoms: O_14  and  C_15
REMARK    4  A    between atoms: C_19  and  N_23
REMARK    5  A    between atoms: C_27  and  S_28
REMARK    6  A    between atoms: S_28  and  C_29
REMARK    7  A    between atoms: C_29  and  C_30
REMARK                            x       y       z     vdW  Elec       q    Type
REMARK                         _______ _______ _______ _____ _____    ______ ____
ROOT
ATOM     15  C   UNL     1      -4.404   0.415  24.889  0.00  0.00    +0.229 C 
ATOM     16  C   UNL     1      -4.360   0.252  24.081  0.00  0.00    +0.188 C 
ATOM     17  O   UNL     1      -3.942  -0.453  23.986  0.00  0.00    -0.348 OA
ATOM     18  C   UNL     1      -3.729  -0.726  24.734  0.00  0.00    +0.171 C 
ATOM     19  C   UNL     1      -3.339  -1.331  25.138  0.00  0.00    +0.168 C 
ATOM     20  C   UNL     1      -3.384  -1.167  25.946  0.00  0.00    +0.169 C 
ATOM     21  O   UNL     1      -3.801  -0.462  26.041  0.00  0.00    -0.348 OA
ATOM     22  C   UNL     1      -4.015  -0.189  25.292  0.00  0.00    +0.187 C 
ENDROOT
BRANCH  19  23
ATOM     23  N   UNL     1      -2.970  -1.983  24.795  0.00  0.00    -0.205 N 
ATOM     24  N   UNL     1      -3.339  -2.684  24.565  0.00  0.00    -0.042 NA
ATOM     25  N   UNL     1      -2.764  -3.184  24.250  0.00  0.00    -0.022 NA
ATOM     26  N   UNL     1      -2.039  -2.792  24.285  0.00  0.00    -0.101 NA
ATOM     27  C   UNL     1      -2.166  -2.050  24.622  0.00  0.00    +0.211 A 
BRANCH  27  28
ATOM     28  S   UNL     1      -1.590  -1.475  24.761  0.00  0.00    -0.066 S 
BRANCH  28  29
ATOM     29  C   UNL     1      -0.869  -1.510  24.363  0.00  0.00    +0.129 C 
BRANCH  29  30
ATOM     30  C   UNL     1      -0.436  -0.819  24.233  0.00  0.00    +0.134 A 
ATOM     31  C   UNL     1      -0.007  -0.637  23.552  0.00  0.00    +0.037 A 
ATOM     32  C   UNL     1       0.337   0.104  23.659  0.00  0.00    +0.043 A 
ATOM     33  C   UNL     1       0.121   0.382  24.405  0.00  0.00    +0.179 A 
ATOM     34  O   UNL     1      -0.357  -0.190  24.760  0.00  0.00    -0.454 OA
ENDBRANCH  29  30
ENDBRANCH  28  29
ENDBRANCH  27  28
ENDBRANCH  19  23
BRANCH  15  14
ATOM     14  O   UNL     1      -4.774   1.068  25.232  0.00  0.00    -0.432 OA
BRANCH  14   2
ATOM      1  O   UNL     1      -4.955   2.153  24.319  0.00  0.00    -0.224 OA
ATOM      2  C   UNL     1      -4.582   1.830  24.980  0.00  0.00    +0.425 C 
ATOM      3  N   UNL     1      -4.016   2.269  25.390  0.00  0.00    -0.142 NA
BRANCH   3   4
ATOM      4  C   UNL     1      -3.824   3.031  25.139  0.00  0.00    +0.077 A 
ATOM      5  C   UNL     1      -4.390   3.493  24.754  0.00  0.00    +0.017 A 
ATOM      6  C   UNL     1      -4.199   4.255  24.502  0.00  0.00    +0.001 A 
ATOM      7  C   UNL     1      -3.442   4.555  24.634  0.00  0.00    +0.000 A 
ATOM      8  C   UNL     1      -2.876   4.093  25.019  0.00  0.00    +0.001 A 
ATOM      9  C   UNL     1      -2.119   4.393  25.151  0.00  0.00    +0.000 A 
ATOM     10  C   UNL     1      -1.553   3.931  25.535  0.00  0.00    +0.000 A 
ATOM     11  C   UNL     1      -1.745   3.169  25.787  0.00  0.00    +0.000 A 
ATOM     12  C   UNL     1      -2.502   2.869  25.655  0.00  0.00    +0.001 A 
ATOM     13  C   UNL     1      -3.067   3.331  25.271  0.00  0.00    +0.015 A 
ENDBRANCH   3   4
ENDBRANCH  14   2
ENDBRANCH  15  14
TORSDOF 7
ENDMDL
