MODEL 1
REMARK VINA RESULT:     -11.8      0.000      0.000
REMARK  Name = 
REMARK  7 active torsions:
REMARK  status: ('A' for Active; 'I' for Inactive)
REMARK    1  A    between atoms: O_2  and  C_3
REMARK    2  A    between atoms: C_3  and  C_4
REMARK    3  A    between atoms: C_9  and  C_11
REMARK    4  A    between atoms: C_11  and  C_12
REMARK    5  A    between atoms: C_12  and  C_13
REMARK    6  A    between atoms: C_20  and  N_23
REMARK    7  A    between atoms: C_24  and  C_26
REMARK                            x       y       z     vdW  Elec       q    Type
REMARK                         _______ _______ _______ _____ _____    ______ ____
ROOT
ATOM     13  C   UNL     1      -4.555   1.246  24.825  0.00  0.00    +0.080 C 
ATOM     14  C   UNL     1      -5.323   1.068  25.068  0.00  0.00    +0.131 C 
ATOM     15  N   UNL     1      -5.821   1.669  25.338  0.00  0.00    -0.203 NA
ATOM     16  C   UNL     1      -5.551   2.447  25.364  0.00  0.00    +0.256 C 
ATOM     17  O   UNL     1      -6.049   3.048  25.634  0.00  0.00    -0.272 OA
ATOM     18  C   UNL     1      -4.783   2.626  25.121  0.00  0.00    +0.138 C 
ATOM     19  C   UNL     1      -4.367   3.338  25.086  0.00  0.00    +0.048 C 
ATOM     20  C   UNL     1      -3.612   3.177  24.795  0.00  0.00    +0.113 C 
ATOM     21  C   UNL     1      -3.562   2.366  24.650  0.00  0.00    +0.094 C 
ATOM     22  N   UNL     1      -4.285   2.026  24.852  0.00  0.00    -0.265 NA
ENDROOT
BRANCH  20  23
ATOM     23  N   UNL     1      -3.013   3.731  24.670  0.00  0.00    -0.202 NA
ATOM     24  C   UNL     1      -2.398   3.804  25.215  0.00  0.00    +0.265 C 
ATOM     25  O   UNL     1      -2.384   3.323  25.885  0.00  0.00    -0.268 OA
BRANCH  24  26
ATOM     26  C   UNL     1      -1.799   4.357  25.090  0.00  0.00    +0.055 A 
ATOM     27  C   UNL     1      -1.959   5.162  25.166  0.00  0.00    +0.005 A 
ATOM     28  C   UNL     1      -1.360   5.715  25.041  0.00  0.00    +0.000 A 
ATOM     29  C   UNL     1      -0.601   5.463  24.840  0.00  0.00    +0.000 A 
ATOM     30  C   UNL     1      -0.441   4.657  24.764  0.00  0.00    +0.000 A 
ATOM     31  C   UNL     1      -1.041   4.104  24.889  0.00  0.00    +0.005 A 
ENDBRANCH  24  26
ENDBRANCH  20  23
BRANCH  13  12
ATOM     12  C   UNL     1      -4.058   0.647  24.556  0.00  0.00    +0.027 C 
BRANCH  12  11
ATOM     11  C   UNL     1      -4.230  -0.141  24.729  0.00  0.00    +0.087 C 
BRANCH  11   9
ATOM      4  C   UNL     1      -3.188  -2.066  24.438  0.00  0.00    +0.105 C 
ATOM      5  C   UNL     1      -3.537  -2.720  24.075  0.00  0.00    +0.024 C 
ATOM      6  C   UNL     1      -4.306  -2.511  23.859  0.00  0.00    +0.023 C 
ATOM      7  C   UNL     1      -4.432  -1.729  24.090  0.00  0.00    +0.093 C 
ATOM      8  N   UNL     1      -3.741  -1.454  24.447  0.00  0.00    -0.279 N 
ATOM      9  C   UNL     1      -3.623  -0.699  24.759  0.00  0.00    +0.226 C 
ATOM     10  O   UNL     1      -2.899  -0.502  25.102  0.00  0.00    -0.275 OA
BRANCH   4   3
ATOM      3  C   UNL     1      -2.421  -2.032  24.739  0.00  0.00    +0.162 C 
BRANCH   3   2
ATOM      1  C   UNL     1      -1.095  -2.561  24.808  0.00  0.00    +0.174 C 
ATOM      2  O   UNL     1      -1.878  -2.625  24.554  0.00  0.00    -0.349 OA
ENDBRANCH   3   2
ENDBRANCH   4   3
ENDBRANCH  11   9
ENDBRANCH  12  11
ENDBRANCH  13  12
TORSDOF 7
ENDMDL
MODEL 2
REMARK VINA RESULT:     -11.4      1.530      4.907
REMARK  Name = 
REMARK  7 active torsions:
REMARK  status: ('A' for Active; 'I' for Inactive)
REMARK    1  A    between atoms: O_2  and  C_3
REMARK    2  A    between atoms: C_3  and  C_4
REMARK    3  A    between atoms: C_9  and  C_11
REMARK    4  A    between atoms: C_11  and  C_12
REMARK    5  A    between atoms: C_12  and  C_13
REMARK    6  A    between atoms: C_20  and  N_23
REMARK    7  A    between atoms: C_24  and  C_26
REMARK                            x       y       z     vdW  Elec       q    Type
REMARK                         _______ _______ _______ _____ _____    ______ ____
ROOT
ATOM     13  C   UNL     1      -3.679   2.802  24.767  0.00  0.00    +0.080 C 
ATOM     14  C   UNL     1      -4.059   3.454  25.101  0.00  0.00    +0.131 C 
ATOM     15  N   UNL     1      -4.807   3.368  25.437  0.00  0.00    -0.203 NA
ATOM     16  C   UNL     1      -5.176   2.630  25.440  0.00  0.00    +0.256 C 
ATOM     17  O   UNL     1      -5.925   2.544  25.776  0.00  0.00    -0.272 OA
ATOM     18  C   UNL     1      -4.796   1.978  25.106  0.00  0.00    +0.138 C 
ATOM     19  C   UNL     1      -5.022   1.189  25.028  0.00  0.00    +0.048 C 
ATOM     20  C   UNL     1      -4.413   0.786  24.643  0.00  0.00    +0.113 C 
ATOM     21  C   UNL     1      -3.811   1.328  24.483  0.00  0.00    +0.094 C 
ATOM     22  N   UNL     1      -4.048   2.064  24.769  0.00  0.00    -0.265 NA
ENDROOT
BRANCH  20  23
ATOM     23  N   UNL     1      -4.407  -0.016  24.452  0.00  0.00    -0.202 NA
ATOM     24  C   UNL     1      -3.882  -0.527  24.831  0.00  0.00    +0.265 C 
ATOM     25  O   UNL     1      -3.363  -0.235  25.402  0.00  0.00    -0.268 OA
BRANCH  24  26
ATOM     26  C   UNL     1      -3.876  -1.329  24.639  0.00  0.00    +0.055 A 
ATOM     27  C   UNL     1      -4.245  -1.592  23.951  0.00  0.00    +0.005 A 
ATOM     28  C   UNL     1      -4.239  -2.394  23.759  0.00  0.00    +0.000 A 
ATOM     29  C   UNL     1      -3.863  -2.934  24.256  0.00  0.00    +0.000 A 
ATOM     30  C   UNL     1      -3.494  -2.671  24.945  0.00  0.00    +0.000 A 
ATOM     31  C   UNL     1      -3.500  -1.869  25.137  0.00  0.00    +0.005 A 
ENDBRANCH  24  26
ENDBRANCH  20  23
BRANCH  13  12
ATOM     12  C   UNL     1      -2.931   2.888  24.431  0.00  0.00    +0.027 C 
BRANCH  12  11
ATOM     11  C   UNL     1      -2.286   3.086  24.905  0.00  0.00    +0.087 C 
BRANCH  11   9
ATOM      4  C   UNL     1      -0.171   2.503  25.160  0.00  0.00    +0.105 C 
ATOM      5  C   UNL     1       0.215   2.507  25.889  0.00  0.00    +0.024 C 
ATOM      6  C   UNL     1      -0.324   2.759  26.461  0.00  0.00    +0.023 C 
ATOM      7  C   UNL     1      -1.042   2.911  26.086  0.00  0.00    +0.093 C 
ATOM      8  N   UNL     1      -0.949   2.752  25.281  0.00  0.00    -0.279 N 
ATOM      9  C   UNL     1      -1.529   2.829  24.700  0.00  0.00    +0.226 C 
ATOM     10  O   UNL     1      -1.353   2.650  23.915  0.00  0.00    -0.275 OA
BRANCH   4   3
ATOM      3  C   UNL     1       0.162   2.287  24.436  0.00  0.00    +0.162 C 
BRANCH   3   2
ATOM      1  C   UNL     1       1.131   1.502  23.740  0.00  0.00    +0.174 C 
ATOM      2  O   UNL     1       0.898   1.915  24.416  0.00  0.00    -0.349 OA
ENDBRANCH   3   2
ENDBRANCH   4   3
ENDBRANCH  11   9
ENDBRANCH  12  11
ENDBRANCH  13  12
TORSDOF 7
ENDMDL
MODEL 3
REMARK VINA RESULT:     -10.3      2.166      6.309
REMARK  Name = 
REMARK  7 active torsions:
REMARK  status: ('A' for Active; 'I' for Inactive)
REMARK    1  A    between atoms: O_2  and  C_3
REMARK    2  A    between atoms: C_3  and  C_4
REMARK    3  A    between atoms: C_9  and  C_11
REMARK    4  A    between atoms: C_11  and  C_12
REMARK    5  A    between atoms: C_12  and  C_13
REMARK    6  A    between atoms: C_20  and  N_23
REMARK    7  A    between atoms: C_24  and  C_26
REMARK                            x       y       z     vdW  Elec       q    Type
REMARK                         _______ _______ _______ _____ _____    ______ ____
ROOT
ATOM     13  C   UNL     1      -0.073   1.386  24.674  0.00  0.00    +0.080 C 
ATOM     14  C   UNL     1       0.602   1.683  24.306  0.00  0.00    +0.131 C 
ATOM     15  N   UNL     1       1.002   1.228  23.746  0.00  0.00    -0.203 NA
ATOM     16  C   UNL     1       0.726   0.476  23.554  0.00  0.00    +0.256 C 
ATOM     17  O   UNL     1       1.126   0.020  22.993  0.00  0.00    -0.272 OA
ATOM     18  C   UNL     1       0.050   0.177  23.921  0.00  0.00    +0.138 C 
ATOM     19  C   UNL     1      -0.349  -0.540  23.844  0.00  0.00    +0.048 C 
ATOM     20  C   UNL     1      -0.995  -0.529  24.356  0.00  0.00    +0.113 C 
ATOM     21  C   UNL     1      -0.996   0.196  24.750  0.00  0.00    +0.094 C 
ATOM     22  N   UNL     1      -0.350   0.632  24.481  0.00  0.00    -0.265 NA
ENDROOT
BRANCH  20  23
ATOM     23  N   UNL     1      -1.545  -1.136  24.457  0.00  0.00    -0.202 NA
ATOM     24  C   UNL     1      -2.339  -1.009  24.271  0.00  0.00    +0.265 C 
ATOM     25  O   UNL     1      -2.582  -0.275  23.985  0.00  0.00    -0.268 OA
BRANCH  24  26
ATOM     26  C   UNL     1      -2.888  -1.616  24.372  0.00  0.00    +0.055 A 
ATOM     27  C   UNL     1      -2.738  -2.223  24.910  0.00  0.00    +0.005 A 
ATOM     28  C   UNL     1      -3.288  -2.829  25.011  0.00  0.00    +0.000 A 
ATOM     29  C   UNL     1      -3.988  -2.830  24.574  0.00  0.00    +0.000 A 
ATOM     30  C   UNL     1      -4.137  -2.223  24.036  0.00  0.00    +0.000 A 
ATOM     31  C   UNL     1      -3.587  -1.616  23.935  0.00  0.00    +0.005 A 
ENDBRANCH  24  26
ENDBRANCH  20  23
BRANCH  13  12
ATOM     12  C   UNL     1      -0.472   1.841  25.234  0.00  0.00    +0.027 C 
BRANCH  12  11
ATOM     11  C   UNL     1      -0.551   2.654  25.125  0.00  0.00    +0.087 C 
BRANCH  11   9
ATOM      4  C   UNL     1      -1.924   4.327  25.563  0.00  0.00    +0.105 C 
ATOM      5  C   UNL     1      -1.791   5.101  25.310  0.00  0.00    +0.024 C 
ATOM      6  C   UNL     1      -1.082   5.112  24.887  0.00  0.00    +0.023 C 
ATOM      7  C   UNL     1      -0.778   4.345  24.879  0.00  0.00    +0.093 C 
ATOM      8  N   UNL     1      -1.298   3.860  25.297  0.00  0.00    -0.279 N 
ATOM      9  C   UNL     1      -1.209   3.050  25.427  0.00  0.00    +0.226 C 
ATOM     10  O   UNL     1      -1.777   2.636  25.857  0.00  0.00    -0.275 OA
BRANCH   4   3
ATOM      3  C   UNL     1      -2.570   4.067  26.006  0.00  0.00    +0.162 C 
BRANCH   3   2
ATOM      1  C   UNL     1      -3.958   4.196  26.322  0.00  0.00    +0.174 C 
ATOM      2  O   UNL     1      -3.253   4.528  26.049  0.00  0.00    -0.349 OA
ENDBRANCH   3   2
ENDBRANCH   4   3
ENDBRANCH  11   9
ENDBRANCH  12  11
ENDBRANCH  13  12
TORSDOF 7
ENDMDL
MODEL 4
REMARK VINA RESULT:      -9.6      1.995      4.112
REMARK  Name = 
REMARK  7 active torsions:
REMARK  status: ('A' for Active; 'I' for Inactive)
REMARK    1  A    between atoms: O_2  and  C_3
REMARK    2  A    between atoms: C_3  and  C_4
REMARK    3  A    between atoms: C_9  and  C_11
REMARK    4  A    between atoms: C_11  and  C_12
REMARK    5  A    between atoms: C_12  and  C_13
REMARK    6  A    between atoms: C_20  and  N_23
REMARK    7  A    between atoms: C_24  and  C_26
REMARK                            x       y       z     vdW  Elec       q    Type
REMARK                         _______ _______ _______ _____ _____    ______ ____
ROOT
ATOM     13  C   UNL     1      -0.803   3.023  25.381  0.00  0.00    +0.080 C 
ATOM     14  C   UNL     1      -0.206   3.568  25.216  0.00  0.00    +0.131 C 
ATOM     15  N   UNL     1      -0.396   4.360  25.082  0.00  0.00    -0.203 NA
ATOM     16  C   UNL     1      -1.182   4.606  25.113  0.00  0.00    +0.256 C 
ATOM     17  O   UNL     1      -1.371   5.399  24.979  0.00  0.00    -0.272 OA
ATOM     18  C   UNL     1      -1.779   4.062  25.278  0.00  0.00    +0.138 C 
ATOM     19  C   UNL     1      -2.597   4.143  25.344  0.00  0.00    +0.048 C 
ATOM     20  C   UNL     1      -2.914   3.402  25.519  0.00  0.00    +0.113 C 
ATOM     21  C   UNL     1      -2.291   2.862  25.561  0.00  0.00    +0.094 C 
ATOM     22  N   UNL     1      -1.590   3.270  25.412  0.00  0.00    -0.265 NA
ENDROOT
BRANCH  20  23
ATOM     23  N   UNL     1      -3.713   3.230  25.632  0.00  0.00    -0.202 NA
ATOM     24  C   UNL     1      -4.125   2.791  25.068  0.00  0.00    +0.265 C 
ATOM     25  O   UNL     1      -3.737   2.525  24.391  0.00  0.00    -0.268 OA
BRANCH  24  26
ATOM     26  C   UNL     1      -4.924   2.619  25.181  0.00  0.00    +0.055 A 
ATOM     27  C   UNL     1      -5.244   1.927  24.870  0.00  0.00    +0.005 A 
ATOM     28  C   UNL     1      -6.043   1.755  24.983  0.00  0.00    +0.000 A 
ATOM     29  C   UNL     1      -6.521   2.276  25.407  0.00  0.00    +0.000 A 
ATOM     30  C   UNL     1      -6.200   2.969  25.718  0.00  0.00    +0.000 A 
ATOM     31  C   UNL     1      -5.401   3.141  25.605  0.00  0.00    +0.005 A 
ENDBRANCH  24  26
ENDBRANCH  20  23
BRANCH  13  12
ATOM     12  C   UNL     1      -0.614   2.232  25.515  0.00  0.00    +0.027 C 
BRANCH  12  11
ATOM     11  C   UNL     1      -0.259   1.786  24.919  0.00  0.00    +0.087 C 
BRANCH  11   9
ATOM      4  C   UNL     1      -0.135  -0.285  24.161  0.00  0.00    +0.105 C 
ATOM      5  C   UNL     1       0.242  -0.487  23.455  0.00  0.00    +0.024 C 
ATOM      6  C   UNL     1       0.541   0.205  23.119  0.00  0.00    +0.023 C 
ATOM      7  C   UNL     1       0.349   0.834  23.617  0.00  0.00    +0.093 C 
ATOM      8  N   UNL     1      -0.069   0.532  24.261  0.00  0.00    -0.279 N 
ATOM      9  C   UNL     1      -0.368   0.969  24.894  0.00  0.00    +0.226 C 
ATOM     10  O   UNL     1      -0.776   0.589  25.501  0.00  0.00    -0.275 OA
BRANCH   4   3
ATOM      3  C   UNL     1      -0.512  -0.807  24.676  0.00  0.00    +0.162 C 
BRANCH   3   2
ATOM      1  C   UNL     1      -1.140  -2.069  24.910  0.00  0.00    +0.174 C 
ATOM      2  O   UNL     1      -0.681  -1.577  24.432  0.00  0.00    -0.349 OA
ENDBRANCH   3   2
ENDBRANCH   4   3
ENDBRANCH  11   9
ENDBRANCH  12  11
ENDBRANCH  13  12
TORSDOF 7
ENDMDL
MODEL 5
REMARK VINA RESULT:      -9.4      1.917      5.883
REMARK  Name = 
REMARK  7 active torsions:
REMARK  status: ('A' for Active; 'I' for Inactive)
REMARK    1  A    between atoms: O_2  and  C_3
REMARK    2  A    between atoms: C_3  and  C_4
REMARK    3  A    between atoms: C_9  and  C_11
REMARK    4  A    between atoms: C_11  and  C_12
REMARK    5  A    between atoms: C_12  and  C_13
REMARK    6  A    between atoms: C_20  and  N_23
REMARK    7  A    between atoms: C_24  and  C_26
REMARK                            x       y       z     vdW  Elec       q    Type
REMARK                         _______ _______ _______ _____ _____    ______ ____
ROOT
ATOM     13  C   UNL     1      -1.199   2.163  24.048  0.00  0.00    +0.080 C 
ATOM     14  C   UNL     1      -0.481   2.562  24.122  0.00  0.00    +0.131 C 
ATOM     15  N   UNL     1       0.222   2.138  24.193  0.00  0.00    -0.203 NA
ATOM     16  C   UNL     1       0.208   1.314  24.191  0.00  0.00    +0.256 C 
ATOM     17  O   UNL     1       0.913   0.889  24.262  0.00  0.00    -0.272 OA
ATOM     18  C   UNL     1      -0.509   0.913  24.116  0.00  0.00    +0.138 C 
ATOM     19  C   UNL     1      -0.693   0.109  24.096  0.00  0.00    +0.048 C 
ATOM     20  C   UNL     1      -1.510   0.036  24.013  0.00  0.00    +0.113 C 
ATOM     21  C   UNL     1      -1.832   0.796  23.981  0.00  0.00    +0.094 C 
ATOM     22  N   UNL     1      -1.213   1.337  24.045  0.00  0.00    -0.265 NA
ENDROOT
BRANCH  20  23
ATOM     23  N   UNL     1      -1.932  -0.671  23.968  0.00  0.00    -0.202 NA
ATOM     24  C   UNL     1      -2.458  -0.877  24.570  0.00  0.00    +0.265 C 
ATOM     25  O   UNL     1      -2.560  -0.374  25.216  0.00  0.00    -0.268 OA
BRANCH  24  26
ATOM     26  C   UNL     1      -2.880  -1.584  24.526  0.00  0.00    +0.055 A 
ATOM     27  C   UNL     1      -3.630  -1.595  24.185  0.00  0.00    +0.005 A 
ATOM     28  C   UNL     1      -4.053  -2.303  24.141  0.00  0.00    +0.000 A 
ATOM     29  C   UNL     1      -3.724  -2.999  24.437  0.00  0.00    +0.000 A 
ATOM     30  C   UNL     1      -2.973  -2.987  24.778  0.00  0.00    +0.000 A 
ATOM     31  C   UNL     1      -2.551  -2.279  24.822  0.00  0.00    +0.005 A 
ENDBRANCH  24  26
ENDBRANCH  20  23
BRANCH  13  12
ATOM     12  C   UNL     1      -1.902   2.587  23.976  0.00  0.00    +0.027 C 
BRANCH  12  11
ATOM     11  C   UNL     1      -2.092   3.167  24.531  0.00  0.00    +0.087 C 
BRANCH  11   9
ATOM      4  C   UNL     1      -3.825   3.880  25.700  0.00  0.00    +0.105 C 
ATOM      5  C   UNL     1      -3.753   4.280  26.418  0.00  0.00    +0.024 C 
ATOM      6  C   UNL     1      -2.949   4.350  26.591  0.00  0.00    +0.023 C 
ATOM      7  C   UNL     1      -2.524   3.994  25.980  0.00  0.00    +0.093 C 
ATOM      8  N   UNL     1      -3.065   3.703  25.429  0.00  0.00    -0.279 N 
ATOM      9  C   UNL     1      -2.881   3.305  24.730  0.00  0.00    +0.226 C 
ATOM     10  O   UNL     1      -3.484   3.045  24.232  0.00  0.00    -0.275 OA
BRANCH   4   3
ATOM      3  C   UNL     1      -4.532   3.690  25.320  0.00  0.00    +0.162 C 
BRANCH   3   2
ATOM      1  C   UNL     1      -5.917   3.367  25.464  0.00  0.00    +0.174 C 
ATOM      2  O   UNL     1      -5.250   3.786  25.714  0.00  0.00    -0.349 OA
ENDBRANCH   3   2
ENDBRANCH   4   3
ENDBRANCH  11   9
ENDBRANCH  12  11
ENDBRANCH  13  12
TORSDOF 7
ENDMDL
MODEL 6
REMARK VINA RESULT:      -9.4      2.089      4.634
REMARK  Name = 
REMARK  7 active torsions:
REMARK  status: ('A' for Active; 'I' for Inactive)
REMARK    1  A    between atoms: O_2  and  C_3
REMARK    2  A    between atoms: C_3  and  C_4
REMARK    3  A    between atoms: C_9  and  C_11
REMARK    4  A    between atoms: C_11  and  C_12
REMARK    5  A    between atoms: C_12  and  C_13
REMARK    6  A    between atoms: C_20  and  N_23
REMARK    7  A    between atoms: C_24  and  C_26
REMARK                            x       y       z     vdW  Elec       q    Type
REMARK                         _______ _______ _______ _____ _____    ______ ____
ROOT
ATOM     13  C   UNL     1      -2.090  -1.523  24.888  0.00  0.00    +0.080 C 
ATOM     14  C   UNL     1      -1.981  -2.287  24.598  0.00  0.00    +0.131 C 
ATOM     15  N   UNL     1      -2.631  -2.733  24.354  0.00  0.00    -0.203 NA
ATOM     16  C   UNL     1      -3.389  -2.414  24.400  0.00  0.00    +0.256 C 
ATOM     17  O   UNL     1      -4.040  -2.861  24.156  0.00  0.00    -0.272 OA
ATOM     18  C   UNL     1      -3.500  -1.650  24.690  0.00  0.00    +0.138 C 
ATOM     19  C   UNL     1      -4.178  -1.193  24.799  0.00  0.00    +0.048 C 
ATOM     20  C   UNL     1      -3.947  -0.465  25.111  0.00  0.00    +0.113 C 
ATOM     21  C   UNL     1      -3.126  -0.472  25.194  0.00  0.00    +0.094 C 
ATOM     22  N   UNL     1      -2.850  -1.204  24.934  0.00  0.00    -0.265 NA
ENDROOT
BRANCH  20  23
ATOM     23  N   UNL     1      -4.449   0.160  25.305  0.00  0.00    -0.202 NA
ATOM     24  C   UNL     1      -4.478   0.831  24.826  0.00  0.00    +0.265 C 
ATOM     25  O   UNL     1      -4.004   0.875  24.152  0.00  0.00    -0.268 OA
BRANCH  24  26
ATOM     26  C   UNL     1      -4.980   1.456  25.020  0.00  0.00    +0.055 A 
ATOM     27  C   UNL     1      -5.797   1.354  24.985  0.00  0.00    +0.005 A 
ATOM     28  C   UNL     1      -6.299   1.980  25.179  0.00  0.00    +0.000 A 
ATOM     29  C   UNL     1      -5.984   2.706  25.409  0.00  0.00    +0.000 A 
ATOM     30  C   UNL     1      -5.166   2.807  25.444  0.00  0.00    +0.000 A 
ATOM     31  C   UNL     1      -4.664   2.182  25.249  0.00  0.00    +0.005 A 
ENDBRANCH  24  26
ENDBRANCH  20  23
BRANCH  13  12
ATOM     12  C   UNL     1      -1.441  -1.077  25.132  0.00  0.00    +0.027 C 
BRANCH  12  11
ATOM     11  C   UNL     1      -0.825  -0.923  24.605  0.00  0.00    +0.087 C 
BRANCH  11   9
ATOM      4  C   UNL     1       0.465   0.731  23.914  0.00  0.00    +0.105 C 
ATOM      5  C   UNL     1       0.941   0.684  23.242  0.00  0.00    +0.024 C 
ATOM      6  C   UNL     1       0.836  -0.064  22.907  0.00  0.00    +0.023 C 
ATOM      7  C   UNL     1       0.296  -0.478  23.374  0.00  0.00    +0.093 C 
ATOM      8  N   UNL     1       0.067   0.013  23.996  0.00  0.00    -0.279 N 
ATOM      9  C   UNL     1      -0.467  -0.179  24.595  0.00  0.00    +0.226 C 
ATOM     10  O   UNL     1      -0.643   0.371  25.183  0.00  0.00    -0.275 OA
BRANCH   4   3
ATOM      3  C   UNL     1       0.400   1.382  24.417  0.00  0.00    +0.162 C 
BRANCH   3   2
ATOM      1  C   UNL     1       0.365   2.806  24.536  0.00  0.00    +0.174 C 
ATOM      2  O   UNL     1       0.648   2.126  24.161  0.00  0.00    -0.349 OA
ENDBRANCH   3   2
ENDBRANCH   4   3
ENDBRANCH  11   9
ENDBRANCH  12  11
ENDBRANCH  13  12
TORSDOF 7
ENDMDL
MODEL 7
REMARK VINA RESULT:      -8.8      2.135      3.636
REMARK  Name = 
REMARK  7 active torsions:
REMARK  status: ('A' for Active; 'I' for Inactive)
REMARK    1  A    between atoms: O_2  and  C_3
REMARK    2  A    between atoms: C_3  and  C_4
REMARK    3  A    between atoms: C_9  and  C_11
REMARK    4  A    between atoms: C_11  and  C_12
REMARK    5  A    between atoms: C_12  and  C_13
REMARK    6  A    between atoms: C_20  and  N_23
REMARK    7  A    between atoms: C_24  and  C_26
REMARK                            x       y       z     vdW  Elec       q    Type
REMARK                         _______ _______ _______ _____ _____    ______ ____
ROOT
ATOM     13  C   UNL     1      -0.612  -0.263  24.596  0.00  0.00    +0.080 C 
ATOM     14  C   UNL     1      -0.222  -0.847  24.164  0.00  0.00    +0.131 C 
ATOM     15  N   UNL     1       0.394  -0.642  23.654  0.00  0.00    -0.203 NA
ATOM     16  C   UNL     1       0.619   0.147  23.577  0.00  0.00    +0.256 C 
ATOM     17  O   UNL     1       1.235   0.353  23.067  0.00  0.00    -0.272 OA
ATOM     18  C   UNL     1       0.229   0.732  24.009  0.00  0.00    +0.138 C 
ATOM     19  C   UNL     1       0.329   1.550  24.046  0.00  0.00    +0.048 C 
ATOM     20  C   UNL     1      -0.225   1.850  24.578  0.00  0.00    +0.113 C 
ATOM     21  C   UNL     1      -0.667   1.218  24.870  0.00  0.00    +0.094 C 
ATOM     22  N   UNL     1      -0.387   0.527  24.518  0.00  0.00    -0.265 NA
ENDROOT
BRANCH  20  23
ATOM     23  N   UNL     1      -0.320   2.644  24.783  0.00  0.00    -0.202 NA
ATOM     24  C   UNL     1      -0.961   3.072  24.490  0.00  0.00    +0.265 C 
ATOM     25  O   UNL     1      -1.507   2.706  23.992  0.00  0.00    -0.268 OA
BRANCH  24  26
ATOM     26  C   UNL     1      -1.057   3.866  24.695  0.00  0.00    +0.055 A 
ATOM     27  C   UNL     1      -0.497   4.422  24.457  0.00  0.00    +0.005 A 
ATOM     28  C   UNL     1      -0.592   5.216  24.662  0.00  0.00    +0.000 A 
ATOM     29  C   UNL     1      -1.247   5.453  25.104  0.00  0.00    +0.000 A 
ATOM     30  C   UNL     1      -1.806   4.895  25.341  0.00  0.00    +0.000 A 
ATOM     31  C   UNL     1      -1.711   4.101  25.137  0.00  0.00    +0.005 A 
ENDBRANCH  24  26
ENDBRANCH  20  23
BRANCH  13  12
ATOM     12  C   UNL     1      -1.227  -0.468  25.104  0.00  0.00    +0.027 C 
BRANCH  12  11
ATOM     11  C   UNL     1      -1.867  -0.908  24.824  0.00  0.00    +0.087 C 
BRANCH  11   9
ATOM      4  C   UNL     1      -4.069  -0.831  24.681  0.00  0.00    +0.105 C 
ATOM      5  C   UNL     1      -4.510  -1.340  24.205  0.00  0.00    +0.024 C 
ATOM      6  C   UNL     1      -3.985  -1.848  23.820  0.00  0.00    +0.023 C 
ATOM      7  C   UNL     1      -3.220  -1.652  24.059  0.00  0.00    +0.093 C 
ATOM      8  N   UNL     1      -3.271  -1.024  24.592  0.00  0.00    -0.279 N 
ATOM      9  C   UNL     1      -2.638  -0.653  24.968  0.00  0.00    +0.226 C 
ATOM     10  O   UNL     1      -2.775  -0.029  25.489  0.00  0.00    -0.275 OA
BRANCH   4   3
ATOM      3  C   UNL     1      -4.372  -0.234  25.163  0.00  0.00    +0.162 C 
BRANCH   3   2
ATOM      1  C   UNL     1      -5.278   0.856  25.344  0.00  0.00    +0.174 C 
ATOM      2  O   UNL     1      -5.048   0.179  24.932  0.00  0.00    -0.349 OA
ENDBRANCH   3   2
ENDBRANCH   4   3
ENDBRANCH  11   9
ENDBRANCH  12  11
ENDBRANCH  13  12
TORSDOF 7
ENDMDL
MODEL 8
REMARK VINA RESULT:      -8.7      2.644      5.074
REMARK  Name = 
REMARK  7 active torsions:
REMARK  status: ('A' for Active; 'I' for Inactive)
REMARK    1  A    between atoms: O_2  and  C_3
REMARK    2  A    between atoms: C_3  and  C_4
REMARK    3  A    between atoms: C_9  and  C_11
REMARK    4  A    between atoms: C_11  and  C_12
REMARK    5  A    between atoms: C_12  and  C_13
REMARK    6  A    between atoms: C_20  and  N_23
REMARK    7  A    between atoms: C_24  and  C_26
REMARK                            x       y       z     vdW  Elec       q    Type
REMARK                         _______ _______ _______ _____ _____    ______ ____
ROOT
ATOM     13  C   UNL     1      -2.348  -0.402  24.850  0.00  0.00    +0.080 C 
ATOM     14  C   UNL     1      -2.893  -1.002  25.005  0.00  0.00    +0.131 C 
ATOM     15  N   UNL     1      -2.670  -1.792  24.930  0.00  0.00    -0.203 NA
ATOM     16  C   UNL     1      -1.902  -1.984  24.700  0.00  0.00    +0.256 C 
ATOM     17  O   UNL     1      -1.679  -2.775  24.625  0.00  0.00    -0.272 OA
ATOM     18  C   UNL     1      -1.356  -1.385  24.545  0.00  0.00    +0.138 C 
ATOM     19  C   UNL     1      -0.566  -1.406  24.310  0.00  0.00    +0.048 C 
ATOM     20  C   UNL     1      -0.300  -0.629  24.241  0.00  0.00    +0.113 C 
ATOM     21  C   UNL     1      -0.926  -0.127  24.432  0.00  0.00    +0.094 C 
ATOM     22  N   UNL     1      -1.579  -0.594  24.620  0.00  0.00    -0.265 NA
ENDROOT
BRANCH  20  23
ATOM     23  N   UNL     1       0.459  -0.393  24.018  0.00  0.00    -0.202 NA
ATOM     24  C   UNL     1       0.597  -0.107  23.257  0.00  0.00    +0.265 C 
ATOM     25  O   UNL     1      -0.026  -0.057  22.718  0.00  0.00    -0.268 OA
BRANCH  24  26
ATOM     26  C   UNL     1       1.356   0.128  23.035  0.00  0.00    +0.055 A 
ATOM     27  C   UNL     1       1.753  -0.275  22.435  0.00  0.00    +0.005 A 
ATOM     28  C   UNL     1       2.511  -0.040  22.213  0.00  0.00    +0.000 A 
ATOM     29  C   UNL     1       2.873   0.598  22.590  0.00  0.00    +0.000 A 
ATOM     30  C   UNL     1       2.475   1.000  23.190  0.00  0.00    +0.000 A 
ATOM     31  C   UNL     1       1.717   0.765  23.413  0.00  0.00    +0.005 A 
ENDBRANCH  24  26
ENDBRANCH  20  23
BRANCH  13  12
ATOM     12  C   UNL     1      -2.571   0.387  24.925  0.00  0.00    +0.027 C 
BRANCH  12  11
ATOM     11  C   UNL     1      -3.368   0.597  24.892  0.00  0.00    +0.087 C 
BRANCH  11   9
ATOM      4  C   UNL     1      -4.692   2.360  25.015  0.00  0.00    +0.105 C 
ATOM      5  C   UNL     1      -5.515   2.309  25.019  0.00  0.00    +0.024 C 
ATOM      6  C   UNL     1      -5.721   1.511  24.972  0.00  0.00    +0.023 C 
ATOM      7  C   UNL     1      -5.025   1.070  24.937  0.00  0.00    +0.093 C 
ATOM      8  N   UNL     1      -4.388   1.594  24.964  0.00  0.00    -0.279 N 
ATOM      9  C   UNL     1      -3.589   1.390  24.943  0.00  0.00    +0.226 C 
ATOM     10  O   UNL     1      -3.012   1.978  24.974  0.00  0.00    -0.275 OA
BRANCH   4   3
ATOM      3  C   UNL     1      -4.249   3.055  25.054  0.00  0.00    +0.162 C 
BRANCH   3   2
ATOM      1  C   UNL     1      -4.179   4.468  25.259  0.00  0.00    +0.174 C 
ATOM      2  O   UNL     1      -4.625   3.776  25.195  0.00  0.00    -0.349 OA
ENDBRANCH   3   2
ENDBRANCH   4   3
ENDBRANCH  11   9
ENDBRANCH  12  11
ENDBRANCH  13  12
TORSDOF 7
ENDMDL
MODEL 9
REMARK VINA RESULT:      -8.3      1.668      3.566
REMARK  Name = 
REMARK  7 active torsions:
REMARK  status: ('A' for Active; 'I' for Inactive)
REMARK    1  A    between atoms: O_2  and  C_3
REMARK    2  A    between atoms: C_3  and  C_4
REMARK    3  A    between atoms: C_9  and  C_11
REMARK    4  A    between atoms: C_11  and  C_12
REMARK    5  A    between atoms: C_12  and  C_13
REMARK    6  A    between atoms: C_20  and  N_23
REMARK    7  A    between atoms: C_24  and  C_26
REMARK                            x       y       z     vdW  Elec       q    Type
REMARK                         _______ _______ _______ _____ _____    ______ ____
ROOT
ATOM     13  C   UNL     1      -0.973   1.588  24.340  0.00  0.00    +0.080 C 
ATOM     14  C   UNL     1      -0.173   1.768  24.251  0.00  0.00    +0.131 C 
ATOM     15  N   UNL     1       0.121   2.490  24.518  0.00  0.00    -0.203 NA
ATOM     16  C   UNL     1      -0.385   3.034  24.876  0.00  0.00    +0.256 C 
ATOM     17  O   UNL     1      -0.091   3.758  25.144  0.00  0.00    -0.272 OA
ATOM     18  C   UNL     1      -1.186   2.856  24.966  0.00  0.00    +0.138 C 
ATOM     19  C   UNL     1      -1.812   3.279  25.295  0.00  0.00    +0.048 C 
ATOM     20  C   UNL     1      -2.493   2.819  25.230  0.00  0.00    +0.113 C 
ATOM     21  C   UNL     1      -2.288   2.110  24.862  0.00  0.00    +0.094 C 
ATOM     22  N   UNL     1      -1.480   2.133  24.699  0.00  0.00    -0.265 NA
ENDROOT
BRANCH  20  23
ATOM     23  N   UNL     1      -3.248   3.030  25.489  0.00  0.00    -0.202 NA
ATOM     24  C   UNL     1      -3.860   3.123  24.944  0.00  0.00    +0.265 C 
ATOM     25  O   UNL     1      -3.717   3.005  24.141  0.00  0.00    -0.268 OA
BRANCH  24  26
ATOM     26  C   UNL     1      -4.615   3.334  25.203  0.00  0.00    +0.055 A 
ATOM     27  C   UNL     1      -5.150   2.750  25.431  0.00  0.00    +0.005 A 
ATOM     28  C   UNL     1      -5.905   2.961  25.690  0.00  0.00    +0.000 A 
ATOM     29  C   UNL     1      -6.124   3.755  25.720  0.00  0.00    +0.000 A 
ATOM     30  C   UNL     1      -5.587   4.339  25.492  0.00  0.00    +0.000 A 
ATOM     31  C   UNL     1      -4.833   4.128  25.233  0.00  0.00    +0.005 A 
ENDBRANCH  24  26
ENDBRANCH  20  23
BRANCH  13  12
ATOM     12  C   UNL     1      -1.267   0.866  24.073  0.00  0.00    +0.027 C 
BRANCH  12  11
ATOM     11  C   UNL     1      -0.976   0.161  24.387  0.00  0.00    +0.087 C 
BRANCH  11   9
ATOM      4  C   UNL     1      -1.557  -1.943  24.724  0.00  0.00    +0.105 C 
ATOM      5  C   UNL     1      -1.079  -2.487  25.119  0.00  0.00    +0.024 C 
ATOM      6  C   UNL     1      -0.385  -2.101  25.344  0.00  0.00    +0.023 C 
ATOM      7  C   UNL     1      -0.435  -1.318  25.089  0.00  0.00    +0.093 C 
ATOM      8  N   UNL     1      -1.159  -1.220  24.705  0.00  0.00    -0.279 N 
ATOM      9  C   UNL     1      -1.438  -0.523  24.363  0.00  0.00    +0.226 C 
ATOM     10  O   UNL     1      -2.176  -0.509  23.997  0.00  0.00    -0.275 OA
BRANCH   4   3
ATOM      3  C   UNL     1      -2.302  -2.095  24.405  0.00  0.00    +0.162 C 
BRANCH   3   2
ATOM      1  C   UNL     1      -3.484  -2.899  24.381  0.00  0.00    +0.174 C 
ATOM      2  O   UNL     1      -2.687  -2.805  24.575  0.00  0.00    -0.349 OA
ENDBRANCH   3   2
ENDBRANCH   4   3
ENDBRANCH  11   9
ENDBRANCH  12  11
ENDBRANCH  13  12
TORSDOF 7
ENDMDL
