REMARK  Name = 
REMARK  6 active torsions:
REMARK  status: ('A' for Active; 'I' for Inactive)
REMARK    1  A    between atoms: N_2  and  C_4
REMARK    2  A    between atoms: C_7  and  C_10
REMARK    3  A    between atoms: C_13  and  C_15
REMARK    4  A    between atoms: N_19  and  C_20
REMARK    5  A    between atoms: C_20  and  C_21
REMARK    6  A    between atoms: C_24  and  C_25
REMARK                            x       y       z     vdW  Elec       q    Type
REMARK                         _______ _______ _______ _____ _____    ______ ____
ROOT
ATOM     10  C   UNL     1       0.715   3.466   0.000  0.00  0.00    +0.205 A 
ATOM     11  N   UNL     1       1.382   2.981   0.000  0.00  0.00    -0.056 NA
ATOM     12  O   UNL     1       1.127   2.196   0.000  0.00  0.00    -0.336 OA
ATOM     13  C   UNL     1       0.302   2.196   0.000  0.00  0.00    +0.251 A 
ATOM     14  N   UNL     1       0.047   2.981   0.000  0.00  0.00    -0.190 NA
ENDROOT
BRANCH  10   7
ATOM      4  C   UNL     1       0.715   5.941   0.000  0.00  0.00    +0.132 A 
ATOM      5  C   UNL     1       1.429   5.529   0.000  0.00  0.00    +0.034 A 
ATOM      6  C   UNL     1       1.429   4.704   0.000  0.00  0.00    +0.008 A 
ATOM      7  C   UNL     1       0.715   4.291   0.000  0.00  0.00    +0.058 A 
ATOM      8  C   UNL     1       0.000   4.704   0.000  0.00  0.00    +0.103 A 
ATOM      9  N   UNL     1       0.000   5.529   0.000  0.00  0.00    -0.229 NA
BRANCH   4   2
ATOM      1  C   UNL     1       0.000   7.179   0.000  0.00  0.00    +0.114 C 
ATOM      2  N   UNL     1       0.715   6.766   0.000  0.00  0.00    -0.290 N 
ATOM      3  C   UNL     1       1.429   7.179   0.000  0.00  0.00    +0.114 C 
ENDBRANCH   4   2
ENDBRANCH  10   7
BRANCH  13  15
ATOM     15  C   UNL     1      -0.183   1.529   0.000  0.00  0.00    +0.138 C 
ATOM     16  C   UNL     1       0.072   0.745   0.000  0.00  0.00    +0.027 C 
ATOM     17  C   UNL     1      -0.596   0.260   0.000  0.00  0.00    +0.019 C 
ATOM     18  C   UNL     1      -1.263   0.745   0.000  0.00  0.00    +0.073 C 
ATOM     19  N   UNL     1      -1.008   1.529   0.000  0.00  0.00    -0.260 NA
BRANCH  19  20
ATOM     20  C   UNL     1      -1.493   2.196   0.000  0.00  0.00    +0.138 C 
BRANCH  20  21
ATOM     21  C   UNL     1      -2.313   2.110   0.000  0.00  0.00    +0.139 A 
ATOM     22  C   UNL     1      -2.726   1.396   0.000  0.00  0.00    +0.037 A 
ATOM     23  C   UNL     1      -3.533   1.567   0.000  0.00  0.00    +0.038 A 
ATOM     24  C   UNL     1      -3.619   2.388   0.000  0.00  0.00    +0.156 A 
ATOM     27  O   UNL     1      -2.865   2.723   0.000  0.00  0.00    -0.458 OA
BRANCH  24  25
ATOM     25  C   UNL     1      -4.333   2.800   0.000  0.00  0.00    +0.246 C 
ATOM     26  O   UNL     1      -5.048   2.388   0.000  0.00  0.00    -0.212 OA
ENDBRANCH  24  25
ENDBRANCH  20  21
ENDBRANCH  19  20
ENDBRANCH  13  15
TORSDOF 6
