MODEL 1
REMARK VINA RESULT:     -15.7      0.000      0.000
REMARK  Name = 
REMARK  4 active torsions:
REMARK  status: ('A' for Active; 'I' for Inactive)
REMARK    1  A    between atoms: C_7  and  N_10
REMARK    2  A    between atoms: C_19  and  C_24
REMARK    3  A    between atoms: C_25  and  C_26
REMARK    4  A    between atoms: C_26  and  N_27
REMARK                            x       y       z     vdW  Elec       q    Type
REMARK                         _______ _______ _______ _____ _____    ______ ____
ROOT
ATOM     10  N   UNL     1      -1.991  -1.323  24.954  0.00  0.00    -0.273 NA
ATOM     11  C   UNL     1      -1.928  -2.125  25.179  0.00  0.00    +0.074 C 
ATOM     12  C   UNL     1      -2.820  -2.446  24.900  0.00  0.00    +0.039 C 
ATOM     13  C   UNL     1      -3.501  -2.860  24.729  0.00  0.00    +0.011 C 
ATOM     14  C   UNL     1      -3.262  -2.204  24.661  0.00  0.00    +0.054 C 
ATOM     15  C   UNL     1      -2.397  -1.909  24.936  0.00  0.00    +0.078 C 
ATOM     16  C   UNL     1      -3.512  -1.374  24.355  0.00  0.00    +0.041 A 
ATOM     17  C   UNL     1      -4.149  -0.987  24.002  0.00  0.00    +0.013 A 
ATOM     18  C   UNL     1      -4.095  -0.183  23.823  0.00  0.00    +0.006 A 
ATOM     19  C   UNL     1      -3.405   0.233  23.998  0.00  0.00    +0.056 A 
ATOM     20  C   UNL     1      -2.768  -0.154  24.350  0.00  0.00    +0.261 A 
ATOM     21  O   UNL     1      -2.407   0.586  24.311  0.00  0.00    -0.267 OA
ATOM     22  N   UNL     1      -2.821  -0.958  24.529  0.00  0.00    -0.299 N 
ATOM     23  C   UNL     1      -3.072  -1.576  24.582  0.00  0.00    +0.110 C 
ENDROOT
BRANCH  10   7
ATOM      1  C   UNL     1      -1.226   2.375  25.129  0.00  0.00    +0.095 C 
ATOM      2  C   UNL     1      -1.117   1.829  24.520  0.00  0.00    +0.226 C 
ATOM      3  O   UNL     1      -0.790   2.072  23.803  0.00  0.00    -0.275 OA
ATOM      4  N   UNL     1      -1.336   1.041  24.628  0.00  0.00    -0.279 N 
ATOM      5  C   UNL     1      -1.227   0.496  24.020  0.00  0.00    +0.095 C 
ATOM      6  C   UNL     1      -1.445  -0.292  24.128  0.00  0.00    +0.038 C 
ATOM      7  C   UNL     1      -1.773  -0.535  24.845  0.00  0.00    +0.061 C 
ATOM      8  C   UNL     1      -1.882   0.010  25.454  0.00  0.00    +0.038 C 
ATOM      9  C   UNL     1      -1.663   0.799  25.346  0.00  0.00    +0.095 C 
ENDBRANCH  10   7
BRANCH  19  24
ATOM     24  C   UNL     1      -3.352   1.036  23.819  0.00  0.00    +0.002 A 
ATOM     25  C   UNL     1      -3.821   1.581  24.224  0.00  0.00    -0.006 A 
ATOM     33  C   UNL     1      -3.767   2.385  24.045  0.00  0.00    -0.003 A 
ATOM     34  C   UNL     1      -3.245   2.643  23.460  0.00  0.00    -0.000 A 
ATOM     35  C   UNL     1      -2.776   2.098  23.056  0.00  0.00    -0.000 A 
ATOM     36  C   UNL     1      -2.830   1.295  23.235  0.00  0.00    -0.000 A 
BRANCH  25  26
ATOM     26  C   UNL     1      -4.343   1.322  24.808  0.00  0.00    +0.099 C 
BRANCH  26  27
ATOM     27  N   UNL     1      -4.913   1.838  25.110  0.00  0.00    -0.265 NA
ATOM     28  C   UNL     1      -4.704   2.396  25.680  0.00  0.00    +0.105 C 
ATOM     29  C   UNL     1      -5.273   2.911  25.981  0.00  0.00    +0.159 C 
ATOM     30  O   UNL     1      -6.052   2.868  25.711  0.00  0.00    -0.351 OA
ATOM     31  C   UNL     1      -6.261   2.310  25.141  0.00  0.00    +0.159 C 
ATOM     32  C   UNL     1      -5.691   1.795  24.840  0.00  0.00    +0.105 C 
ENDBRANCH  26  27
ENDBRANCH  25  26
ENDBRANCH  19  24
TORSDOF 4
ENDMDL
MODEL 2
REMARK VINA RESULT:     -14.7      1.423      3.948
REMARK  Name = 
REMARK  4 active torsions:
REMARK  status: ('A' for Active; 'I' for Inactive)
REMARK    1  A    between atoms: C_7  and  N_10
REMARK    2  A    between atoms: C_19  and  C_24
REMARK    3  A    between atoms: C_25  and  C_26
REMARK    4  A    between atoms: C_26  and  N_27
REMARK                            x       y       z     vdW  Elec       q    Type
REMARK                         _______ _______ _______ _____ _____    ______ ____
ROOT
ATOM     10  N   UNL     1      -4.496   3.190  25.527  0.00  0.00    -0.273 NA
ATOM     11  C   UNL     1      -5.289   3.310  25.759  0.00  0.00    +0.074 C 
ATOM     12  C   UNL     1      -5.710   2.531  25.320  0.00  0.00    +0.039 C 
ATOM     13  C   UNL     1      -6.199   1.950  25.027  0.00  0.00    +0.011 C 
ATOM     14  C   UNL     1      -5.517   2.113  25.006  0.00  0.00    +0.054 C 
ATOM     15  C   UNL     1      -5.126   2.871  25.435  0.00  0.00    +0.078 C 
ATOM     16  C   UNL     1      -4.717   1.822  24.659  0.00  0.00    +0.041 A 
ATOM     17  C   UNL     1      -4.402   1.216  24.197  0.00  0.00    +0.013 A 
ATOM     18  C   UNL     1      -3.594   1.201  24.032  0.00  0.00    +0.006 A 
ATOM     19  C   UNL     1      -3.101   1.792  24.331  0.00  0.00    +0.056 A 
ATOM     20  C   UNL     1      -3.416   2.397  24.794  0.00  0.00    +0.261 A 
ATOM     21  O   UNL     1      -2.636   2.664  24.822  0.00  0.00    -0.267 OA
ATOM     22  N   UNL     1      -4.224   2.412  24.958  0.00  0.00    -0.299 N 
ATOM     23  C   UNL     1      -4.869   2.235  24.963  0.00  0.00    +0.110 C 
ENDROOT
BRANCH  10   7
ATOM      1  C   UNL     1      -0.956   4.186  24.647  0.00  0.00    +0.095 C 
ATOM      2  C   UNL     1      -1.250   3.729  25.267  0.00  0.00    +0.226 C 
ATOM      3  O   UNL     1      -0.732   3.406  25.823  0.00  0.00    -0.275 OA
ATOM      4  N   UNL     1      -2.061   3.594  25.333  0.00  0.00    -0.279 N 
ATOM      5  C   UNL     1      -2.355   3.137  25.952  0.00  0.00    +0.095 C 
ATOM      6  C   UNL     1      -3.166   3.002  26.018  0.00  0.00    +0.038 C 
ATOM      7  C   UNL     1      -3.684   3.325  25.462  0.00  0.00    +0.061 C 
ATOM      8  C   UNL     1      -3.391   3.782  24.842  0.00  0.00    +0.038 C 
ATOM      9  C   UNL     1      -2.579   3.917  24.777  0.00  0.00    +0.095 C 
ENDBRANCH  10   7
BRANCH  19  24
ATOM     24  C   UNL     1      -2.293   1.776  24.166  0.00  0.00    +0.002 A 
ATOM     25  C   UNL     1      -1.824   1.163  24.458  0.00  0.00    -0.006 A 
ATOM     33  C   UNL     1      -1.015   1.148  24.293  0.00  0.00    -0.003 A 
ATOM     34  C   UNL     1      -0.677   1.746  23.836  0.00  0.00    -0.000 A 
ATOM     35  C   UNL     1      -1.146   2.358  23.544  0.00  0.00    -0.000 A 
ATOM     36  C   UNL     1      -1.954   2.373  23.709  0.00  0.00    -0.000 A 
BRANCH  25  26
ATOM     26  C   UNL     1      -2.163   0.566  24.915  0.00  0.00    +0.099 C 
BRANCH  26  27
ATOM     27  N   UNL     1      -1.727  -0.110  25.099  0.00  0.00    -0.265 NA
ATOM     28  C   UNL     1      -1.689  -0.736  24.563  0.00  0.00    +0.105 C 
ATOM     29  C   UNL     1      -1.253  -1.411  24.747  0.00  0.00    +0.159 C 
ATOM     30  O   UNL     1      -0.855  -1.461  25.468  0.00  0.00    -0.351 OA
ATOM     31  C   UNL     1      -0.893  -0.836  26.005  0.00  0.00    +0.159 C 
ATOM     32  C   UNL     1      -1.329  -0.160  25.821  0.00  0.00    +0.105 C 
ENDBRANCH  26  27
ENDBRANCH  25  26
ENDBRANCH  19  24
TORSDOF 4
ENDMDL
MODEL 3
REMARK VINA RESULT:     -14.7      1.664      4.698
REMARK  Name = 
REMARK  4 active torsions:
REMARK  status: ('A' for Active; 'I' for Inactive)
REMARK    1  A    between atoms: C_7  and  N_10
REMARK    2  A    between atoms: C_19  and  C_24
REMARK    3  A    between atoms: C_25  and  C_26
REMARK    4  A    between atoms: C_26  and  N_27
REMARK                            x       y       z     vdW  Elec       q    Type
REMARK                         _______ _______ _______ _____ _____    ______ ____
ROOT
ATOM     10  N   UNL     1      -2.521   4.354  25.267  0.00  0.00    -0.273 NA
ATOM     11  C   UNL     1      -2.178   5.078  25.502  0.00  0.00    +0.074 C 
ATOM     12  C   UNL     1      -1.258   4.942  25.167  0.00  0.00    +0.039 C 
ATOM     13  C   UNL     1      -0.473   4.985  24.954  0.00  0.00    +0.011 C 
ATOM     14  C   UNL     1      -1.001   4.527  24.898  0.00  0.00    +0.054 C 
ATOM     15  C   UNL     1      -1.886   4.673  25.227  0.00  0.00    +0.078 C 
ATOM     16  C   UNL     1      -1.199   3.692  24.569  0.00  0.00    +0.041 A 
ATOM     17  C   UNL     1      -0.848   3.060  24.172  0.00  0.00    +0.013 A 
ATOM     18  C   UNL     1      -1.291   2.388  23.991  0.00  0.00    +0.006 A 
ATOM     19  C   UNL     1      -2.086   2.348  24.208  0.00  0.00    +0.056 A 
ATOM     20  C   UNL     1      -2.438   2.980  24.605  0.00  0.00    +0.261 A 
ATOM     21  O   UNL     1      -3.112   2.505  24.584  0.00  0.00    -0.267 OA
ATOM     22  N   UNL     1      -1.994   3.652  24.785  0.00  0.00    -0.299 N 
ATOM     23  C   UNL     1      -1.474   4.071  24.826  0.00  0.00    +0.110 C 
ENDROOT
BRANCH  10   7
ATOM      1  C   UNL     1      -4.956   1.468  25.461  0.00  0.00    +0.095 C 
ATOM      2  C   UNL     1      -4.827   2.027  24.869  0.00  0.00    +0.226 C 
ATOM      3  O   UNL     1      -5.276   2.004  24.176  0.00  0.00    -0.275 OA
ATOM      4  N   UNL     1      -4.251   2.609  24.968  0.00  0.00    -0.279 N 
ATOM      5  C   UNL     1      -4.122   3.168  24.376  0.00  0.00    +0.095 C 
ATOM      6  C   UNL     1      -3.546   3.749  24.475  0.00  0.00    +0.038 C 
ATOM      7  C   UNL     1      -3.098   3.772  25.168  0.00  0.00    +0.061 C 
ATOM      8  C   UNL     1      -3.226   3.213  25.760  0.00  0.00    +0.038 C 
ATOM      9  C   UNL     1      -3.803   2.631  25.661  0.00  0.00    +0.095 C 
ENDBRANCH  10   7
BRANCH  19  24
ATOM     24  C   UNL     1      -2.529   1.676  24.027  0.00  0.00    +0.002 A 
ATOM     25  C   UNL     1      -2.338   0.951  24.371  0.00  0.00    -0.006 A 
ATOM     33  C   UNL     1      -2.782   0.279  24.189  0.00  0.00    -0.003 A 
ATOM     34  C   UNL     1      -3.416   0.333  23.664  0.00  0.00    -0.000 A 
ATOM     35  C   UNL     1      -3.607   1.058  23.320  0.00  0.00    -0.000 A 
ATOM     36  C   UNL     1      -3.163   1.730  23.502  0.00  0.00    -0.000 A 
BRANCH  25  26
ATOM     26  C   UNL     1      -1.704   0.898  24.896  0.00  0.00    +0.099 C 
BRANCH  26  27
ATOM     27  N   UNL     1      -1.416   0.158  25.120  0.00  0.00    -0.265 NA
ATOM     28  C   UNL     1      -0.869  -0.234  24.643  0.00  0.00    +0.105 C 
ATOM     29  C   UNL     1      -0.581  -0.974  24.867  0.00  0.00    +0.159 C 
ATOM     30  O   UNL     1      -0.841  -1.322  25.569  0.00  0.00    -0.351 OA
ATOM     31  C   UNL     1      -1.388  -0.930  26.046  0.00  0.00    +0.159 C 
ATOM     32  C   UNL     1      -1.676  -0.191  25.822  0.00  0.00    +0.105 C 
ENDBRANCH  26  27
ENDBRANCH  25  26
ENDBRANCH  19  24
TORSDOF 4
ENDMDL
MODEL 4
REMARK VINA RESULT:     -14.1      1.332      4.460
REMARK  Name = 
REMARK  4 active torsions:
REMARK  status: ('A' for Active; 'I' for Inactive)
REMARK    1  A    between atoms: C_7  and  N_10
REMARK    2  A    between atoms: C_19  and  C_24
REMARK    3  A    between atoms: C_25  and  C_26
REMARK    4  A    between atoms: C_26  and  N_27
REMARK                            x       y       z     vdW  Elec       q    Type
REMARK                         _______ _______ _______ _____ _____    ______ ____
ROOT
ATOM     10  N   UNL     1      -4.315   1.594  24.377  0.00  0.00    -0.273 NA
ATOM     11  C   UNL     1      -4.825   2.234  24.209  0.00  0.00    +0.074 C 
ATOM     12  C   UNL     1      -4.219   2.987  24.413  0.00  0.00    +0.039 C 
ATOM     13  C   UNL     1      -3.853   3.704  24.538  0.00  0.00    +0.011 C 
ATOM     14  C   UNL     1      -3.691   3.023  24.590  0.00  0.00    +0.054 C 
ATOM     15  C   UNL     1      -4.289   2.306  24.388  0.00  0.00    +0.078 C 
ATOM     16  C   UNL     1      -3.001   2.462  24.819  0.00  0.00    +0.041 A 
ATOM     17  C   UNL     1      -2.219   2.482  25.081  0.00  0.00    +0.013 A 
ATOM     18  C   UNL     1      -1.811   1.777  25.215  0.00  0.00    +0.006 A 
ATOM     19  C   UNL     1      -2.185   1.053  25.088  0.00  0.00    +0.056 A 
ATOM     20  C   UNL     1      -2.967   1.033  24.827  0.00  0.00    +0.261 A 
ATOM     21  O   UNL     1      -2.866   0.215  24.858  0.00  0.00    -0.267 OA
ATOM     22  N   UNL     1      -3.375   1.737  24.692  0.00  0.00    -0.299 N 
ATOM     23  C   UNL     1      -3.504   2.393  24.651  0.00  0.00    +0.110 C 
ENDROOT
BRANCH  10   7
ATOM      1  C   UNL     1      -3.402  -1.922  25.425  0.00  0.00    +0.095 C 
ATOM      2  C   UNL     1      -3.301  -1.529  24.708  0.00  0.00    +0.226 C 
ATOM      3  O   UNL     1      -2.946  -1.917  24.071  0.00  0.00    -0.275 OA
ATOM      4  N   UNL     1      -3.554  -0.748  24.625  0.00  0.00    -0.279 N 
ATOM      5  C   UNL     1      -3.453  -0.355  23.907  0.00  0.00    +0.095 C 
ATOM      6  C   UNL     1      -3.706   0.425  23.824  0.00  0.00    +0.038 C 
ATOM      7  C   UNL     1      -4.061   0.813  24.460  0.00  0.00    +0.061 C 
ATOM      8  C   UNL     1      -4.163   0.421  25.178  0.00  0.00    +0.038 C 
ATOM      9  C   UNL     1      -3.909  -0.360  25.261  0.00  0.00    +0.095 C 
ENDBRANCH  10   7
BRANCH  19  24
ATOM     24  C   UNL     1      -1.777   0.349  25.223  0.00  0.00    +0.002 A 
ATOM     25  C   UNL     1      -1.130   0.151  24.752  0.00  0.00    -0.006 A 
ATOM     33  C   UNL     1      -0.721  -0.554  24.887  0.00  0.00    -0.003 A 
ATOM     34  C   UNL     1      -0.961  -1.059  25.494  0.00  0.00    -0.000 A 
ATOM     35  C   UNL     1      -1.608  -0.860  25.965  0.00  0.00    -0.000 A 
ATOM     36  C   UNL     1      -2.016  -0.156  25.830  0.00  0.00    -0.000 A 
BRANCH  25  26
ATOM     26  C   UNL     1      -0.891   0.656  24.145  0.00  0.00    +0.099 C 
BRANCH  26  27
ATOM     27  N   UNL     1      -0.156   0.549  23.785  0.00  0.00    -0.265 NA
ATOM     28  C   UNL     1      -0.063  -0.022  23.197  0.00  0.00    +0.105 C 
ATOM     29  C   UNL     1       0.671  -0.128  22.837  0.00  0.00    +0.159 C 
ATOM     30  O   UNL     1       1.314   0.337  23.066  0.00  0.00    -0.351 OA
ATOM     31  C   UNL     1       1.221   0.908  23.654  0.00  0.00    +0.159 C 
ATOM     32  C   UNL     1       0.487   1.014  24.014  0.00  0.00    +0.105 C 
ENDBRANCH  26  27
ENDBRANCH  25  26
ENDBRANCH  19  24
TORSDOF 4
ENDMDL
MODEL 5
REMARK VINA RESULT:     -13.6      1.005      2.904
REMARK  Name = 
REMARK  4 active torsions:
REMARK  status: ('A' for Active; 'I' for Inactive)
REMARK    1  A    between atoms: C_7  and  N_10
REMARK    2  A    between atoms: C_19  and  C_24
REMARK    3  A    between atoms: C_25  and  C_26
REMARK    4  A    between atoms: C_26  and  N_27
REMARK                            x       y       z     vdW  Elec       q    Type
REMARK                         _______ _______ _______ _____ _____    ______ ____
ROOT
ATOM     10  N   UNL     1      -3.664  -1.537  24.960  0.00  0.00    -0.273 NA
ATOM     11  C   UNL     1      -3.686  -2.359  25.108  0.00  0.00    +0.074 C 
ATOM     12  C   UNL     1      -2.779  -2.606  24.803  0.00  0.00    +0.039 C 
ATOM     13  C   UNL     1      -2.078  -2.967  24.597  0.00  0.00    +0.011 C 
ATOM     14  C   UNL     1      -2.350  -2.320  24.591  0.00  0.00    +0.054 C 
ATOM     15  C   UNL     1      -3.229  -2.097  24.889  0.00  0.00    +0.078 C 
ATOM     16  C   UNL     1      -2.143  -1.453  24.364  0.00  0.00    +0.041 A 
ATOM     17  C   UNL     1      -1.527  -1.003  24.052  0.00  0.00    +0.013 A 
ATOM     18  C   UNL     1      -1.622  -0.190  23.950  0.00  0.00    +0.006 A 
ATOM     19  C   UNL     1      -2.333   0.173  24.160  0.00  0.00    +0.056 A 
ATOM     20  C   UNL     1      -2.949  -0.278  24.473  0.00  0.00    +0.261 A 
ATOM     21  O   UNL     1      -3.347   0.444  24.502  0.00  0.00    -0.267 OA
ATOM     22  N   UNL     1      -2.854  -1.091  24.575  0.00  0.00    -0.299 N 
ATOM     23  C   UNL     1      -2.572  -1.698  24.570  0.00  0.00    +0.110 C 
ENDROOT
BRANCH  10   7
ATOM      1  C   UNL     1      -4.616   2.085  25.480  0.00  0.00    +0.095 C 
ATOM      2  C   UNL     1      -4.698   1.594  24.823  0.00  0.00    +0.226 C 
ATOM      3  O   UNL     1      -5.040   1.886  24.130  0.00  0.00    -0.275 OA
ATOM      4  N   UNL     1      -4.440   0.812  24.856  0.00  0.00    -0.279 N 
ATOM      5  C   UNL     1      -4.523   0.320  24.200  0.00  0.00    +0.095 C 
ATOM      6  C   UNL     1      -4.265  -0.462  24.233  0.00  0.00    +0.038 C 
ATOM      7  C   UNL     1      -3.923  -0.754  24.926  0.00  0.00    +0.061 C 
ATOM      8  C   UNL     1      -3.839  -0.263  25.583  0.00  0.00    +0.038 C 
ATOM      9  C   UNL     1      -4.098   0.520  25.549  0.00  0.00    +0.095 C 
ENDBRANCH  10   7
BRANCH  19  24
ATOM     24  C   UNL     1      -2.427   0.986  24.058  0.00  0.00    +0.002 A 
ATOM     25  C   UNL     1      -1.968   1.513  24.495  0.00  0.00    -0.006 A 
ATOM     33  C   UNL     1      -2.062   2.327  24.392  0.00  0.00    -0.003 A 
ATOM     34  C   UNL     1      -2.617   2.611  23.852  0.00  0.00    -0.000 A 
ATOM     35  C   UNL     1      -3.076   2.084  23.415  0.00  0.00    -0.000 A 
ATOM     36  C   UNL     1      -2.982   1.271  23.518  0.00  0.00    -0.000 A 
BRANCH  25  26
ATOM     26  C   UNL     1      -1.413   1.227  25.035  0.00  0.00    +0.099 C 
BRANCH  26  27
ATOM     27  N   UNL     1      -0.832   1.730  25.335  0.00  0.00    -0.265 NA
ATOM     28  C   UNL     1      -0.152   1.884  24.894  0.00  0.00    +0.105 C 
ATOM     29  C   UNL     1       0.429   2.387  25.193  0.00  0.00    +0.159 C 
ATOM     30  O   UNL     1       0.330   2.737  25.934  0.00  0.00    -0.351 OA
ATOM     31  C   UNL     1      -0.350   2.583  26.375  0.00  0.00    +0.159 C 
ATOM     32  C   UNL     1      -0.931   2.080  26.076  0.00  0.00    +0.105 C 
ENDBRANCH  26  27
ENDBRANCH  25  26
ENDBRANCH  19  24
TORSDOF 4
ENDMDL
MODEL 6
REMARK VINA RESULT:     -13.4      1.418      3.652
REMARK  Name = 
REMARK  4 active torsions:
REMARK  status: ('A' for Active; 'I' for Inactive)
REMARK    1  A    between atoms: C_7  and  N_10
REMARK    2  A    between atoms: C_19  and  C_24
REMARK    3  A    between atoms: C_25  and  C_26
REMARK    4  A    between atoms: C_26  and  N_27
REMARK                            x       y       z     vdW  Elec       q    Type
REMARK                         _______ _______ _______ _____ _____    ______ ____
ROOT
ATOM     10  N   UNL     1      -3.889  -0.805  24.168  0.00  0.00    -0.273 NA
ATOM     11  C   UNL     1      -4.458  -1.404  24.040  0.00  0.00    +0.074 C 
ATOM     12  C   UNL     1      -3.929  -2.195  24.304  0.00  0.00    +0.039 C 
ATOM     13  C   UNL     1      -3.634  -2.933  24.482  0.00  0.00    +0.011 C 
ATOM     14  C   UNL     1      -3.408  -2.269  24.488  0.00  0.00    +0.054 C 
ATOM     15  C   UNL     1      -3.932  -1.514  24.229  0.00  0.00    +0.078 C 
ATOM     16  C   UNL     1      -2.667  -1.761  24.683  0.00  0.00    +0.041 A 
ATOM     17  C   UNL     1      -1.891  -1.838  24.954  0.00  0.00    +0.013 A 
ATOM     18  C   UNL     1      -1.418  -1.168  25.042  0.00  0.00    +0.006 A 
ATOM     19  C   UNL     1      -1.719  -0.422  24.860  0.00  0.00    +0.056 A 
ATOM     20  C   UNL     1      -2.495  -0.346  24.589  0.00  0.00    +0.261 A 
ATOM     21  O   UNL     1      -2.315   0.459  24.564  0.00  0.00    -0.267 OA
ATOM     22  N   UNL     1      -2.969  -1.015  24.501  0.00  0.00    -0.299 N 
ATOM     23  C   UNL     1      -3.160  -1.657  24.506  0.00  0.00    +0.110 C 
ENDROOT
BRANCH  10   7
ATOM      1  C   UNL     1      -2.632   2.667  24.977  0.00  0.00    +0.095 C 
ATOM      2  C   UNL     1      -2.578   2.221  24.285  0.00  0.00    +0.226 C 
ATOM      3  O   UNL     1      -2.197   2.532  23.622  0.00  0.00    -0.275 OA
ATOM      4  N   UNL     1      -2.906   1.465  24.255  0.00  0.00    -0.279 N 
ATOM      5  C   UNL     1      -2.852   1.018  23.564  0.00  0.00    +0.095 C 
ATOM      6  C   UNL     1      -3.180   0.262  23.534  0.00  0.00    +0.038 C 
ATOM      7  C   UNL     1      -3.561  -0.049  24.197  0.00  0.00    +0.061 C 
ATOM      8  C   UNL     1      -3.615   0.397  24.889  0.00  0.00    +0.038 C 
ATOM      9  C   UNL     1      -3.287   1.154  24.918  0.00  0.00    +0.095 C 
ENDBRANCH  10   7
BRANCH  19  24
ATOM     24  C   UNL     1      -1.245   0.247  24.948  0.00  0.00    +0.002 A 
ATOM     25  C   UNL     1      -0.585   0.351  24.465  0.00  0.00    -0.006 A 
ATOM     33  C   UNL     1      -0.110   1.021  24.554  0.00  0.00    -0.003 A 
ATOM     34  C   UNL     1      -0.298   1.585  25.126  0.00  0.00    -0.000 A 
ATOM     35  C   UNL     1      -0.958   1.481  25.609  0.00  0.00    -0.000 A 
ATOM     36  C   UNL     1      -1.432   0.811  25.520  0.00  0.00    -0.000 A 
BRANCH  25  26
ATOM     26  C   UNL     1      -0.398  -0.213  23.893  0.00  0.00    +0.099 C 
BRANCH  26  27
ATOM     27  N   UNL     1       0.313  -0.159  23.477  0.00  0.00    -0.265 NA
ATOM     28  C   UNL     1       1.020  -0.385  23.837  0.00  0.00    +0.105 C 
ATOM     29  C   UNL     1       1.730  -0.330  23.421  0.00  0.00    +0.159 C 
ATOM     30  O   UNL     1       1.733  -0.051  22.645  0.00  0.00    -0.351 OA
ATOM     31  C   UNL     1       1.026   0.174  22.285  0.00  0.00    +0.159 C 
ATOM     32  C   UNL     1       0.315   0.120  22.701  0.00  0.00    +0.105 C 
ENDBRANCH  26  27
ENDBRANCH  25  26
ENDBRANCH  19  24
TORSDOF 4
ENDMDL
MODEL 7
REMARK VINA RESULT:     -13.3      1.244      3.944
REMARK  Name = 
REMARK  4 active torsions:
REMARK  status: ('A' for Active; 'I' for Inactive)
REMARK    1  A    between atoms: C_7  and  N_10
REMARK    2  A    between atoms: C_19  and  C_24
REMARK    3  A    between atoms: C_25  and  C_26
REMARK    4  A    between atoms: C_26  and  N_27
REMARK                            x       y       z     vdW  Elec       q    Type
REMARK                         _______ _______ _______ _____ _____    ______ ____
ROOT
ATOM     10  N   UNL     1      -5.234   1.398  25.381  0.00  0.00    -0.273 NA
ATOM     11  C   UNL     1      -5.953   1.668  25.710  0.00  0.00    +0.074 C 
ATOM     12  C   UNL     1      -5.837   2.641  25.585  0.00  0.00    +0.039 C 
ATOM     13  C   UNL     1      -5.894   3.453  25.555  0.00  0.00    +0.011 C 
ATOM     14  C   UNL     1      -5.433   2.958  25.367  0.00  0.00    +0.054 C 
ATOM     15  C   UNL     1      -5.560   2.021  25.495  0.00  0.00    +0.078 C 
ATOM     16  C   UNL     1      -4.609   2.853  24.975  0.00  0.00    +0.041 A 
ATOM     17  C   UNL     1      -3.995   3.295  24.646  0.00  0.00    +0.013 A 
ATOM     18  C   UNL     1      -3.326   2.914  24.348  0.00  0.00    +0.006 A 
ATOM     19  C   UNL     1      -3.272   2.092  24.380  0.00  0.00    +0.056 A 
ATOM     20  C   UNL     1      -3.885   1.650  24.709  0.00  0.00    +0.261 A 
ATOM     21  O   UNL     1      -3.406   1.006  24.522  0.00  0.00    -0.267 OA
ATOM     22  N   UNL     1      -4.554   2.031  25.006  0.00  0.00    -0.299 N 
ATOM     23  C   UNL     1      -4.976   2.521  25.176  0.00  0.00    +0.110 C 
ENDROOT
BRANCH  10   7
ATOM      1  C   UNL     1      -2.329  -0.981  24.932  0.00  0.00    +0.095 C 
ATOM      2  C   UNL     1      -2.902  -0.722  24.400  0.00  0.00    +0.226 C 
ATOM      3  O   UNL     1      -2.893  -0.994  23.620  0.00  0.00    -0.275 OA
ATOM      4  N   UNL     1      -3.485  -0.192  24.644  0.00  0.00    -0.279 N 
ATOM      5  C   UNL     1      -4.059   0.066  24.111  0.00  0.00    +0.095 C 
ATOM      6  C   UNL     1      -4.641   0.596  24.356  0.00  0.00    +0.038 C 
ATOM      7  C   UNL     1      -4.651   0.868  25.135  0.00  0.00    +0.061 C 
ATOM      8  C   UNL     1      -4.077   0.610  25.669  0.00  0.00    +0.038 C 
ATOM      9  C   UNL     1      -3.494   0.079  25.424  0.00  0.00    +0.095 C 
ENDBRANCH  10   7
BRANCH  19  24
ATOM     24  C   UNL     1      -2.603   1.712  24.083  0.00  0.00    +0.002 A 
ATOM     25  C   UNL     1      -1.872   1.814  24.451  0.00  0.00    -0.006 A 
ATOM     33  C   UNL     1      -1.202   1.434  24.152  0.00  0.00    -0.003 A 
ATOM     34  C   UNL     1      -1.266   0.951  23.486  0.00  0.00    -0.000 A 
ATOM     35  C   UNL     1      -1.997   0.849  23.118  0.00  0.00    -0.000 A 
ATOM     36  C   UNL     1      -2.665   1.229  23.416  0.00  0.00    -0.000 A 
BRANCH  25  26
ATOM     26  C   UNL     1      -1.809   2.297  25.117  0.00  0.00    +0.099 C 
BRANCH  26  27
ATOM     27  N   UNL     1      -1.065   2.485  25.421  0.00  0.00    -0.265 NA
ATOM     28  C   UNL     1      -0.641   3.121  25.112  0.00  0.00    +0.105 C 
ATOM     29  C   UNL     1       0.102   3.309  25.416  0.00  0.00    +0.159 C 
ATOM     30  O   UNL     1       0.421   2.860  26.031  0.00  0.00    -0.351 OA
ATOM     31  C   UNL     1      -0.003   2.224  26.341  0.00  0.00    +0.159 C 
ATOM     32  C   UNL     1      -0.746   2.036  26.036  0.00  0.00    +0.105 C 
ENDBRANCH  26  27
ENDBRANCH  25  26
ENDBRANCH  19  24
TORSDOF 4
ENDMDL
