REMARK  Name = 
REMARK  4 active torsions:
REMARK  status: ('A' for Active; 'I' for Inactive)
REMARK    1  A    between atoms: C_7  and  C_8
REMARK    2  A    between atoms: C_18  and  C_20
REMARK    3  A    between atoms: C_20  and  O_21
REMARK    4  A    between atoms: O_21  and  C_22
REMARK                            x       y       z     vdW  Elec       q    Type
REMARK                         _______ _______ _______ _____ _____    ______ ____
ROOT
ATOM      8  C   UNL     1      -1.296  -1.150   0.000  0.00  0.00    +0.056 A 
ATOM      9  C   UNL     1      -1.167  -0.335   0.000  0.00  0.00    +0.006 A 
ATOM     10  C   UNL     1      -0.397  -0.039   0.000  0.00  0.00    +0.013 A 
ATOM     11  C   UNL     1       0.244  -0.558   0.000  0.00  0.00    +0.041 A 
ATOM     12  C   UNL     1       1.163  -0.557   0.000  0.00  0.00    +0.058 C 
ATOM     13  C   UNL     1       1.713  -0.121   0.000  0.00  0.00    +0.011 C 
ATOM     14  C   UNL     1       1.582  -0.925   0.000  0.00  0.00    +0.043 C 
ATOM     15  C   UNL     1       1.629  -1.912   0.000  0.00  0.00    +0.095 C 
ATOM     16  N   UNL     1       0.813  -2.091   0.000  0.00  0.00    -0.276 N 
ATOM     17  C   UNL     1       1.225  -1.510   0.000  0.00  0.00    +0.099 C 
ATOM     18  C   UNL     1       0.125  -2.547   0.000  0.00  0.00    +0.270 C 
ATOM     19  O   UNL     1      -0.614  -2.179   0.000  0.00  0.00    -0.271 OA
ATOM     28  C   UNL     1       0.622  -0.936   0.000  0.00  0.00    +0.110 C 
ATOM     29  N   UNL     1       0.115  -1.373   0.000  0.00  0.00    -0.299 N 
ATOM     30  C   UNL     1      -0.655  -1.669   0.000  0.00  0.00    +0.261 A 
ATOM     31  O   UNL     1      -1.029  -2.404   0.000  0.00  0.00    -0.267 OA
ENDROOT
BRANCH   8   7
ATOM      1  C   UNL     1      -2.578  -0.111   0.000  0.00  0.00    +0.031 C 
ATOM      2  C   UNL     1      -2.707  -0.926   0.000  0.00  0.00    -0.022 A 
ATOM      3  C   UNL     1      -3.478  -1.222   0.000  0.00  0.00    -0.004 A 
ATOM      4  C   UNL     1      -3.606  -2.037   0.000  0.00  0.00    -0.000 A 
ATOM      5  C   UNL     1      -2.965  -2.556   0.000  0.00  0.00    -0.000 A 
ATOM      6  C   UNL     1      -2.195  -2.260   0.000  0.00  0.00    -0.000 A 
ATOM      7  C   UNL     1      -2.066  -1.445   0.000  0.00  0.00    +0.001 A 
ENDBRANCH   8   7
BRANCH  18  20
ATOM     20  C   UNL     1       0.176  -3.370   0.000  0.00  0.00    +0.290 C 
BRANCH  20  21
ATOM     21  O   UNL     1       0.914  -3.738   0.000  0.00  0.00    -0.466 OA
BRANCH  21  22
ATOM     22  C   UNL     1       0.965  -4.562   0.000  0.00  0.00    +0.139 A 
ATOM     23  C   UNL     1       1.703  -4.929   0.000  0.00  0.00    +0.037 A 
ATOM     24  C   UNL     1       1.754  -5.753   0.000  0.00  0.00    +0.003 A 
ATOM     25  C   UNL     1       1.066  -6.209   0.000  0.00  0.00    +0.000 A 
ATOM     26  C   UNL     1       0.328  -5.841   0.000  0.00  0.00    +0.003 A 
ATOM     27  C   UNL     1       0.277  -5.017   0.000  0.00  0.00    +0.037 A 
ENDBRANCH  21  22
ENDBRANCH  20  21
ENDBRANCH  18  20
TORSDOF 4
