MODEL 1
REMARK VINA RESULT:      -9.2      0.000      0.000
REMARK  Name = 
REMARK  10 active torsions:
REMARK  status: ('A' for Active; 'I' for Inactive)
REMARK    1  A    between atoms: O_2  and  C_3
REMARK    2  A    between atoms: C_5  and  O_6
REMARK    3  A    between atoms: C_9  and  N_10
REMARK    4  A    between atoms: N_13  and  C_14
REMARK    5  A    between atoms: C_14  and  C_15
REMARK    6  A    between atoms: C_17  and  C_18
REMARK    7  A    between atoms: C_22  and  N_23
REMARK    8  A    between atoms: N_23  and  C_25
REMARK    9  A    between atoms: C_25  and  C_26
REMARK   10  A    between atoms: C_26  and  C_27
REMARK                            x       y       z     vdW  Elec       q    Type
REMARK                         _______ _______ _______ _____ _____    ______ ____
ROOT
ATOM     15  C   UNL     1      -4.744   1.913  25.160  0.00  0.00    +0.154 C 
ATOM     16  O   UNL     1      -5.379   1.808  25.676  0.00  0.00    -0.350 OA
ATOM     17  C   UNL     1      -5.706   2.549  25.830  0.00  0.00    +0.180 C 
ATOM     20  C   UNL     1      -5.273   3.113  25.409  0.00  0.00    +0.198 C 
ATOM     21  O   UNL     1      -5.410   3.925  25.405  0.00  0.00    -0.219 OA
ATOM     22  C   UNL     1      -4.678   2.719  24.995  0.00  0.00    +0.120 C 
ENDROOT
BRANCH  17  18
ATOM     18  C   UNL     1      -6.353   2.702  26.319  0.00  0.00    +0.214 C 
ATOM     19  O   UNL     1      -6.542   2.179  26.928  0.00  0.00    -0.218 OA
ENDBRANCH  17  18
BRANCH  22  23
ATOM     23  N   UNL     1      -4.116   3.069  24.503  0.00  0.00    -0.268 NA
ATOM     24  C   UNL     1      -4.267   3.147  23.695  0.00  0.00    +0.090 C 
BRANCH  23  25
ATOM     25  C   UNL     1      -3.404   3.341  24.817  0.00  0.00    +0.079 C 
BRANCH  25  26
ATOM     26  C   UNL     1      -2.843   3.692  24.324  0.00  0.00    +0.063 C 
BRANCH  26  27
ATOM     27  C   UNL     1      -2.102   3.896  24.622  0.00  0.00    +0.060 A 
ATOM     28  N   UNL     1      -1.483   3.351  24.597  0.00  0.00    -0.248 NA
ATOM     29  C   UNL     1      -0.741   3.555  24.895  0.00  0.00    +0.098 A 
ATOM     30  C   UNL     1      -0.618   4.304  25.218  0.00  0.00    +0.021 A 
ATOM     31  C   UNL     1      -1.237   4.849  25.243  0.00  0.00    +0.003 A 
ATOM     32  C   UNL     1      -1.978   4.645  24.945  0.00  0.00    +0.015 A 
ENDBRANCH  26  27
ENDBRANCH  25  26
ENDBRANCH  23  25
ENDBRANCH  22  23
BRANCH  15  14
ATOM     14  C   UNL     1      -4.259   1.315  24.861  0.00  0.00    +0.148 C 
BRANCH  14  13
ATOM     10  N   UNL     1      -3.490  -0.635  25.467  0.00  0.00    -0.161 NA
ATOM     11  C   UNL     1      -3.680   0.016  24.998  0.00  0.00    +0.344 C 
ATOM     12  O   UNL     1      -3.479   0.021  24.197  0.00  0.00    -0.249 OA
ATOM     13  N   UNL     1      -4.070   0.664  25.329  0.00  0.00    -0.184 NA
BRANCH  10   9
ATOM      3  C   UNL     1      -1.893  -1.906  24.693  0.00  0.00    +0.143 A 
ATOM      4  C   UNL     1      -2.319  -2.576  24.474  0.00  0.00    +0.074 A 
ATOM      5  C   UNL     1      -3.137  -2.600  24.586  0.00  0.00    +0.143 A 
ATOM      8  C   UNL     1      -3.527  -1.953  24.917  0.00  0.00    +0.054 A 
ATOM      9  C   UNL     1      -3.101  -1.282  25.136  0.00  0.00    +0.081 A 
ATOM     33  C   UNL     1      -2.283  -1.258  25.024  0.00  0.00    +0.054 A 
BRANCH   3   2
ATOM      1  C   UNL     1      -0.574  -1.788  25.228  0.00  0.00    +0.252 C 
ATOM      2  O   UNL     1      -1.076  -1.882  24.581  0.00  0.00    -0.471 OA
ENDBRANCH   3   2
BRANCH   5   6
ATOM      6  O   UNL     1      -3.564  -3.272  24.367  0.00  0.00    -0.471 OA
ATOM      7  C   UNL     1      -4.040  -3.256  23.694  0.00  0.00    +0.252 C 
ENDBRANCH   5   6
ENDBRANCH  10   9
ENDBRANCH  14  13
ENDBRANCH  15  14
TORSDOF 10
ENDMDL
MODEL 2
REMARK VINA RESULT:      -9.1      1.869      6.393
REMARK  Name = 
REMARK  10 active torsions:
REMARK  status: ('A' for Active; 'I' for Inactive)
REMARK    1  A    between atoms: O_2  and  C_3
REMARK    2  A    between atoms: C_5  and  O_6
REMARK    3  A    between atoms: C_9  and  N_10
REMARK    4  A    between atoms: N_13  and  C_14
REMARK    5  A    between atoms: C_14  and  C_15
REMARK    6  A    between atoms: C_17  and  C_18
REMARK    7  A    between atoms: C_22  and  N_23
REMARK    8  A    between atoms: N_23  and  C_25
REMARK    9  A    between atoms: C_25  and  C_26
REMARK   10  A    between atoms: C_26  and  C_27
REMARK                            x       y       z     vdW  Elec       q    Type
REMARK                         _______ _______ _______ _____ _____    ______ ____
ROOT
ATOM     15  C   UNL     1      -0.396   0.297  24.289  0.00  0.00    +0.154 C 
ATOM     16  O   UNL     1       0.203   0.512  23.762  0.00  0.00    -0.350 OA
ATOM     17  C   UNL     1       0.531  -0.180  23.454  0.00  0.00    +0.180 C 
ATOM     20  C   UNL     1       0.135  -0.822  23.791  0.00  0.00    +0.198 C 
ATOM     21  O   UNL     1       0.286  -1.618  23.638  0.00  0.00    -0.219 OA
ATOM     22  C   UNL     1      -0.437  -0.527  24.306  0.00  0.00    +0.120 C 
ENDROOT
BRANCH  17  18
ATOM     18  C   UNL     1       1.146  -0.223  22.906  0.00  0.00    +0.214 C 
ATOM     19  O   UNL     1       1.666   0.411  22.819  0.00  0.00    -0.218 OA
ENDBRANCH  17  18
BRANCH  22  23
ATOM     23  N   UNL     1      -0.959  -0.976  24.760  0.00  0.00    -0.268 NA
ATOM     24  C   UNL     1      -0.762  -1.180  25.535  0.00  0.00    +0.090 C 
BRANCH  23  25
ATOM     25  C   UNL     1      -1.679  -1.222  24.440  0.00  0.00    +0.079 C 
BRANCH  25  26
ATOM     26  C   UNL     1      -2.218  -1.636  24.907  0.00  0.00    +0.063 C 
BRANCH  26  27
ATOM     27  C   UNL     1      -2.943  -1.871  24.591  0.00  0.00    +0.060 A 
ATOM     28  N   UNL     1      -3.504  -1.303  24.380  0.00  0.00    -0.248 NA
ATOM     29  C   UNL     1      -4.229  -1.538  24.064  0.00  0.00    +0.098 A 
ATOM     30  C   UNL     1      -4.393  -2.339  23.960  0.00  0.00    +0.021 A 
ATOM     31  C   UNL     1      -3.832  -2.906  24.171  0.00  0.00    +0.003 A 
ATOM     32  C   UNL     1      -3.108  -2.671  24.487  0.00  0.00    +0.015 A 
ENDBRANCH  26  27
ENDBRANCH  25  26
ENDBRANCH  23  25
ENDBRANCH  22  23
BRANCH  15  14
ATOM     14  C   UNL     1      -0.869   0.817  24.721  0.00  0.00    +0.148 C 
BRANCH  14  13
ATOM     10  N   UNL     1      -1.934   2.696  24.412  0.00  0.00    -0.161 NA
ATOM     11  C   UNL     1      -1.563   2.064  24.790  0.00  0.00    +0.344 C 
ATOM     12  O   UNL     1      -1.515   2.045  25.614  0.00  0.00    -0.249 OA
ATOM     13  N   UNL     1      -1.240   1.449  24.344  0.00  0.00    -0.184 NA
BRANCH  10   9
ATOM      3  C   UNL     1      -3.341   3.851  25.617  0.00  0.00    +0.143 A 
ATOM      4  C   UNL     1      -2.905   4.538  25.750  0.00  0.00    +0.074 A 
ATOM      5  C   UNL     1      -2.145   4.612  25.436  0.00  0.00    +0.143 A 
ATOM      8  C   UNL     1      -1.822   3.998  24.991  0.00  0.00    +0.054 A 
ATOM      9  C   UNL     1      -2.257   3.310  24.858  0.00  0.00    +0.081 A 
ATOM     33  C   UNL     1      -3.018   3.237  25.171  0.00  0.00    +0.054 A 
BRANCH   3   2
ATOM      1  C   UNL     1      -4.754   3.761  25.427  0.00  0.00    +0.252 C 
ATOM      2  O   UNL     1      -4.101   3.778  25.930  0.00  0.00    -0.471 OA
ENDBRANCH   3   2
BRANCH   5   6
ATOM      6  O   UNL     1      -1.709   5.300  25.569  0.00  0.00    -0.471 OA
ATOM      7  C   UNL     1      -1.300   5.655  24.947  0.00  0.00    +0.252 C 
ENDBRANCH   5   6
ENDBRANCH  10   9
ENDBRANCH  14  13
ENDBRANCH  15  14
TORSDOF 10
ENDMDL
MODEL 3
REMARK VINA RESULT:      -8.6      1.798      6.016
REMARK  Name = 
REMARK  10 active torsions:
REMARK  status: ('A' for Active; 'I' for Inactive)
REMARK    1  A    between atoms: O_2  and  C_3
REMARK    2  A    between atoms: C_5  and  O_6
REMARK    3  A    between atoms: C_9  and  N_10
REMARK    4  A    between atoms: N_13  and  C_14
REMARK    5  A    between atoms: C_14  and  C_15
REMARK    6  A    between atoms: C_17  and  C_18
REMARK    7  A    between atoms: C_22  and  N_23
REMARK    8  A    between atoms: N_23  and  C_25
REMARK    9  A    between atoms: C_25  and  C_26
REMARK   10  A    between atoms: C_26  and  C_27
REMARK                            x       y       z     vdW  Elec       q    Type
REMARK                         _______ _______ _______ _____ _____    ______ ____
ROOT
ATOM     15  C   UNL     1      -0.567   0.389  24.248  0.00  0.00    +0.154 C 
ATOM     16  O   UNL     1       0.012   0.682  23.739  0.00  0.00    -0.350 OA
ATOM     17  C   UNL     1       0.460   0.044  23.468  0.00  0.00    +0.180 C 
ATOM     20  C   UNL     1       0.157  -0.644  23.809  0.00  0.00    +0.198 C 
ATOM     21  O   UNL     1       0.439  -1.409  23.689  0.00  0.00    -0.219 OA
ATOM     22  C   UNL     1      -0.478  -0.431  24.291  0.00  0.00    +0.120 C 
ENDROOT
BRANCH  17  18
ATOM     18  C   UNL     1       1.098   0.086  22.946  0.00  0.00    +0.214 C 
ATOM     19  O   UNL     1       1.655   0.689  23.024  0.00  0.00    -0.218 OA
ENDBRANCH  17  18
BRANCH  22  23
ATOM     23  N   UNL     1      -0.942  -0.946  24.739  0.00  0.00    -0.268 NA
ATOM     24  C   UNL     1      -0.723  -1.130  25.513  0.00  0.00    +0.090 C 
BRANCH  23  25
ATOM     25  C   UNL     1      -1.623  -1.276  24.413  0.00  0.00    +0.079 C 
BRANCH  25  26
ATOM     26  C   UNL     1      -2.114  -1.751  24.876  0.00  0.00    +0.063 C 
BRANCH  26  27
ATOM     27  C   UNL     1      -2.840  -2.007  24.581  0.00  0.00    +0.060 A 
ATOM     28  N   UNL     1      -3.415  -1.455  24.367  0.00  0.00    -0.248 NA
ATOM     29  C   UNL     1      -4.142  -1.711  24.071  0.00  0.00    +0.098 A 
ATOM     30  C   UNL     1      -4.292  -2.518  23.990  0.00  0.00    +0.021 A 
ATOM     31  C   UNL     1      -3.717  -3.069  24.204  0.00  0.00    +0.003 A 
ATOM     32  C   UNL     1      -2.991  -2.813  24.500  0.00  0.00    +0.015 A 
ENDBRANCH  26  27
ENDBRANCH  25  26
ENDBRANCH  23  25
ENDBRANCH  22  23
BRANCH  15  14
ATOM     14  C   UNL     1      -1.136   0.837  24.644  0.00  0.00    +0.148 C 
BRANCH  14  13
ATOM     10  N   UNL     1      -2.514   2.477  24.229  0.00  0.00    -0.161 NA
ATOM     11  C   UNL     1      -2.151   1.841  24.609  0.00  0.00    +0.344 C 
ATOM     12  O   UNL     1      -2.441   1.574  25.335  0.00  0.00    -0.249 OA
ATOM     13  N   UNL     1      -1.499   1.472  24.264  0.00  0.00    -0.184 NA
BRANCH  10   9
ATOM      3  C   UNL     1      -3.709   3.862  25.420  0.00  0.00    +0.143 A 
ATOM      4  C   UNL     1      -4.470   3.585  25.264  0.00  0.00    +0.074 A 
ATOM      5  C   UNL     1      -4.579   2.938  24.763  0.00  0.00    +0.143 A 
ATOM      8  C   UNL     1      -3.928   2.569  24.418  0.00  0.00    +0.054 A 
ATOM      9  C   UNL     1      -3.166   2.846  24.574  0.00  0.00    +0.081 A 
ATOM     33  C   UNL     1      -3.057   3.493  25.075  0.00  0.00    +0.054 A 
BRANCH   3   2
ATOM      1  C   UNL     1      -3.225   4.407  26.648  0.00  0.00    +0.252 C 
ATOM      2  O   UNL     1      -3.600   4.508  25.921  0.00  0.00    -0.471 OA
ENDBRANCH   3   2
BRANCH   5   6
ATOM      6  O   UNL     1      -5.341   2.661  24.607  0.00  0.00    -0.471 OA
ATOM      7  C   UNL     1      -5.743   2.218  25.176  0.00  0.00    +0.252 C 
ENDBRANCH   5   6
ENDBRANCH  10   9
ENDBRANCH  14  13
ENDBRANCH  15  14
TORSDOF 10
ENDMDL
MODEL 4
REMARK VINA RESULT:      -8.0      1.665      5.274
REMARK  Name = 
REMARK  10 active torsions:
REMARK  status: ('A' for Active; 'I' for Inactive)
REMARK    1  A    between atoms: O_2  and  C_3
REMARK    2  A    between atoms: C_5  and  O_6
REMARK    3  A    between atoms: C_9  and  N_10
REMARK    4  A    between atoms: N_13  and  C_14
REMARK    5  A    between atoms: C_14  and  C_15
REMARK    6  A    between atoms: C_17  and  C_18
REMARK    7  A    between atoms: C_22  and  N_23
REMARK    8  A    between atoms: N_23  and  C_25
REMARK    9  A    between atoms: C_25  and  C_26
REMARK   10  A    between atoms: C_26  and  C_27
REMARK                            x       y       z     vdW  Elec       q    Type
REMARK                         _______ _______ _______ _____ _____    ______ ____
ROOT
ATOM     15  C   UNL     1      -3.262  -1.067  24.785  0.00  0.00    +0.154 C 
ATOM     16  O   UNL     1      -3.887  -1.522  24.496  0.00  0.00    -0.350 OA
ATOM     17  C   UNL     1      -3.591  -2.268  24.305  0.00  0.00    +0.180 C 
ATOM     20  C   UNL     1      -2.783  -2.274  24.476  0.00  0.00    +0.198 C 
ATOM     21  O   UNL     1      -2.270  -2.911  24.369  0.00  0.00    -0.219 OA
ATOM     22  C   UNL     1      -2.580  -1.532  24.772  0.00  0.00    +0.120 C 
ENDROOT
BRANCH  17  18
ATOM     18  C   UNL     1      -4.026  -2.898  23.997  0.00  0.00    +0.214 C 
ATOM     19  O   UNL     1      -4.723  -2.754  23.581  0.00  0.00    -0.218 OA
ENDBRANCH  17  18
BRANCH  22  23
ATOM     23  N   UNL     1      -1.828  -1.295  25.014  0.00  0.00    -0.268 NA
ATOM     24  C   UNL     1      -1.597  -1.396  25.800  0.00  0.00    +0.090 C 
BRANCH  23  25
ATOM     25  C   UNL     1      -1.306  -0.959  24.471  0.00  0.00    +0.079 C 
BRANCH  25  26
ATOM     26  C   UNL     1      -0.573  -0.676  24.723  0.00  0.00    +0.063 C 
BRANCH  26  27
ATOM     27  C   UNL     1      -0.104  -0.231  24.212  0.00  0.00    +0.060 A 
ATOM     28  N   UNL     1       0.337  -0.607  23.625  0.00  0.00    -0.248 NA
ATOM     29  C   UNL     1       0.807  -0.162  23.113  0.00  0.00    +0.098 A 
ATOM     30  C   UNL     1       0.835   0.659  23.189  0.00  0.00    +0.021 A 
ATOM     31  C   UNL     1       0.395   1.035  23.777  0.00  0.00    +0.003 A 
ATOM     32  C   UNL     1      -0.075   0.589  24.288  0.00  0.00    +0.015 A 
ENDBRANCH  26  27
ENDBRANCH  25  26
ENDBRANCH  23  25
ENDBRANCH  22  23
BRANCH  15  14
ATOM     14  C   UNL     1      -3.311  -0.284  25.041  0.00  0.00    +0.148 C 
BRANCH  14  13
ATOM     10  N   UNL     1      -4.297   1.579  24.476  0.00  0.00    -0.161 NA
ATOM     11  C   UNL     1      -3.820   1.042  24.880  0.00  0.00    +0.344 C 
ATOM     12  O   UNL     1      -3.374   1.292  25.528  0.00  0.00    -0.249 OA
ATOM     13  N   UNL     1      -3.788   0.254  24.637  0.00  0.00    -0.184 NA
BRANCH  10   9
ATOM      3  C   UNL     1      -4.984   3.415  25.435  0.00  0.00    +0.143 A 
ATOM      4  C   UNL     1      -4.393   3.942  25.206  0.00  0.00    +0.074 A 
ATOM      5  C   UNL     1      -3.768   3.681  24.733  0.00  0.00    +0.143 A 
ATOM      8  C   UNL     1      -3.736   2.894  24.490  0.00  0.00    +0.054 A 
ATOM      9  C   UNL     1      -4.328   2.366  24.719  0.00  0.00    +0.081 A 
ATOM     33  C   UNL     1      -4.953   2.627  25.192  0.00  0.00    +0.054 A 
BRANCH   3   2
ATOM      1  C   UNL     1      -6.141   4.234  25.615  0.00  0.00    +0.252 C 
ATOM      2  O   UNL     1      -5.609   3.676  25.907  0.00  0.00    -0.471 OA
ENDBRANCH   3   2
BRANCH   5   6
ATOM      6  O   UNL     1      -3.176   4.208  24.504  0.00  0.00    -0.471 OA
ATOM      7  C   UNL     1      -2.542   4.360  25.010  0.00  0.00    +0.252 C 
ENDBRANCH   5   6
ENDBRANCH  10   9
ENDBRANCH  14  13
ENDBRANCH  15  14
TORSDOF 10
ENDMDL
MODEL 5
REMARK VINA RESULT:      -7.8      1.551      3.189
REMARK  Name = 
REMARK  10 active torsions:
REMARK  status: ('A' for Active; 'I' for Inactive)
REMARK    1  A    between atoms: O_2  and  C_3
REMARK    2  A    between atoms: C_5  and  O_6
REMARK    3  A    between atoms: C_9  and  N_10
REMARK    4  A    between atoms: N_13  and  C_14
REMARK    5  A    between atoms: C_14  and  C_15
REMARK    6  A    between atoms: C_17  and  C_18
REMARK    7  A    between atoms: C_22  and  N_23
REMARK    8  A    between atoms: N_23  and  C_25
REMARK    9  A    between atoms: C_25  and  C_26
REMARK   10  A    between atoms: C_26  and  C_27
REMARK                            x       y       z     vdW  Elec       q    Type
REMARK                         _______ _______ _______ _____ _____    ______ ____
ROOT
ATOM     15  C   UNL     1      -2.126   2.658  24.685  0.00  0.00    +0.154 C 
ATOM     16  O   UNL     1      -1.384   2.899  24.952  0.00  0.00    -0.350 OA
ATOM     17  C   UNL     1      -1.416   3.712  25.092  0.00  0.00    +0.180 C 
ATOM     20  C   UNL     1      -2.178   3.972  24.911  0.00  0.00    +0.198 C 
ATOM     21  O   UNL     1      -2.453   4.747  24.972  0.00  0.00    -0.219 OA
ATOM     22  C   UNL     1      -2.617   3.321  24.660  0.00  0.00    +0.120 C 
ENDROOT
BRANCH  17  18
ATOM     18  C   UNL     1      -0.795   4.182  25.364  0.00  0.00    +0.214 C 
ATOM     19  O   UNL     1      -0.031   3.875  25.402  0.00  0.00    -0.218 OA
ENDBRANCH  17  18
BRANCH  22  23
ATOM     23  N   UNL     1      -3.408   3.329  24.425  0.00  0.00    -0.268 NA
ATOM     24  C   UNL     1      -3.603   3.506  23.642  0.00  0.00    +0.090 C 
BRANCH  23  25
ATOM     25  C   UNL     1      -4.003   3.162  24.971  0.00  0.00    +0.079 C 
BRANCH  25  26
ATOM     26  C   UNL     1      -4.789   3.121  24.724  0.00  0.00    +0.063 C 
BRANCH  26  27
ATOM     27  C   UNL     1      -5.340   2.697  25.168  0.00  0.00    +0.060 A 
ATOM     28  N   UNL     1      -5.476   2.900  25.957  0.00  0.00    -0.248 NA
ATOM     29  C   UNL     1      -6.027   2.476  26.402  0.00  0.00    +0.098 A 
ATOM     30  C   UNL     1      -6.441   1.850  26.058  0.00  0.00    +0.021 A 
ATOM     31  C   UNL     1      -6.304   1.648  25.270  0.00  0.00    +0.003 A 
ATOM     32  C   UNL     1      -5.754   2.072  24.826  0.00  0.00    +0.015 A 
ENDBRANCH  26  27
ENDBRANCH  25  26
ENDBRANCH  23  25
ENDBRANCH  22  23
BRANCH  15  14
ATOM     14  C   UNL     1      -2.340   1.887  24.479  0.00  0.00    +0.148 C 
BRANCH  14  13
ATOM     10  N   UNL     1      -2.219  -0.127  25.310  0.00  0.00    -0.161 NA
ATOM     11  C   UNL     1      -2.327   0.489  24.773  0.00  0.00    +0.344 C 
ATOM     12  O   UNL     1      -2.533   0.323  23.990  0.00  0.00    -0.249 OA
ATOM     13  N   UNL     1      -2.231   1.271  25.016  0.00  0.00    -0.184 NA
BRANCH  10   9
ATOM      3  C   UNL     1      -1.750  -2.152  24.643  0.00  0.00    +0.143 A 
ATOM      4  C   UNL     1      -2.506  -2.474  24.578  0.00  0.00    +0.074 A 
ATOM      5  C   UNL     1      -3.168  -2.013  24.757  0.00  0.00    +0.143 A 
ATOM      8  C   UNL     1      -3.072  -1.231  25.001  0.00  0.00    +0.054 A 
ATOM      9  C   UNL     1      -2.315  -0.909  25.066  0.00  0.00    +0.081 A 
ATOM     33  C   UNL     1      -1.653  -1.370  24.887  0.00  0.00    +0.054 A 
BRANCH   3   2
ATOM      1  C   UNL     1      -0.456  -2.646  24.990  0.00  0.00    +0.252 C 
ATOM      2  O   UNL     1      -1.089  -2.612  24.464  0.00  0.00    -0.471 OA
ENDBRANCH   3   2
BRANCH   5   6
ATOM      6  O   UNL     1      -3.924  -2.335  24.692  0.00  0.00    -0.471 OA
ATOM      7  C   UNL     1      -4.229  -2.524  23.949  0.00  0.00    +0.252 C 
ENDBRANCH   5   6
ENDBRANCH  10   9
ENDBRANCH  14  13
ENDBRANCH  15  14
TORSDOF 10
ENDMDL
MODEL 6
REMARK VINA RESULT:      -7.3      2.037      3.914
REMARK  Name = 
REMARK  10 active torsions:
REMARK  status: ('A' for Active; 'I' for Inactive)
REMARK    1  A    between atoms: O_2  and  C_3
REMARK    2  A    between atoms: C_5  and  O_6
REMARK    3  A    between atoms: C_9  and  N_10
REMARK    4  A    between atoms: N_13  and  C_14
REMARK    5  A    between atoms: C_14  and  C_15
REMARK    6  A    between atoms: C_17  and  C_18
REMARK    7  A    between atoms: C_22  and  N_23
REMARK    8  A    between atoms: N_23  and  C_25
REMARK    9  A    between atoms: C_25  and  C_26
REMARK   10  A    between atoms: C_26  and  C_27
REMARK                            x       y       z     vdW  Elec       q    Type
REMARK                         _______ _______ _______ _____ _____    ______ ____
ROOT
ATOM     15  C   UNL     1      -1.900   3.532  25.381  0.00  0.00    +0.154 C 
ATOM     16  O   UNL     1      -1.272   3.949  25.045  0.00  0.00    -0.350 OA
ATOM     17  C   UNL     1      -1.446   4.754  25.093  0.00  0.00    +0.180 C 
ATOM     20  C   UNL     1      -2.182   4.835  25.458  0.00  0.00    +0.198 C 
ATOM     21  O   UNL     1      -2.569   5.546  25.617  0.00  0.00    -0.219 OA
ATOM     22  C   UNL     1      -2.463   4.080  25.636  0.00  0.00    +0.120 C 
ENDROOT
BRANCH  17  18
ATOM     18  C   UNL     1      -0.968   5.371  24.823  0.00  0.00    +0.214 C 
ATOM     19  O   UNL     1      -0.214   5.210  24.531  0.00  0.00    -0.218 OA
ENDBRANCH  17  18
BRANCH  22  23
ATOM     23  N   UNL     1      -3.180   3.903  26.004  0.00  0.00    -0.268 NA
ATOM     24  C   UNL     1      -3.270   4.033  26.814  0.00  0.00    +0.090 C 
BRANCH  23  25
ATOM     25  C   UNL     1      -3.805   3.596  25.563  0.00  0.00    +0.079 C 
BRANCH  25  26
ATOM     26  C   UNL     1      -4.564   3.569  25.887  0.00  0.00    +0.063 C 
BRANCH  26  27
ATOM     27  C   UNL     1      -5.099   2.994  25.637  0.00  0.00    +0.060 A 
ATOM     28  N   UNL     1      -5.661   2.697  26.164  0.00  0.00    -0.248 NA
ATOM     29  C   UNL     1      -6.197   2.122  25.914  0.00  0.00    +0.098 A 
ATOM     30  C   UNL     1      -6.172   1.845  25.137  0.00  0.00    +0.021 A 
ATOM     31  C   UNL     1      -5.610   2.142  24.611  0.00  0.00    +0.003 A 
ATOM     32  C   UNL     1      -5.075   2.717  24.861  0.00  0.00    +0.015 A 
ENDBRANCH  26  27
ENDBRANCH  25  26
ENDBRANCH  23  25
ENDBRANCH  22  23
BRANCH  15  14
ATOM     14  C   UNL     1      -1.956   2.712  25.449  0.00  0.00    +0.148 C 
BRANCH  14  13
ATOM     10  N   UNL     1      -0.516   1.086  25.235  0.00  0.00    -0.161 NA
ATOM     11  C   UNL     1      -1.198   1.540  25.142  0.00  0.00    +0.344 C 
ATOM     12  O   UNL     1      -1.806   1.275  24.650  0.00  0.00    -0.249 OA
ATOM     13  N   UNL     1      -1.274   2.258  25.542  0.00  0.00    -0.184 NA
BRANCH  10   9
ATOM      3  C   UNL     1      -0.659  -1.043  24.775  0.00  0.00    +0.143 A 
ATOM      4  C   UNL     1      -0.290  -1.069  24.038  0.00  0.00    +0.074 A 
ATOM      5  C   UNL     1       0.004  -0.375  23.699  0.00  0.00    +0.143 A 
ATOM      8  C   UNL     1      -0.071   0.342  24.098  0.00  0.00    +0.054 A 
ATOM      9  C   UNL     1      -0.441   0.369  24.836  0.00  0.00    +0.081 A 
ATOM     33  C   UNL     1      -0.735  -0.325  25.175  0.00  0.00    +0.054 A 
BRANCH   3   2
ATOM      1  C   UNL     1      -1.610  -2.109  24.784  0.00  0.00    +0.252 C 
ATOM      2  O   UNL     1      -0.953  -1.736  25.114  0.00  0.00    -0.471 OA
ENDBRANCH   3   2
BRANCH   5   6
ATOM      6  O   UNL     1       0.373  -0.401  22.962  0.00  0.00    -0.471 OA
ATOM      7  C   UNL     1       1.171  -0.206  22.894  0.00  0.00    +0.252 C 
ENDBRANCH   5   6
ENDBRANCH  10   9
ENDBRANCH  14  13
ENDBRANCH  15  14
TORSDOF 10
ENDMDL
MODEL 7
REMARK VINA RESULT:      -5.3      1.841      4.606
REMARK  Name = 
REMARK  10 active torsions:
REMARK  status: ('A' for Active; 'I' for Inactive)
REMARK    1  A    between atoms: O_2  and  C_3
REMARK    2  A    between atoms: C_5  and  O_6
REMARK    3  A    between atoms: C_9  and  N_10
REMARK    4  A    between atoms: N_13  and  C_14
REMARK    5  A    between atoms: C_14  and  C_15
REMARK    6  A    between atoms: C_17  and  C_18
REMARK    7  A    between atoms: C_22  and  N_23
REMARK    8  A    between atoms: N_23  and  C_25
REMARK    9  A    between atoms: C_25  and  C_26
REMARK   10  A    between atoms: C_26  and  C_27
REMARK                            x       y       z     vdW  Elec       q    Type
REMARK                         _______ _______ _______ _____ _____    ______ ____
ROOT
ATOM     15  C   UNL     1      -4.202   1.869  25.023  0.00  0.00    +0.154 C 
ATOM     16  O   UNL     1      -4.532   2.512  25.421  0.00  0.00    -0.350 OA
ATOM     17  C   UNL     1      -5.352   2.432  25.397  0.00  0.00    +0.180 C 
ATOM     20  C   UNL     1      -5.530   1.739  24.984  0.00  0.00    +0.198 C 
ATOM     21  O   UNL     1      -6.285   1.447  24.830  0.00  0.00    -0.219 OA
ATOM     22  C   UNL     1      -4.818   1.391  24.753  0.00  0.00    +0.120 C 
ENDROOT
BRANCH  17  18
ATOM     18  C   UNL     1      -5.901   2.953  25.728  0.00  0.00    +0.214 C 
ATOM     19  O   UNL     1      -5.793   3.232  26.496  0.00  0.00    -0.218 OA
ENDBRANCH  17  18
BRANCH  22  23
ATOM     23  N   UNL     1      -4.737   0.689  24.327  0.00  0.00    -0.268 NA
ATOM     24  C   UNL     1      -4.885   0.681  23.515  0.00  0.00    +0.090 C 
BRANCH  23  25
ATOM     25  C   UNL     1      -4.508  -0.003  24.712  0.00  0.00    +0.079 C 
BRANCH  25  26
ATOM     26  C   UNL     1      -4.566  -0.729  24.323  0.00  0.00    +0.063 C 
BRANCH  26  27
ATOM     27  C   UNL     1      -4.128  -1.375  24.589  0.00  0.00    +0.060 A 
ATOM     28  N   UNL     1      -3.835  -1.385  25.361  0.00  0.00    -0.248 NA
ATOM     29  C   UNL     1      -3.397  -2.032  25.627  0.00  0.00    +0.098 A 
ATOM     30  C   UNL     1      -3.252  -2.667  25.121  0.00  0.00    +0.021 A 
ATOM     31  C   UNL     1      -3.545  -2.657  24.350  0.00  0.00    +0.003 A 
ATOM     32  C   UNL     1      -3.982  -2.011  24.085  0.00  0.00    +0.015 A 
ENDBRANCH  26  27
ENDBRANCH  25  26
ENDBRANCH  23  25
ENDBRANCH  22  23
BRANCH  15  14
ATOM     14  C   UNL     1      -3.396   1.728  24.915  0.00  0.00    +0.148 C 
BRANCH  14  13
ATOM     10  N   UNL     1      -1.509   2.795  25.165  0.00  0.00    -0.161 NA
ATOM     11  C   UNL     1      -2.050   2.179  25.082  0.00  0.00    +0.344 C 
ATOM     12  O   UNL     1      -1.788   1.396  25.083  0.00  0.00    -0.249 OA
ATOM     13  N   UNL     1      -2.854   2.344  24.998  0.00  0.00    -0.184 NA
BRANCH  10   9
ATOM      3  C   UNL     1       0.566   2.338  24.665  0.00  0.00    +0.143 A 
ATOM      4  C   UNL     1       0.903   2.299  25.416  0.00  0.00    +0.074 A 
ATOM      5  C   UNL     1       0.435   2.426  26.085  0.00  0.00    +0.143 A 
ATOM      8  C   UNL     1      -0.368   2.591  26.001  0.00  0.00    +0.054 A 
ATOM      9  C   UNL     1      -0.705   2.630  25.249  0.00  0.00    +0.081 A 
ATOM     33  C   UNL     1      -0.238   2.503  24.580  0.00  0.00    +0.054 A 
BRANCH   3   2
ATOM      1  C   UNL     1       1.144   1.446  23.710  0.00  0.00    +0.252 C 
ATOM      2  O   UNL     1       1.033   2.211  23.997  0.00  0.00    -0.471 OA
ENDBRANCH   3   2
BRANCH   5   6
ATOM      6  O   UNL     1       0.773   2.388  26.837  0.00  0.00    -0.471 OA
ATOM      7  C   UNL     1       0.467   2.848  27.450  0.00  0.00    +0.252 C 
ENDBRANCH   5   6
ENDBRANCH  10   9
ENDBRANCH  14  13
ENDBRANCH  15  14
TORSDOF 10
ENDMDL
