MODEL 1
REMARK VINA RESULT:      -8.7      0.000      0.000
REMARK  Name = 
REMARK  5 active torsions:
REMARK  status: ('A' for Active; 'I' for Inactive)
REMARK    1  A    between atoms: C_2  and  N_3
REMARK    2  A    between atoms: N_6  and  C_7
REMARK    3  A    between atoms: C_11  and  N_15
REMARK    4  A    between atoms: C_18  and  C_22
REMARK    5  A    between atoms: C_25  and  O_26
REMARK                            x       y       z     vdW  Elec       q    Type
REMARK                         _______ _______ _______ _____ _____    ______ ____
ROOT
ATOM     15  N   UNL     1      -1.441   1.146  24.732  0.00  0.00    -0.200 NA
ATOM     16  C   UNL     1      -2.147   1.311  24.338  0.00  0.00    +0.237 A 
ATOM     17  N   UNL     1      -2.752   1.714  24.726  0.00  0.00    -0.212 NA
ATOM     18  C   UNL     1      -3.459   1.879  24.332  0.00  0.00    +0.086 A 
ATOM     19  C   UNL     1      -3.559   1.640  23.549  0.00  0.00    +0.040 A 
ATOM     20  C   UNL     1      -2.954   1.236  23.160  0.00  0.00    +0.103 A 
ATOM     21  N   UNL     1      -2.248   1.072  23.555  0.00  0.00    -0.211 NA
ENDROOT
BRANCH  15  11
ATOM      7  C   UNL     1       1.066   0.772  23.551  0.00  0.00    +0.156 C 
ATOM      8  C   UNL     1       1.090   1.557  23.802  0.00  0.00    +0.166 C 
ATOM      9  O   UNL     1       0.369   1.731  24.163  0.00  0.00    -0.350 OA
ATOM     10  C   UNL     1      -0.100   1.055  24.136  0.00  0.00    +0.166 C 
ATOM     11  C   UNL     1      -0.836   0.743  24.342  0.00  0.00    +0.154 C 
ATOM     12  C   UNL     1      -0.860  -0.043  24.092  0.00  0.00    +0.166 C 
ATOM     13  O   UNL     1      -0.139  -0.217  23.730  0.00  0.00    -0.350 OA
ATOM     14  C   UNL     1       0.330   0.461  23.758  0.00  0.00    +0.166 C 
BRANCH   7   6
ATOM      3  N   UNL     1       3.015   0.320  22.679  0.00  0.00    -0.187 NA
ATOM      4  C   UNL     1       2.410   0.723  23.068  0.00  0.00    +0.339 C 
ATOM      5  O   UNL     1       2.543   1.483  23.363  0.00  0.00    -0.249 OA
ATOM      6  N   UNL     1       1.671   0.368  23.162  0.00  0.00    -0.184 NA
BRANCH   3   2
ATOM      1  C   UNL     1       4.441   0.225  22.661  0.00  0.00    +0.025 C 
ATOM      2  C   UNL     1       3.754   0.675  22.585  0.00  0.00    +0.117 C 
ENDBRANCH   3   2
ENDBRANCH   7   6
ENDBRANCH  15  11
BRANCH  18  22
ATOM     22  C   UNL     1      -4.064   2.282  24.721  0.00  0.00    +0.018 A 
ATOM     23  C   UNL     1      -4.006   3.098  24.840  0.00  0.00    +0.005 A 
ATOM     24  C   UNL     1      -4.611   3.501  25.228  0.00  0.00    +0.037 A 
ATOM     25  C   UNL     1      -5.274   3.091  25.499  0.00  0.00    +0.139 A 
ATOM     28  C   UNL     1      -5.331   2.277  25.380  0.00  0.00    +0.037 A 
ATOM     29  C   UNL     1      -4.726   1.873  24.991  0.00  0.00    +0.005 A 
BRANCH  25  26
ATOM     26  O   UNL     1      -5.879   3.495  25.887  0.00  0.00    -0.471 OA
ATOM     27  C   UNL     1      -6.061   4.270  25.673  0.00  0.00    +0.252 C 
ENDBRANCH  25  26
ENDBRANCH  18  22
TORSDOF 5
ENDMDL
MODEL 2
REMARK VINA RESULT:      -8.0      1.275      6.757
REMARK  Name = 
REMARK  5 active torsions:
REMARK  status: ('A' for Active; 'I' for Inactive)
REMARK    1  A    between atoms: C_2  and  N_3
REMARK    2  A    between atoms: N_6  and  C_7
REMARK    3  A    between atoms: C_11  and  N_15
REMARK    4  A    between atoms: C_18  and  C_22
REMARK    5  A    between atoms: C_25  and  O_26
REMARK                            x       y       z     vdW  Elec       q    Type
REMARK                         _______ _______ _______ _____ _____    ______ ____
ROOT
ATOM     15  N   UNL     1       0.299   0.944  24.090  0.00  0.00    -0.200 NA
ATOM     16  C   UNL     1       0.740   0.544  23.519  0.00  0.00    +0.237 A 
ATOM     17  N   UNL     1       1.562   0.597  23.519  0.00  0.00    -0.212 NA
ATOM     18  C   UNL     1       2.003   0.197  22.947  0.00  0.00    +0.086 A 
ATOM     19  C   UNL     1       1.619  -0.257  22.375  0.00  0.00    +0.040 A 
ATOM     20  C   UNL     1       0.795  -0.310  22.374  0.00  0.00    +0.103 A 
ATOM     21  N   UNL     1       0.356   0.090  22.946  0.00  0.00    -0.211 NA
ENDROOT
BRANCH  15  11
ATOM      7  C   UNL     1      -2.344   1.855  24.055  0.00  0.00    +0.156 C 
ATOM      8  C   UNL     1      -1.904   2.552  24.035  0.00  0.00    +0.166 C 
ATOM      9  O   UNL     1      -1.105   2.348  24.043  0.00  0.00    -0.350 OA
ATOM     10  C   UNL     1      -1.051   1.526  24.069  0.00  0.00    +0.166 C 
ATOM     11  C   UNL     1      -0.524   0.891  24.090  0.00  0.00    +0.154 C 
ATOM     12  C   UNL     1      -0.965   0.194  24.110  0.00  0.00    +0.166 C 
ATOM     13  O   UNL     1      -1.764   0.398  24.102  0.00  0.00    -0.350 OA
ATOM     14  C   UNL     1      -1.817   1.221  24.076  0.00  0.00    +0.166 C 
BRANCH   7   6
ATOM      3  N   UNL     1      -4.434   2.210  24.574  0.00  0.00    -0.187 NA
ATOM      4  C   UNL     1      -3.612   2.263  24.574  0.00  0.00    +0.339 C 
ATOM      5  O   UNL     1      -3.231   2.779  25.095  0.00  0.00    -0.249 OA
ATOM      6  N   UNL     1      -3.168   1.801  24.054  0.00  0.00    -0.184 NA
BRANCH   3   2
ATOM      1  C   UNL     1      -5.679   2.510  25.209  0.00  0.00    +0.025 C 
ATOM      2  C   UNL     1      -4.879   2.672  25.093  0.00  0.00    +0.117 C 
ENDBRANCH   3   2
ENDBRANCH   7   6
ENDBRANCH  15  11
BRANCH  18  22
ATOM     22  C   UNL     1       2.825   0.250  22.948  0.00  0.00    +0.018 A 
ATOM     23  C   UNL     1       3.281  -0.394  23.194  0.00  0.00    +0.005 A 
ATOM     24  C   UNL     1       4.103  -0.340  23.195  0.00  0.00    +0.037 A 
ATOM     25  C   UNL     1       4.472   0.355  22.949  0.00  0.00    +0.139 A 
ATOM     28  C   UNL     1       4.018   0.998  22.703  0.00  0.00    +0.037 A 
ATOM     29  C   UNL     1       3.194   0.945  22.703  0.00  0.00    +0.005 A 
BRANCH  25  26
ATOM     26  O   UNL     1       5.295   0.409  22.950  0.00  0.00    -0.471 OA
ATOM     27  C   UNL     1       5.730   0.062  23.559  0.00  0.00    +0.252 C 
ENDBRANCH  25  26
ENDBRANCH  18  22
TORSDOF 5
ENDMDL
MODEL 3
REMARK VINA RESULT:      -7.8      2.578      3.282
REMARK  Name = 
REMARK  5 active torsions:
REMARK  status: ('A' for Active; 'I' for Inactive)
REMARK    1  A    between atoms: C_2  and  N_3
REMARK    2  A    between atoms: N_6  and  C_7
REMARK    3  A    between atoms: C_11  and  N_15
REMARK    4  A    between atoms: C_18  and  C_22
REMARK    5  A    between atoms: C_25  and  O_26
REMARK                            x       y       z     vdW  Elec       q    Type
REMARK                         _______ _______ _______ _____ _____    ______ ____
ROOT
ATOM     15  N   UNL     1      -0.214   0.232  23.367  0.00  0.00    -0.200 NA
ATOM     16  C   UNL     1      -0.647  -0.007  24.027  0.00  0.00    +0.237 A 
ATOM     17  N   UNL     1      -1.389  -0.354  23.930  0.00  0.00    -0.212 NA
ATOM     18  C   UNL     1      -1.822  -0.593  24.591  0.00  0.00    +0.086 A 
ATOM     19  C   UNL     1      -1.513  -0.485  25.348  0.00  0.00    +0.040 A 
ATOM     20  C   UNL     1      -0.770  -0.138  25.445  0.00  0.00    +0.103 A 
ATOM     21  N   UNL     1      -0.338   0.101  24.784  0.00  0.00    -0.211 NA
ENDROOT
BRANCH  15  11
ATOM      7  C   UNL     1       2.529   0.605  22.975  0.00  0.00    +0.156 C 
ATOM      8  C   UNL     1       2.355  -0.039  22.490  0.00  0.00    +0.166 C 
ATOM      9  O   UNL     1       1.549  -0.200  22.562  0.00  0.00    -0.350 OA
ATOM     10  C   UNL     1       1.226   0.343  23.091  0.00  0.00    +0.166 C 
ATOM     11  C   UNL     1       0.528   0.579  23.463  0.00  0.00    +0.154 C 
ATOM     12  C   UNL     1       0.703   1.223  23.948  0.00  0.00    +0.166 C 
ATOM     13  O   UNL     1       1.509   1.385  23.877  0.00  0.00    -0.350 OA
ATOM     14  C   UNL     1       1.832   0.840  23.347  0.00  0.00    +0.166 C 
BRANCH   7   6
ATOM      3  N   UNL     1       4.685   0.824  23.240  0.00  0.00    -0.187 NA
ATOM      4  C   UNL     1       3.943   0.477  23.144  0.00  0.00    +0.339 C 
ATOM      5  O   UNL     1       3.871  -0.345  23.118  0.00  0.00    -0.249 OA
ATOM      6  N   UNL     1       3.272   0.952  23.072  0.00  0.00    -0.184 NA
BRANCH   3   2
ATOM      1  C   UNL     1       5.919   0.515  23.891  0.00  0.00    +0.025 C 
ATOM      2  C   UNL     1       5.356   0.349  23.312  0.00  0.00    +0.117 C 
ENDBRANCH   3   2
ENDBRANCH   7   6
ENDBRANCH  15  11
BRANCH  18  22
ATOM     22  C   UNL     1      -2.564  -0.940  24.494  0.00  0.00    +0.018 A 
ATOM     23  C   UNL     1      -2.666  -1.745  24.648  0.00  0.00    +0.005 A 
ATOM     24  C   UNL     1      -3.408  -2.092  24.552  0.00  0.00    +0.037 A 
ATOM     25  C   UNL     1      -4.048  -1.635  24.302  0.00  0.00    +0.139 A 
ATOM     28  C   UNL     1      -3.946  -0.831  24.149  0.00  0.00    +0.037 A 
ATOM     29  C   UNL     1      -3.203  -0.484  24.245  0.00  0.00    +0.005 A 
BRANCH  25  26
ATOM     26  O   UNL     1      -4.790  -1.982  24.206  0.00  0.00    -0.471 OA
ATOM     27  C   UNL     1      -4.915  -2.525  23.598  0.00  0.00    +0.252 C 
ENDBRANCH  25  26
ENDBRANCH  18  22
TORSDOF 5
ENDMDL
MODEL 4
REMARK VINA RESULT:      -6.8      1.615      6.521
REMARK  Name = 
REMARK  5 active torsions:
REMARK  status: ('A' for Active; 'I' for Inactive)
REMARK    1  A    between atoms: C_2  and  N_3
REMARK    2  A    between atoms: N_6  and  C_7
REMARK    3  A    between atoms: C_11  and  N_15
REMARK    4  A    between atoms: C_18  and  C_22
REMARK    5  A    between atoms: C_25  and  O_26
REMARK                            x       y       z     vdW  Elec       q    Type
REMARK                         _______ _______ _______ _____ _____    ______ ____
ROOT
ATOM     15  N   UNL     1      -0.981   2.337  24.079  0.00  0.00    -0.200 NA
ATOM     16  C   UNL     1      -0.622   1.597  24.144  0.00  0.00    +0.237 A 
ATOM     17  N   UNL     1       0.058   1.428  23.710  0.00  0.00    -0.212 NA
ATOM     18  C   UNL     1       0.417   0.687  23.775  0.00  0.00    +0.086 A 
ATOM     19  C   UNL     1       0.095   0.117  24.276  0.00  0.00    +0.040 A 
ATOM     20  C   UNL     1      -0.586   0.286  24.712  0.00  0.00    +0.103 A 
ATOM     21  N   UNL     1      -0.944   1.026  24.646  0.00  0.00    -0.211 NA
ENDROOT
BRANCH  15  11
ATOM      7  C   UNL     1      -3.687   2.881  24.528  0.00  0.00    +0.156 C 
ATOM      8  C   UNL     1      -3.645   2.791  23.709  0.00  0.00    +0.166 C 
ATOM      9  O   UNL     1      -2.862   2.627  23.511  0.00  0.00    -0.350 OA
ATOM     10  C   UNL     1      -2.419   2.615  24.206  0.00  0.00    +0.166 C 
ATOM     11  C   UNL     1      -1.662   2.506  24.514  0.00  0.00    +0.154 C 
ATOM     12  C   UNL     1      -1.703   2.596  25.333  0.00  0.00    +0.166 C 
ATOM     13  O   UNL     1      -2.487   2.760  25.531  0.00  0.00    -0.350 OA
ATOM     14  C   UNL     1      -2.929   2.772  24.835  0.00  0.00    +0.166 C 
BRANCH   7   6
ATOM      3  N   UNL     1      -5.665   2.673  25.427  0.00  0.00    -0.187 NA
ATOM      4  C   UNL     1      -4.985   2.504  24.992  0.00  0.00    +0.339 C 
ATOM      5  O   UNL     1      -4.922   1.789  24.585  0.00  0.00    -0.249 OA
ATOM      6  N   UNL     1      -4.367   3.050  24.963  0.00  0.00    -0.184 NA
BRANCH   3   2
ATOM      1  C   UNL     1      -6.614   1.916  26.180  0.00  0.00    +0.025 C 
ATOM      2  C   UNL     1      -6.283   2.127  25.455  0.00  0.00    +0.117 C 
ENDBRANCH   3   2
ENDBRANCH   7   6
ENDBRANCH  15  11
BRANCH  18  22
ATOM     22  C   UNL     1       1.096   0.518  23.341  0.00  0.00    +0.018 A 
ATOM     23  C   UNL     1       1.809   0.893  23.526  0.00  0.00    +0.005 A 
ATOM     24  C   UNL     1       2.489   0.723  23.091  0.00  0.00    +0.037 A 
ATOM     25  C   UNL     1       2.458   0.180  22.471  0.00  0.00    +0.139 A 
ATOM     28  C   UNL     1       1.746  -0.193  22.286  0.00  0.00    +0.037 A 
ATOM     29  C   UNL     1       1.065  -0.024  22.721  0.00  0.00    +0.005 A 
BRANCH  25  26
ATOM     26  O   UNL     1       3.137   0.011  22.036  0.00  0.00    -0.471 OA
ATOM     27  C   UNL     1       3.818   0.465  22.142  0.00  0.00    +0.252 C 
ENDBRANCH  25  26
ENDBRANCH  18  22
TORSDOF 5
ENDMDL
MODEL 5
REMARK VINA RESULT:      -6.2      2.820      6.809
REMARK  Name = 
REMARK  5 active torsions:
REMARK  status: ('A' for Active; 'I' for Inactive)
REMARK    1  A    between atoms: C_2  and  N_3
REMARK    2  A    between atoms: N_6  and  C_7
REMARK    3  A    between atoms: C_11  and  N_15
REMARK    4  A    between atoms: C_18  and  C_22
REMARK    5  A    between atoms: C_25  and  O_26
REMARK                            x       y       z     vdW  Elec       q    Type
REMARK                         _______ _______ _______ _____ _____    ______ ____
ROOT
ATOM     15  N   UNL     1       0.618   0.621  24.084  0.00  0.00    -0.200 NA
ATOM     16  C   UNL     1       1.098   0.351  23.470  0.00  0.00    +0.237 A 
ATOM     17  N   UNL     1       1.918   0.423  23.525  0.00  0.00    -0.212 NA
ATOM     18  C   UNL     1       2.398   0.154  22.911  0.00  0.00    +0.086 A 
ATOM     19  C   UNL     1       2.058  -0.188  22.241  0.00  0.00    +0.040 A 
ATOM     20  C   UNL     1       1.238  -0.260  22.186  0.00  0.00    +0.103 A 
ATOM     21  N   UNL     1       0.758   0.010  22.801  0.00  0.00    -0.211 NA
ENDROOT
BRANCH  15  11
ATOM      7  C   UNL     1      -1.933  -0.348  24.696  0.00  0.00    +0.156 C 
ATOM      8  C   UNL     1      -1.443  -0.764  25.212  0.00  0.00    +0.166 C 
ATOM      9  O   UNL     1      -0.667  -0.520  25.080  0.00  0.00    -0.350 OA
ATOM     10  C   UNL     1      -0.676   0.047  24.482  0.00  0.00    +0.166 C 
ATOM     11  C   UNL     1      -0.202   0.549  24.029  0.00  0.00    +0.154 C 
ATOM     12  C   UNL     1      -0.692   0.966  23.513  0.00  0.00    +0.166 C 
ATOM     13  O   UNL     1      -1.468   0.721  23.645  0.00  0.00    -0.350 OA
ATOM     14  C   UNL     1      -1.459   0.154  24.244  0.00  0.00    +0.166 C 
BRANCH   7   6
ATOM      3  N   UNL     1      -3.915  -1.234  24.471  0.00  0.00    -0.187 NA
ATOM      4  C   UNL     1      -3.095  -1.162  24.526  0.00  0.00    +0.339 C 
ATOM      5  O   UNL     1      -2.617  -1.832  24.467  0.00  0.00    -0.249 OA
ATOM      6  N   UNL     1      -2.753  -0.420  24.641  0.00  0.00    -0.184 NA
BRANCH   3   2
ATOM      1  C   UNL     1      -4.724  -2.117  23.691  0.00  0.00    +0.025 C 
ATOM      2  C   UNL     1      -4.257  -1.976  24.356  0.00  0.00    +0.117 C 
ENDBRANCH   3   2
ENDBRANCH   7   6
ENDBRANCH  15  11
BRANCH  18  22
ATOM     22  C   UNL     1       3.218   0.226  22.965  0.00  0.00    +0.018 A 
ATOM     23  C   UNL     1       3.586   0.931  22.743  0.00  0.00    +0.005 A 
ATOM     24  C   UNL     1       4.405   1.003  22.798  0.00  0.00    +0.037 A 
ATOM     25  C   UNL     1       4.858   0.371  23.075  0.00  0.00    +0.139 A 
ATOM     28  C   UNL     1       4.490  -0.333  23.297  0.00  0.00    +0.037 A 
ATOM     29  C   UNL     1       3.670  -0.405  23.242  0.00  0.00    +0.005 A 
BRANCH  25  26
ATOM     26  O   UNL     1       5.678   0.443  23.130  0.00  0.00    -0.471 OA
ATOM     27  C   UNL     1       6.040   0.477  23.870  0.00  0.00    +0.252 C 
ENDBRANCH  25  26
ENDBRANCH  18  22
TORSDOF 5
ENDMDL
MODEL 6
REMARK VINA RESULT:      -5.5     17.213     18.782
REMARK  Name = 
REMARK  5 active torsions:
REMARK  status: ('A' for Active; 'I' for Inactive)
REMARK    1  A    between atoms: C_2  and  N_3
REMARK    2  A    between atoms: N_6  and  C_7
REMARK    3  A    between atoms: C_11  and  N_15
REMARK    4  A    between atoms: C_18  and  C_22
REMARK    5  A    between atoms: C_25  and  O_26
REMARK                            x       y       z     vdW  Elec       q    Type
REMARK                         _______ _______ _______ _____ _____    ______ ____
ROOT
ATOM     15  N   UNL     1      12.935  -5.429  31.359  0.00  0.00    -0.200 NA
ATOM     16  C   UNL     1      13.757  -5.373  31.311  0.00  0.00    +0.237 A 
ATOM     17  N   UNL     1      14.127  -4.643  31.404  0.00  0.00    -0.212 NA
ATOM     18  C   UNL     1      14.949  -4.587  31.357  0.00  0.00    +0.086 A 
ATOM     19  C   UNL     1      15.401  -5.263  31.217  0.00  0.00    +0.040 A 
ATOM     20  C   UNL     1      15.030  -5.995  31.124  0.00  0.00    +0.103 A 
ATOM     21  N   UNL     1      14.208  -6.049  31.172  0.00  0.00    -0.211 NA
ENDROOT
BRANCH  15  11
ATOM      7  C   UNL     1      11.261  -7.573  32.007  0.00  0.00    +0.156 C 
ATOM      8  C   UNL     1      11.160  -7.055  32.641  0.00  0.00    +0.166 C 
ATOM      9  O   UNL     1      11.634  -6.394  32.507  0.00  0.00    -0.350 OA
ATOM     10  C   UNL     1      12.028  -6.502  31.792  0.00  0.00    +0.166 C 
ATOM     11  C   UNL     1      12.564  -6.160  31.266  0.00  0.00    +0.154 C 
ATOM     12  C   UNL     1      12.666  -6.678  30.631  0.00  0.00    +0.166 C 
ATOM     13  O   UNL     1      12.192  -7.339  30.765  0.00  0.00    -0.350 OA
ATOM     14  C   UNL     1      11.798  -7.231  31.482  0.00  0.00    +0.166 C 
BRANCH   7   6
ATOM      3  N   UNL     1       9.731  -9.129  32.042  0.00  0.00    -0.187 NA
ATOM      4  C   UNL     1      10.101  -8.398  32.134  0.00  0.00    +0.339 C 
ATOM      5  O   UNL     1       9.683  -7.759  32.448  0.00  0.00    -0.249 OA
ATOM      6  N   UNL     1      10.891  -8.304  31.914  0.00  0.00    -0.184 NA
BRANCH   3   2
ATOM      1  C   UNL     1       8.562  -9.944  32.140  0.00  0.00    +0.025 C 
ATOM      2  C   UNL     1       8.941  -9.223  32.262  0.00  0.00    +0.117 C 
ENDBRANCH   3   2
ENDBRANCH   7   6
ENDBRANCH  15  11
BRANCH  18  22
ATOM     22  C   UNL     1      15.320  -3.856  31.450  0.00  0.00    +0.018 A 
ATOM     23  C   UNL     1      15.647  -3.473  30.795  0.00  0.00    +0.005 A 
ATOM     24  C   UNL     1      16.017  -2.743  30.887  0.00  0.00    +0.037 A 
ATOM     25  C   UNL     1      16.061  -2.394  31.634  0.00  0.00    +0.139 A 
ATOM     28  C   UNL     1      15.735  -2.776  32.288  0.00  0.00    +0.037 A 
ATOM     29  C   UNL     1      15.364  -3.508  32.195  0.00  0.00    +0.005 A 
BRANCH  25  26
ATOM     26  O   UNL     1      16.432  -1.663  31.727  0.00  0.00    -0.471 OA
ATOM     27  C   UNL     1      17.082  -1.468  31.258  0.00  0.00    +0.252 C 
ENDBRANCH  25  26
ENDBRANCH  18  22
TORSDOF 5
ENDMDL
