MODEL 1
REMARK VINA RESULT:     -12.8      0.000      0.000
REMARK  Name = 
REMARK  4 active torsions:
REMARK  status: ('A' for Active; 'I' for Inactive)
REMARK    1  A    between atoms: C_7  and  C_9
REMARK    2  A    between atoms: N_12  and  C_13
REMARK    3  A    between atoms: C_13  and  C_14
REMARK    4  A    between atoms: C_18  and  C_20
REMARK                            x       y       z     vdW  Elec       q    Type
REMARK                         _______ _______ _______ _____ _____    ______ ____
ROOT
ATOM      9  C   UNL     1      -4.419   0.974  24.774  0.00  0.00    +0.076 C 
ATOM     10  C   UNL     1      -5.099   1.307  25.102  0.00  0.00    +0.026 C 
ATOM     11  C   UNL     1      -5.045   2.126  25.026  0.00  0.00    +0.073 C 
ATOM     12  N   UNL     1      -4.331   2.300  24.651  0.00  0.00    -0.269 NA
ATOM     22  C   UNL     1      -3.945   1.588  24.495  0.00  0.00    +0.080 C 
ENDROOT
BRANCH   9   7
ATOM      1  F   UNL     1      -3.195  -3.130  25.313  0.00  0.00    -0.204 F 
ATOM      2  C   UNL     1      -3.510  -2.449  24.973  0.00  0.00    +0.142 A 
ATOM      3  C   UNL     1      -3.496  -1.736  25.386  0.00  0.00    +0.050 A 
ATOM      4  C   UNL     1      -3.812  -1.054  25.045  0.00  0.00    +0.102 A 
ATOM      5  C   UNL     1      -4.143  -1.086  24.290  0.00  0.00    +0.100 A 
ATOM      6  N   UNL     1      -4.410  -0.331  24.097  0.00  0.00    -0.229 NA
ATOM      7  C   UNL     1      -4.245   0.168  24.732  0.00  0.00    +0.140 A 
ATOM      8  N   UNL     1      -3.875  -0.279  25.317  0.00  0.00    -0.229 NA
ATOM     23  C   UNL     1      -4.157  -1.801  23.876  0.00  0.00    +0.023 A 
ATOM     24  C   UNL     1      -3.841  -2.481  24.218  0.00  0.00    +0.031 A 
ENDBRANCH   9   7
BRANCH  12  13
ATOM     13  C   UNL     1      -4.052   3.054  24.464  0.00  0.00    +0.099 C 
BRANCH  13  14
ATOM     14  C   UNL     1      -3.530   3.439  24.974  0.00  0.00    -0.005 A 
ATOM     15  C   UNL     1      -3.809   3.765  25.679  0.00  0.00    -0.003 A 
ATOM     16  C   UNL     1      -3.287   4.150  26.189  0.00  0.00    +0.000 A 
ATOM     17  C   UNL     1      -2.488   4.209  25.995  0.00  0.00    +0.010 A 
ATOM     18  C   UNL     1      -2.210   3.883  25.290  0.00  0.00    +0.068 A 
ATOM     19  C   UNL     1      -2.731   3.498  24.780  0.00  0.00    +0.007 A 
BRANCH  18  20
ATOM     20  C   UNL     1      -1.410   3.943  25.096  0.00  0.00    +0.100 C 
ATOM     21  N   UNL     1      -0.610   4.002  24.902  0.00  0.00    -0.191 NA
ENDBRANCH  18  20
ENDBRANCH  13  14
ENDBRANCH  12  13
TORSDOF 4
ENDMDL
MODEL 2
REMARK VINA RESULT:     -12.2      2.133      5.185
REMARK  Name = 
REMARK  4 active torsions:
REMARK  status: ('A' for Active; 'I' for Inactive)
REMARK    1  A    between atoms: C_7  and  C_9
REMARK    2  A    between atoms: N_12  and  C_13
REMARK    3  A    between atoms: C_13  and  C_14
REMARK    4  A    between atoms: C_18  and  C_20
REMARK                            x       y       z     vdW  Elec       q    Type
REMARK                         _______ _______ _______ _____ _____    ______ ____
ROOT
ATOM      9  C   UNL     1      -3.339   1.869  24.782  0.00  0.00    +0.076 C 
ATOM     10  C   UNL     1      -3.963   1.801  24.246  0.00  0.00    +0.026 C 
ATOM     11  C   UNL     1      -4.329   1.073  24.370  0.00  0.00    +0.073 C 
ATOM     12  N   UNL     1      -3.931   0.689  24.983  0.00  0.00    -0.269 NA
ATOM     22  C   UNL     1      -3.319   1.181  25.237  0.00  0.00    +0.080 C 
ENDROOT
BRANCH   9   7
ATOM      1  F   UNL     1      -1.331   5.647  25.356  0.00  0.00    -0.204 F 
ATOM      2  C   UNL     1      -1.461   4.851  25.185  0.00  0.00    +0.142 A 
ATOM      3  C   UNL     1      -2.220   4.536  25.238  0.00  0.00    +0.050 A 
ATOM      4  C   UNL     1      -2.351   3.739  25.067  0.00  0.00    +0.102 A 
ATOM      5  C   UNL     1      -1.719   3.258  24.842  0.00  0.00    +0.100 A 
ATOM      6  N   UNL     1      -2.013   2.499  24.707  0.00  0.00    -0.229 NA
ATOM      7  C   UNL     1      -2.825   2.511  24.850  0.00  0.00    +0.140 A 
ATOM      8  N   UNL     1      -3.033   3.277  25.072  0.00  0.00    -0.229 NA
ATOM     23  C   UNL     1      -0.958   3.573  24.788  0.00  0.00    +0.023 A 
ATOM     24  C   UNL     1      -0.830   4.370  24.959  0.00  0.00    +0.031 A 
ENDBRANCH   9   7
BRANCH  12  13
ATOM     13  C   UNL     1      -4.112  -0.055  25.288  0.00  0.00    +0.099 C 
BRANCH  13  14
ATOM     14  C   UNL     1      -3.911  -0.735  24.865  0.00  0.00    -0.005 A 
ATOM     15  C   UNL     1      -4.441  -1.052  24.317  0.00  0.00    -0.003 A 
ATOM     16  C   UNL     1      -4.239  -1.731  23.895  0.00  0.00    +0.000 A 
ATOM     17  C   UNL     1      -3.509  -2.093  24.020  0.00  0.00    +0.010 A 
ATOM     18  C   UNL     1      -2.980  -1.777  24.567  0.00  0.00    +0.068 A 
ATOM     19  C   UNL     1      -3.180  -1.097  24.990  0.00  0.00    +0.007 A 
BRANCH  18  20
ATOM     20  C   UNL     1      -2.249  -2.140  24.692  0.00  0.00    +0.100 C 
ATOM     21  N   UNL     1      -1.518  -2.502  24.817  0.00  0.00    -0.191 NA
ENDBRANCH  18  20
ENDBRANCH  13  14
ENDBRANCH  12  13
TORSDOF 4
ENDMDL
MODEL 3
REMARK VINA RESULT:     -11.6      1.765      2.503
REMARK  Name = 
REMARK  4 active torsions:
REMARK  status: ('A' for Active; 'I' for Inactive)
REMARK    1  A    between atoms: C_7  and  C_9
REMARK    2  A    between atoms: N_12  and  C_13
REMARK    3  A    between atoms: C_13  and  C_14
REMARK    4  A    between atoms: C_18  and  C_20
REMARK                            x       y       z     vdW  Elec       q    Type
REMARK                         _______ _______ _______ _____ _____    ______ ____
ROOT
ATOM      9  C   UNL     1      -1.441   0.388  24.791  0.00  0.00    +0.076 C 
ATOM     10  C   UNL     1      -0.781   0.527  24.316  0.00  0.00    +0.026 C 
ATOM     11  C   UNL     1      -0.382   1.183  24.618  0.00  0.00    +0.073 C 
ATOM     12  N   UNL     1      -0.796   1.450  25.280  0.00  0.00    -0.269 NA
ATOM     22  C   UNL     1      -1.450   0.958  25.387  0.00  0.00    +0.080 C 
ENDROOT
BRANCH   9   7
ATOM      1  F   UNL     1      -3.753  -3.251  24.585  0.00  0.00    -0.204 F 
ATOM      2  C   UNL     1      -3.539  -2.459  24.512  0.00  0.00    +0.142 A 
ATOM      3  C   UNL     1      -2.795  -2.207  24.764  0.00  0.00    +0.050 A 
ATOM      4  C   UNL     1      -2.580  -1.414  24.691  0.00  0.00    +0.102 A 
ATOM      5  C   UNL     1      -3.110  -0.872  24.366  0.00  0.00    +0.100 A 
ATOM      6  N   UNL     1      -2.748  -0.131  24.364  0.00  0.00    -0.229 NA
ATOM      7  C   UNL     1      -1.994  -0.215  24.687  0.00  0.00    +0.140 A 
ATOM      8  N   UNL     1      -1.891  -1.008  24.889  0.00  0.00    -0.229 NA
ATOM     23  C   UNL     1      -3.856  -1.123  24.114  0.00  0.00    +0.023 A 
ATOM     24  C   UNL     1      -4.069  -1.916  24.188  0.00  0.00    +0.031 A 
ENDBRANCH   9   7
BRANCH  12  13
ATOM     13  C   UNL     1      -0.592   2.094  25.753  0.00  0.00    +0.099 C 
BRANCH  13  14
ATOM     14  C   UNL     1      -0.885   2.845  25.577  0.00  0.00    -0.005 A 
ATOM     15  C   UNL     1      -0.447   3.357  25.100  0.00  0.00    -0.003 A 
ATOM     16  C   UNL     1      -0.741   4.107  24.924  0.00  0.00    +0.000 A 
ATOM     17  C   UNL     1      -1.471   4.346  25.224  0.00  0.00    +0.010 A 
ATOM     18  C   UNL     1      -1.908   3.834  25.700  0.00  0.00    +0.068 A 
ATOM     19  C   UNL     1      -1.616   3.083  25.877  0.00  0.00    +0.007 A 
BRANCH  18  20
ATOM     20  C   UNL     1      -2.639   4.073  26.000  0.00  0.00    +0.100 C 
ATOM     21  N   UNL     1      -3.370   4.312  26.300  0.00  0.00    -0.191 NA
ENDBRANCH  18  20
ENDBRANCH  13  14
ENDBRANCH  12  13
TORSDOF 4
ENDMDL
MODEL 4
REMARK VINA RESULT:     -11.3      1.300      2.100
REMARK  Name = 
REMARK  4 active torsions:
REMARK  status: ('A' for Active; 'I' for Inactive)
REMARK    1  A    between atoms: C_7  and  C_9
REMARK    2  A    between atoms: N_12  and  C_13
REMARK    3  A    between atoms: C_13  and  C_14
REMARK    4  A    between atoms: C_18  and  C_20
REMARK                            x       y       z     vdW  Elec       q    Type
REMARK                         _______ _______ _______ _____ _____    ______ ____
ROOT
ATOM      9  C   UNL     1      -2.397   0.560  24.660  0.00  0.00    +0.076 C 
ATOM     10  C   UNL     1      -1.679   0.728  25.029  0.00  0.00    +0.026 C 
ATOM     11  C   UNL     1      -1.558   1.544  24.997  0.00  0.00    +0.073 C 
ATOM     12  N   UNL     1      -2.203   1.880  24.607  0.00  0.00    -0.269 NA
ATOM     22  C   UNL     1      -2.721   1.272  24.399  0.00  0.00    +0.080 C 
ENDROOT
BRANCH   9   7
ATOM      1  F   UNL     1      -4.697  -2.963  23.695  0.00  0.00    -0.204 F 
ATOM      2  C   UNL     1      -4.117  -2.475  24.020  0.00  0.00    +0.142 A 
ATOM      3  C   UNL     1      -4.117  -1.667  23.854  0.00  0.00    +0.050 A 
ATOM      4  C   UNL     1      -3.537  -1.179  24.180  0.00  0.00    +0.102 A 
ATOM      5  C   UNL     1      -2.958  -1.499  24.673  0.00  0.00    +0.100 A 
ATOM      6  N   UNL     1      -2.461  -0.886  24.912  0.00  0.00    -0.229 NA
ATOM      7  C   UNL     1      -2.732  -0.188  24.568  0.00  0.00    +0.140 A 
ATOM      8  N   UNL     1      -3.397  -0.369  24.115  0.00  0.00    -0.229 NA
ATOM     23  C   UNL     1      -2.958  -2.307  24.840  0.00  0.00    +0.023 A 
ATOM     24  C   UNL     1      -3.538  -2.795  24.513  0.00  0.00    +0.031 A 
ENDBRANCH   9   7
BRANCH  12  13
ATOM     13  C   UNL     1      -2.311   2.683  24.452  0.00  0.00    +0.099 C 
BRANCH  13  14
ATOM     14  C   UNL     1      -2.679   3.166  25.011  0.00  0.00    -0.005 A 
ATOM     15  C   UNL     1      -2.222   3.613  25.534  0.00  0.00    -0.003 A 
ATOM     16  C   UNL     1      -2.591   4.095  26.093  0.00  0.00    +0.000 A 
ATOM     17  C   UNL     1      -3.414   4.131  26.129  0.00  0.00    +0.010 A 
ATOM     18  C   UNL     1      -3.869   3.684  25.607  0.00  0.00    +0.068 A 
ATOM     19  C   UNL     1      -3.502   3.201  25.047  0.00  0.00    +0.007 A 
BRANCH  18  20
ATOM     20  C   UNL     1      -4.693   3.720  25.643  0.00  0.00    +0.100 C 
ATOM     21  N   UNL     1      -5.516   3.756  25.680  0.00  0.00    -0.191 NA
ENDBRANCH  18  20
ENDBRANCH  13  14
ENDBRANCH  12  13
TORSDOF 4
ENDMDL
MODEL 5
REMARK VINA RESULT:     -11.1      2.145      4.889
REMARK  Name = 
REMARK  4 active torsions:
REMARK  status: ('A' for Active; 'I' for Inactive)
REMARK    1  A    between atoms: C_7  and  C_9
REMARK    2  A    between atoms: N_12  and  C_13
REMARK    3  A    between atoms: C_13  and  C_14
REMARK    4  A    between atoms: C_18  and  C_20
REMARK                            x       y       z     vdW  Elec       q    Type
REMARK                         _______ _______ _______ _____ _____    ______ ____
ROOT
ATOM      9  C   UNL     1      -4.381   0.407  24.876  0.00  0.00    +0.076 C 
ATOM     10  C   UNL     1      -4.634  -0.060  24.246  0.00  0.00    +0.026 C 
ATOM     11  C   UNL     1      -4.363  -0.829  24.372  0.00  0.00    +0.073 C 
ATOM     12  N   UNL     1      -3.942  -0.837  25.081  0.00  0.00    -0.269 NA
ATOM     22  C   UNL     1      -3.953  -0.073  25.392  0.00  0.00    +0.080 C 
ENDROOT
BRANCH   9   7
ATOM      1  F   UNL     1      -5.876   4.370  25.708  0.00  0.00    -0.204 F 
ATOM      2  C   UNL     1      -5.381   3.760  25.458  0.00  0.00    +0.142 A 
ATOM      3  C   UNL     1      -5.619   2.975  25.540  0.00  0.00    +0.050 A 
ATOM      4  C   UNL     1      -5.124   2.365  25.290  0.00  0.00    +0.102 A 
ATOM      5  C   UNL     1      -4.391   2.540  24.956  0.00  0.00    +0.100 A 
ATOM      6  N   UNL     1      -4.023   1.828  24.760  0.00  0.00    -0.229 NA
ATOM      7  C   UNL     1      -4.529   1.213  24.973  0.00  0.00    +0.140 A 
ATOM      8  N   UNL     1      -5.209   1.545  25.300  0.00  0.00    -0.229 NA
ATOM     23  C   UNL     1      -4.152   3.326  24.873  0.00  0.00    +0.023 A 
ATOM     24  C   UNL     1      -4.647   3.935  25.124  0.00  0.00    +0.031 A 
ENDBRANCH   9   7
BRANCH  12  13
ATOM     13  C   UNL     1      -3.574  -1.493  25.419  0.00  0.00    +0.099 C 
BRANCH  13  14
ATOM     14  C   UNL     1      -2.913  -1.828  25.058  0.00  0.00    -0.005 A 
ATOM     15  C   UNL     1      -2.979  -2.552  24.667  0.00  0.00    -0.003 A 
ATOM     16  C   UNL     1      -2.317  -2.886  24.305  0.00  0.00    +0.000 A 
ATOM     17  C   UNL     1      -1.590  -2.498  24.335  0.00  0.00    +0.010 A 
ATOM     18  C   UNL     1      -1.524  -1.775  24.725  0.00  0.00    +0.068 A 
ATOM     19  C   UNL     1      -2.186  -1.439  25.087  0.00  0.00    +0.007 A 
BRANCH  18  20
ATOM     20  C   UNL     1      -0.796  -1.386  24.754  0.00  0.00    +0.100 C 
ATOM     21  N   UNL     1      -0.069  -0.998  24.782  0.00  0.00    -0.191 NA
ENDBRANCH  18  20
ENDBRANCH  13  14
ENDBRANCH  12  13
TORSDOF 4
ENDMDL
MODEL 6
REMARK VINA RESULT:      -9.9      2.658      4.448
REMARK  Name = 
REMARK  4 active torsions:
REMARK  status: ('A' for Active; 'I' for Inactive)
REMARK    1  A    between atoms: C_7  and  C_9
REMARK    2  A    between atoms: N_12  and  C_13
REMARK    3  A    between atoms: C_13  and  C_14
REMARK    4  A    between atoms: C_18  and  C_20
REMARK                            x       y       z     vdW  Elec       q    Type
REMARK                         _______ _______ _______ _____ _____    ______ ____
ROOT
ATOM      9  C   UNL     1      -2.498   2.323  24.692  0.00  0.00    +0.076 C 
ATOM     10  C   UNL     1      -2.077   2.805  24.173  0.00  0.00    +0.026 C 
ATOM     11  C   UNL     1      -1.285   2.574  24.192  0.00  0.00    +0.073 C 
ATOM     12  N   UNL     1      -1.217   1.947  24.725  0.00  0.00    -0.269 NA
ATOM     22  C   UNL     1      -1.966   1.793  25.034  0.00  0.00    +0.080 C 
ENDROOT
BRANCH   9   7
ATOM      1  F   UNL     1      -6.769   1.822  25.067  0.00  0.00    -0.204 F 
ATOM      2  C   UNL     1      -6.012   2.141  25.138  0.00  0.00    +0.142 A 
ATOM      3  C   UNL     1      -5.367   1.751  24.804  0.00  0.00    +0.050 A 
ATOM      4  C   UNL     1      -4.609   2.071  24.875  0.00  0.00    +0.102 A 
ATOM      5  C   UNL     1      -4.498   2.781  25.279  0.00  0.00    +0.100 A 
ATOM      6  N   UNL     1      -3.693   2.962  25.260  0.00  0.00    -0.229 NA
ATOM      7  C   UNL     1      -3.307   2.364  24.844  0.00  0.00    +0.140 A 
ATOM      8  N   UNL     1      -3.874   1.813  24.606  0.00  0.00    -0.229 NA
ATOM     23  C   UNL     1      -5.144   3.172  25.613  0.00  0.00    +0.023 A 
ATOM     24  C   UNL     1      -5.900   2.851  25.542  0.00  0.00    +0.031 A 
ENDBRANCH   9   7
BRANCH  12  13
ATOM     13  C   UNL     1      -0.522   1.546  24.915  0.00  0.00    +0.099 C 
BRANCH  13  14
ATOM     14  C   UNL     1      -0.343   0.831  24.545  0.00  0.00    -0.005 A 
ATOM     15  C   UNL     1       0.101   0.827  23.849  0.00  0.00    -0.003 A 
ATOM     16  C   UNL     1       0.280   0.112  23.478  0.00  0.00    +0.000 A 
ATOM     17  C   UNL     1       0.015  -0.598  23.803  0.00  0.00    +0.010 A 
ATOM     18  C   UNL     1      -0.429  -0.594  24.497  0.00  0.00    +0.068 A 
ATOM     19  C   UNL     1      -0.609   0.121  24.869  0.00  0.00    +0.007 A 
BRANCH  18  20
ATOM     20  C   UNL     1      -0.695  -1.306  24.821  0.00  0.00    +0.100 C 
ATOM     21  N   UNL     1      -0.960  -2.016  25.146  0.00  0.00    -0.191 NA
ENDBRANCH  18  20
ENDBRANCH  13  14
ENDBRANCH  12  13
TORSDOF 4
ENDMDL
