MODEL 1
REMARK VINA RESULT:     -11.3      0.000      0.000
REMARK  Name = 
REMARK  6 active torsions:
REMARK  status: ('A' for Active; 'I' for Inactive)
REMARK    1  A    between atoms: O_2  and  C_3
REMARK    2  A    between atoms: C_5  and  N_6
REMARK    3  A    between atoms: C_7  and  O_9
REMARK    4  A    between atoms: O_9  and  C_10
REMARK    5  A    between atoms: C_14  and  N_18
REMARK    6  A    between atoms: C_21  and  C_25
REMARK                            x       y       z     vdW  Elec       q    Type
REMARK                         _______ _______ _______ _____ _____    ______ ____
ROOT
ATOM     10  C   UNL     1      -0.182   1.336  24.434  0.00  0.00    +0.229 C 
ATOM     11  C   UNL     1      -0.246   1.101  23.646  0.00  0.00    +0.188 C 
ATOM     12  O   UNL     1      -0.624   0.368  23.630  0.00  0.00    -0.348 OA
ATOM     13  C   UNL     1      -0.793   0.150  24.406  0.00  0.00    +0.168 C 
ATOM     14  C   UNL     1      -1.131  -0.437  24.877  0.00  0.00    +0.155 C 
ATOM     15  C   UNL     1      -1.067  -0.202  25.665  0.00  0.00    +0.166 C 
ATOM     16  O   UNL     1      -0.689   0.531  25.681  0.00  0.00    -0.348 OA
ATOM     17  C   UNL     1      -0.520   0.749  24.904  0.00  0.00    +0.186 C 
ENDROOT
BRANCH  14  18
ATOM     18  N   UNL     1      -1.474  -1.137  24.606  0.00  0.00    -0.200 NA
ATOM     19  C   UNL     1      -2.279  -1.274  24.720  0.00  0.00    +0.236 A 
ATOM     20  N   UNL     1      -2.622  -1.973  24.450  0.00  0.00    -0.217 NA
ATOM     21  C   UNL     1      -3.428  -2.110  24.564  0.00  0.00    +0.063 A 
ATOM     22  C   UNL     1      -3.891  -1.546  24.948  0.00  0.00    +0.035 A 
ATOM     23  C   UNL     1      -3.548  -0.845  25.219  0.00  0.00    +0.103 A 
ATOM     24  N   UNL     1      -2.743  -0.710  25.105  0.00  0.00    -0.211 NA
BRANCH  21  25
ATOM     25  C   UNL     1      -3.770  -2.809  24.294  0.00  0.00    +0.036 C 
ATOM     26  C   UNL     1      -4.113  -3.510  24.023  0.00  0.00    +0.006 C 
ATOM     27  C   UNL     1      -3.380  -3.229  24.886  0.00  0.00    +0.006 C 
ATOM     28  C   UNL     1      -4.161  -2.389  23.701  0.00  0.00    +0.006 C 
ENDBRANCH  21  25
ENDBRANCH  14  18
BRANCH  10   9
ATOM      9  O   UNL     1       0.161   2.036  24.705  0.00  0.00    -0.432 OA
BRANCH   9   7
ATOM      6  N   UNL     1      -0.436   3.168  25.341  0.00  0.00    -0.142 NA
ATOM      7  C   UNL     1      -0.257   2.746  24.656  0.00  0.00    +0.425 C 
ATOM      8  O   UNL     1      -0.495   3.034  23.919  0.00  0.00    -0.224 OA
BRANCH   6   5
ATOM      3  C   UNL     1      -2.040   4.635  25.543  0.00  0.00    +0.140 A 
ATOM      4  C   UNL     1      -1.621   3.926  25.591  0.00  0.00    +0.054 A 
ATOM      5  C   UNL     1      -0.854   3.878  25.292  0.00  0.00    +0.080 A 
ATOM     29  C   UNL     1      -0.505   4.539  24.944  0.00  0.00    +0.017 A 
ATOM     30  C   UNL     1      -0.923   5.249  24.895  0.00  0.00    +0.004 A 
ATOM     31  C   UNL     1      -1.690   5.297  25.195  0.00  0.00    +0.037 A 
BRANCH   3   2
ATOM      1  C   UNL     1      -3.416   4.255  25.486  0.00  0.00    +0.252 C 
ATOM      2  O   UNL     1      -2.807   4.683  25.842  0.00  0.00    -0.471 OA
ENDBRANCH   3   2
ENDBRANCH   6   5
ENDBRANCH   9   7
ENDBRANCH  10   9
TORSDOF 6
ENDMDL
MODEL 2
REMARK VINA RESULT:     -10.4      1.979      6.212
REMARK  Name = 
REMARK  6 active torsions:
REMARK  status: ('A' for Active; 'I' for Inactive)
REMARK    1  A    between atoms: O_2  and  C_3
REMARK    2  A    between atoms: C_5  and  N_6
REMARK    3  A    between atoms: C_7  and  O_9
REMARK    4  A    between atoms: O_9  and  C_10
REMARK    5  A    between atoms: C_14  and  N_18
REMARK    6  A    between atoms: C_21  and  C_25
REMARK                            x       y       z     vdW  Elec       q    Type
REMARK                         _______ _______ _______ _____ _____    ______ ____
ROOT
ATOM     10  C   UNL     1      -4.179   0.707  24.198  0.00  0.00    +0.229 C 
ATOM     11  C   UNL     1      -3.725   0.857  23.526  0.00  0.00    +0.188 C 
ATOM     12  O   UNL     1      -3.459   1.637  23.568  0.00  0.00    -0.348 OA
ATOM     13  C   UNL     1      -3.748   1.968  24.265  0.00  0.00    +0.168 C 
ATOM     14  C   UNL     1      -3.762   2.655  24.723  0.00  0.00    +0.155 C 
ATOM     15  C   UNL     1      -4.216   2.504  25.395  0.00  0.00    +0.166 C 
ATOM     16  O   UNL     1      -4.482   1.725  25.353  0.00  0.00    -0.348 OA
ATOM     17  C   UNL     1      -4.193   1.393  24.655  0.00  0.00    +0.186 C 
ENDROOT
BRANCH  14  18
ATOM     18  N   UNL     1      -3.388   3.367  24.540  0.00  0.00    -0.200 NA
ATOM     19  C   UNL     1      -2.700   3.586  24.939  0.00  0.00    +0.236 A 
ATOM     20  N   UNL     1      -2.326   4.298  24.756  0.00  0.00    -0.217 NA
ATOM     21  C   UNL     1      -1.638   4.517  25.155  0.00  0.00    +0.063 A 
ATOM     22  C   UNL     1      -1.324   4.024  25.737  0.00  0.00    +0.035 A 
ATOM     23  C   UNL     1      -1.698   3.312  25.920  0.00  0.00    +0.103 A 
ATOM     24  N   UNL     1      -2.386   3.093  25.521  0.00  0.00    -0.211 NA
BRANCH  21  25
ATOM     25  C   UNL     1      -1.264   5.229  24.972  0.00  0.00    +0.036 C 
ATOM     26  C   UNL     1      -0.889   5.941  24.790  0.00  0.00    +0.006 C 
ATOM     27  C   UNL     1      -0.618   4.812  24.673  0.00  0.00    +0.006 C 
ATOM     28  C   UNL     1      -1.910   5.645  25.272  0.00  0.00    +0.006 C 
ENDBRANCH  21  25
ENDBRANCH  14  18
BRANCH  10   9
ATOM      9  O   UNL     1      -4.553  -0.005  24.381  0.00  0.00    -0.432 OA
BRANCH   9   7
ATOM      6  N   UNL     1      -3.810  -1.114  24.893  0.00  0.00    -0.142 NA
ATOM      7  C   UNL     1      -4.162  -0.721  24.259  0.00  0.00    +0.425 C 
ATOM      8  O   UNL     1      -4.122  -1.044  23.500  0.00  0.00    -0.224 OA
BRANCH   6   5
ATOM      3  C   UNL     1      -2.202  -2.566  24.631  0.00  0.00    +0.140 A 
ATOM      4  C   UNL     1      -2.594  -1.850  24.753  0.00  0.00    +0.054 A 
ATOM      5  C   UNL     1      -3.418  -1.829  24.770  0.00  0.00    +0.080 A 
ATOM     29  C   UNL     1      -3.851  -2.523  24.663  0.00  0.00    +0.017 A 
ATOM     30  C   UNL     1      -3.459  -3.239  24.540  0.00  0.00    +0.004 A 
ATOM     31  C   UNL     1      -2.634  -3.260  24.524  0.00  0.00    +0.037 A 
BRANCH   3   2
ATOM      1  C   UNL     1      -0.942  -2.005  25.006  0.00  0.00    +0.252 C 
ATOM      2  O   UNL     1      -1.377  -2.587  24.614  0.00  0.00    -0.471 OA
ENDBRANCH   3   2
ENDBRANCH   6   5
ENDBRANCH   9   7
ENDBRANCH  10   9
TORSDOF 6
ENDMDL
MODEL 3
REMARK VINA RESULT:     -10.3      1.191      5.674
REMARK  Name = 
REMARK  6 active torsions:
REMARK  status: ('A' for Active; 'I' for Inactive)
REMARK    1  A    between atoms: O_2  and  C_3
REMARK    2  A    between atoms: C_5  and  N_6
REMARK    3  A    between atoms: C_7  and  O_9
REMARK    4  A    between atoms: O_9  and  C_10
REMARK    5  A    between atoms: C_14  and  N_18
REMARK    6  A    between atoms: C_21  and  C_25
REMARK                            x       y       z     vdW  Elec       q    Type
REMARK                         _______ _______ _______ _____ _____    ______ ____
ROOT
ATOM     10  C   UNL     1      -0.527  -0.274  24.700  0.00  0.00    +0.229 C 
ATOM     11  C   UNL     1      -0.333   0.010  23.951  0.00  0.00    +0.188 C 
ATOM     12  O   UNL     1      -0.255   0.829  24.002  0.00  0.00    -0.348 OA
ATOM     13  C   UNL     1      -0.400   1.052  24.782  0.00  0.00    +0.168 C 
ATOM     14  C   UNL     1      -0.442   1.695  25.297  0.00  0.00    +0.155 C 
ATOM     15  C   UNL     1      -0.637   1.410  26.047  0.00  0.00    +0.166 C 
ATOM     16  O   UNL     1      -0.715   0.591  25.995  0.00  0.00    -0.348 OA
ATOM     17  C   UNL     1      -0.569   0.369  25.214  0.00  0.00    +0.186 C 
ENDROOT
BRANCH  14  18
ATOM     18  N   UNL     1      -0.313   2.485  25.097  0.00  0.00    -0.200 NA
ATOM     19  C   UNL     1      -0.901   3.047  25.232  0.00  0.00    +0.236 A 
ATOM     20  N   UNL     1      -0.772   3.836  25.032  0.00  0.00    -0.217 NA
ATOM     21  C   UNL     1      -1.360   4.399  25.168  0.00  0.00    +0.063 A 
ATOM     22  C   UNL     1      -2.078   4.171  25.504  0.00  0.00    +0.035 A 
ATOM     23  C   UNL     1      -2.208   3.381  25.704  0.00  0.00    +0.103 A 
ATOM     24  N   UNL     1      -1.619   2.819  25.568  0.00  0.00    -0.211 NA
BRANCH  21  25
ATOM     25  C   UNL     1      -1.231   5.188  24.968  0.00  0.00    +0.036 C 
ATOM     26  C   UNL     1      -1.102   5.978  24.768  0.00  0.00    +0.006 C 
ATOM     27  C   UNL     1      -0.501   4.986  24.642  0.00  0.00    +0.006 C 
ATOM     28  C   UNL     1      -1.962   5.390  25.294  0.00  0.00    +0.006 C 
ENDBRANCH  21  25
ENDBRANCH  14  18
BRANCH  10   9
ATOM      9  O   UNL     1      -0.657  -1.065  24.901  0.00  0.00    -0.432 OA
BRANCH   9   7
ATOM      6  N   UNL     1      -1.977  -1.584  25.074  0.00  0.00    -0.142 NA
ATOM      7  C   UNL     1      -1.313  -1.464  24.600  0.00  0.00    +0.425 C 
ATOM      8  O   UNL     1      -1.304  -1.744  23.823  0.00  0.00    -0.224 OA
BRANCH   6   5
ATOM      3  C   UNL     1      -3.946  -1.958  24.210  0.00  0.00    +0.140 A 
ATOM      4  C   UNL     1      -3.290  -1.559  24.511  0.00  0.00    +0.054 A 
ATOM      5  C   UNL     1      -2.633  -1.984  24.773  0.00  0.00    +0.080 A 
ATOM     29  C   UNL     1      -2.632  -2.808  24.734  0.00  0.00    +0.017 A 
ATOM     30  C   UNL     1      -3.288  -3.207  24.433  0.00  0.00    +0.004 A 
ATOM     31  C   UNL     1      -3.945  -2.783  24.171  0.00  0.00    +0.037 A 
BRANCH   3   2
ATOM      1  C   UNL     1      -4.661  -0.726  24.104  0.00  0.00    +0.252 C 
ATOM      2  O   UNL     1      -4.603  -1.534  23.948  0.00  0.00    -0.471 OA
ENDBRANCH   3   2
ENDBRANCH   6   5
ENDBRANCH   9   7
ENDBRANCH  10   9
TORSDOF 6
ENDMDL
MODEL 4
REMARK VINA RESULT:     -10.2      1.743      2.724
REMARK  Name = 
REMARK  6 active torsions:
REMARK  status: ('A' for Active; 'I' for Inactive)
REMARK    1  A    between atoms: O_2  and  C_3
REMARK    2  A    between atoms: C_5  and  N_6
REMARK    3  A    between atoms: C_7  and  O_9
REMARK    4  A    between atoms: O_9  and  C_10
REMARK    5  A    between atoms: C_14  and  N_18
REMARK    6  A    between atoms: C_21  and  C_25
REMARK                            x       y       z     vdW  Elec       q    Type
REMARK                         _______ _______ _______ _____ _____    ______ ____
ROOT
ATOM     10  C   UNL     1      -4.165   2.700  24.434  0.00  0.00    +0.229 C 
ATOM     11  C   UNL     1      -3.947   2.473  23.672  0.00  0.00    +0.188 C 
ATOM     12  O   UNL     1      -4.076   1.661  23.602  0.00  0.00    -0.348 OA
ATOM     13  C   UNL     1      -4.374   1.387  24.320  0.00  0.00    +0.168 C 
ATOM     14  C   UNL     1      -4.639   0.717  24.722  0.00  0.00    +0.155 C 
ATOM     15  C   UNL     1      -4.858   0.945  25.484  0.00  0.00    +0.166 C 
ATOM     16  O   UNL     1      -4.728   1.756  25.553  0.00  0.00    -0.348 OA
ATOM     17  C   UNL     1      -4.429   2.030  24.834  0.00  0.00    +0.186 C 
ENDROOT
BRANCH  14  18
ATOM     18  N   UNL     1      -4.678  -0.048  24.414  0.00  0.00    -0.200 NA
ATOM     19  C   UNL     1      -4.174  -0.635  24.701  0.00  0.00    +0.236 A 
ATOM     20  N   UNL     1      -4.212  -1.399  24.395  0.00  0.00    -0.217 NA
ATOM     21  C   UNL     1      -3.708  -1.985  24.682  0.00  0.00    +0.063 A 
ATOM     22  C   UNL     1      -3.165  -1.807  25.276  0.00  0.00    +0.035 A 
ATOM     23  C   UNL     1      -3.126  -1.042  25.584  0.00  0.00    +0.103 A 
ATOM     24  N   UNL     1      -3.630  -0.456  25.296  0.00  0.00    -0.211 NA
BRANCH  21  25
ATOM     25  C   UNL     1      -3.747  -2.750  24.375  0.00  0.00    +0.036 C 
ATOM     26  C   UNL     1      -3.785  -3.515  24.068  0.00  0.00    +0.006 C 
ATOM     27  C   UNL     1      -4.179  -2.469  23.731  0.00  0.00    +0.006 C 
ATOM     28  C   UNL     1      -3.314  -3.030  25.019  0.00  0.00    +0.006 C 
ENDBRANCH  21  25
ENDBRANCH  14  18
BRANCH  10   9
ATOM      9  O   UNL     1      -4.126   3.465  24.741  0.00  0.00    -0.432 OA
BRANCH   9   7
ATOM      6  N   UNL     1      -2.893   3.941  25.285  0.00  0.00    -0.142 NA
ATOM      7  C   UNL     1      -3.434   3.907  24.663  0.00  0.00    +0.425 C 
ATOM      8  O   UNL     1      -3.282   4.315  23.961  0.00  0.00    -0.224 OA
BRANCH   6   5
ATOM      3  C   UNL     1      -0.782   4.441  25.044  0.00  0.00    +0.140 A 
ATOM      4  C   UNL     1      -1.475   4.000  25.122  0.00  0.00    +0.054 A 
ATOM      5  C   UNL     1      -2.201   4.383  25.206  0.00  0.00    +0.080 A 
ATOM     29  C   UNL     1      -2.234   5.207  25.212  0.00  0.00    +0.017 A 
ATOM     30  C   UNL     1      -1.541   5.648  25.133  0.00  0.00    +0.004 A 
ATOM     31  C   UNL     1      -0.815   5.265  25.049  0.00  0.00    +0.037 A 
BRANCH   3   2
ATOM      1  C   UNL     1       0.014   3.260  25.158  0.00  0.00    +0.252 C 
ATOM      2  O   UNL     1      -0.056   4.058  24.959  0.00  0.00    -0.471 OA
ENDBRANCH   3   2
ENDBRANCH   6   5
ENDBRANCH   9   7
ENDBRANCH  10   9
TORSDOF 6
ENDMDL
MODEL 5
REMARK VINA RESULT:      -9.5      2.975      5.121
REMARK  Name = 
REMARK  6 active torsions:
REMARK  status: ('A' for Active; 'I' for Inactive)
REMARK    1  A    between atoms: O_2  and  C_3
REMARK    2  A    between atoms: C_5  and  N_6
REMARK    3  A    between atoms: C_7  and  O_9
REMARK    4  A    between atoms: O_9  and  C_10
REMARK    5  A    between atoms: C_14  and  N_18
REMARK    6  A    between atoms: C_21  and  C_25
REMARK                            x       y       z     vdW  Elec       q    Type
REMARK                         _______ _______ _______ _____ _____    ______ ____
ROOT
ATOM     10  C   UNL     1       0.408   0.862  23.642  0.00  0.00    +0.229 C 
ATOM     11  C   UNL     1       0.555   1.624  23.921  0.00  0.00    +0.188 C 
ATOM     12  O   UNL     1      -0.116   1.881  24.326  0.00  0.00    -0.348 OA
ATOM     13  C   UNL     1      -0.678   1.278  24.297  0.00  0.00    +0.168 C 
ATOM     14  C   UNL     1      -1.440   1.063  24.528  0.00  0.00    +0.155 C 
ATOM     15  C   UNL     1      -1.587   0.301  24.249  0.00  0.00    +0.166 C 
ATOM     16  O   UNL     1      -0.915   0.045  23.845  0.00  0.00    -0.348 OA
ATOM     17  C   UNL     1      -0.353   0.649  23.874  0.00  0.00    +0.186 C 
ENDROOT
BRANCH  14  18
ATOM     18  N   UNL     1      -1.964   1.530  24.963  0.00  0.00    -0.200 NA
ATOM     19  C   UNL     1      -2.683   1.762  24.632  0.00  0.00    +0.236 A 
ATOM     20  N   UNL     1      -3.206   2.227  25.066  0.00  0.00    -0.217 NA
ATOM     21  C   UNL     1      -3.926   2.460  24.735  0.00  0.00    +0.063 A 
ATOM     22  C   UNL     1      -4.121   2.225  23.968  0.00  0.00    +0.035 A 
ATOM     23  C   UNL     1      -3.597   1.759  23.533  0.00  0.00    +0.103 A 
ATOM     24  N   UNL     1      -2.878   1.527  23.865  0.00  0.00    -0.211 NA
BRANCH  21  25
ATOM     25  C   UNL     1      -4.449   2.925  25.169  0.00  0.00    +0.036 C 
ATOM     26  C   UNL     1      -4.973   3.392  25.604  0.00  0.00    +0.006 C 
ATOM     27  C   UNL     1      -3.992   3.592  25.005  0.00  0.00    +0.006 C 
ATOM     28  C   UNL     1      -4.906   2.258  25.334  0.00  0.00    +0.006 C 
ENDBRANCH  21  25
ENDBRANCH  14  18
BRANCH  10   9
ATOM      9  O   UNL     1       0.932   0.396  23.207  0.00  0.00    -0.432 OA
BRANCH   9   7
ATOM      6  N   UNL     1       2.266   0.082  22.803  0.00  0.00    -0.142 NA
ATOM      7  C   UNL     1       1.744   0.538  23.248  0.00  0.00    +0.425 C 
ATOM      8  O   UNL     1       2.032   1.139  23.736  0.00  0.00    -0.224 OA
BRANCH   6   5
ATOM      3  C   UNL     1       4.382  -0.168  23.277  0.00  0.00    +0.140 A 
ATOM      4  C   UNL     1       3.571  -0.310  23.235  0.00  0.00    +0.054 A 
ATOM      5  C   UNL     1       3.078   0.224  22.845  0.00  0.00    +0.080 A 
ATOM     29  C   UNL     1       3.397   0.900  22.496  0.00  0.00    +0.017 A 
ATOM     30  C   UNL     1       4.209   1.042  22.537  0.00  0.00    +0.004 A 
ATOM     31  C   UNL     1       4.701   0.508  22.928  0.00  0.00    +0.037 A 
BRANCH   3   2
ATOM      1  C   UNL     1       5.450  -0.426  24.191  0.00  0.00    +0.252 C 
ATOM      2  O   UNL     1       4.875  -0.702  23.668  0.00  0.00    -0.471 OA
ENDBRANCH   3   2
ENDBRANCH   6   5
ENDBRANCH   9   7
ENDBRANCH  10   9
TORSDOF 6
ENDMDL
MODEL 6
REMARK VINA RESULT:      -9.2      2.856      4.857
REMARK  Name = 
REMARK  6 active torsions:
REMARK  status: ('A' for Active; 'I' for Inactive)
REMARK    1  A    between atoms: O_2  and  C_3
REMARK    2  A    between atoms: C_5  and  N_6
REMARK    3  A    between atoms: C_7  and  O_9
REMARK    4  A    between atoms: O_9  and  C_10
REMARK    5  A    between atoms: C_14  and  N_18
REMARK    6  A    between atoms: C_21  and  C_25
REMARK                            x       y       z     vdW  Elec       q    Type
REMARK                         _______ _______ _______ _____ _____    ______ ____
ROOT
ATOM     10  C   UNL     1      -1.645   1.421  23.838  0.00  0.00    +0.229 C 
ATOM     11  C   UNL     1      -1.310   2.170  23.922  0.00  0.00    +0.188 C 
ATOM     12  O   UNL     1      -0.491   2.080  23.949  0.00  0.00    -0.348 OA
ATOM     13  C   UNL     1      -0.319   1.277  23.881  0.00  0.00    +0.168 C 
ATOM     14  C   UNL     1       0.292   0.723  23.856  0.00  0.00    +0.155 C 
ATOM     15  C   UNL     1      -0.043  -0.025  23.772  0.00  0.00    +0.166 C 
ATOM     16  O   UNL     1      -0.862   0.064  23.745  0.00  0.00    -0.348 OA
ATOM     17  C   UNL     1      -1.033   0.869  23.813  0.00  0.00    +0.186 C 
ENDROOT
BRANCH  14  18
ATOM     18  N   UNL     1       1.099   0.891  23.906  0.00  0.00    -0.200 NA
ATOM     19  C   UNL     1       1.619   0.590  23.341  0.00  0.00    +0.236 A 
ATOM     20  N   UNL     1       2.425   0.757  23.390  0.00  0.00    -0.217 NA
ATOM     21  C   UNL     1       2.945   0.456  22.825  0.00  0.00    +0.063 A 
ATOM     22  C   UNL     1       2.659  -0.012  22.209  0.00  0.00    +0.035 A 
ATOM     23  C   UNL     1       1.852  -0.180  22.159  0.00  0.00    +0.103 A 
ATOM     24  N   UNL     1       1.333   0.122  22.725  0.00  0.00    -0.211 NA
BRANCH  21  25
ATOM     25  C   UNL     1       3.751   0.623  22.875  0.00  0.00    +0.036 C 
ATOM     26  C   UNL     1       4.558   0.790  22.925  0.00  0.00    +0.006 C 
ATOM     27  C   UNL     1       3.611   1.384  22.591  0.00  0.00    +0.006 C 
ATOM     28  C   UNL     1       3.891  -0.139  23.159  0.00  0.00    +0.006 C 
ENDBRANCH  21  25
ENDBRANCH  14  18
BRANCH  10   9
ATOM      9  O   UNL     1      -2.452   1.253  23.788  0.00  0.00    -0.432 OA
BRANCH   9   7
ATOM      6  N   UNL     1      -3.673   1.979  23.944  0.00  0.00    -0.142 NA
ATOM      7  C   UNL     1      -2.988   1.656  24.269  0.00  0.00    +0.425 C 
ATOM      8  O   UNL     1      -2.837   1.734  25.077  0.00  0.00    -0.224 OA
BRANCH   6   5
ATOM      3  C   UNL     1      -5.405   2.389  25.207  0.00  0.00    +0.140 A 
ATOM      4  C   UNL     1      -4.869   1.988  24.725  0.00  0.00    +0.054 A 
ATOM      5  C   UNL     1      -4.209   2.381  24.425  0.00  0.00    +0.080 A 
ATOM     29  C   UNL     1      -4.085   3.176  24.606  0.00  0.00    +0.017 A 
ATOM     30  C   UNL     1      -4.621   3.578  25.088  0.00  0.00    +0.004 A 
ATOM     31  C   UNL     1      -5.281   3.185  25.388  0.00  0.00    +0.037 A 
BRANCH   3   2
ATOM      1  C   UNL     1      -6.182   1.950  26.323  0.00  0.00    +0.252 C 
ATOM      2  O   UNL     1      -6.065   1.996  25.507  0.00  0.00    -0.471 OA
ENDBRANCH   3   2
ENDBRANCH   6   5
ENDBRANCH   9   7
ENDBRANCH  10   9
TORSDOF 6
ENDMDL
MODEL 7
REMARK VINA RESULT:      -8.7      2.673      4.227
REMARK  Name = 
REMARK  6 active torsions:
REMARK  status: ('A' for Active; 'I' for Inactive)
REMARK    1  A    between atoms: O_2  and  C_3
REMARK    2  A    between atoms: C_5  and  N_6
REMARK    3  A    between atoms: C_7  and  O_9
REMARK    4  A    between atoms: O_9  and  C_10
REMARK    5  A    between atoms: C_14  and  N_18
REMARK    6  A    between atoms: C_21  and  C_25
REMARK                            x       y       z     vdW  Elec       q    Type
REMARK                         _______ _______ _______ _____ _____    ______ ____
ROOT
ATOM     10  C   UNL     1      -1.426   3.557  25.323  0.00  0.00    +0.229 C 
ATOM     11  C   UNL     1      -1.187   3.962  24.646  0.00  0.00    +0.188 C 
ATOM     12  O   UNL     1      -0.556   3.549  24.312  0.00  0.00    -0.348 OA
ATOM     13  C   UNL     1      -0.404   2.890  24.782  0.00  0.00    +0.168 C 
ATOM     14  C   UNL     1       0.079   2.226  24.868  0.00  0.00    +0.155 C 
ATOM     15  C   UNL     1      -0.160   1.821  25.546  0.00  0.00    +0.166 C 
ATOM     16  O   UNL     1      -0.791   2.234  25.879  0.00  0.00    -0.348 OA
ATOM     17  C   UNL     1      -0.942   2.894  25.408  0.00  0.00    +0.186 C 
ENDROOT
BRANCH  14  18
ATOM     18  N   UNL     1       0.694   2.007  24.364  0.00  0.00    -0.200 NA
ATOM     19  C   UNL     1       0.680   1.271  23.991  0.00  0.00    +0.236 A 
ATOM     20  N   UNL     1       1.294   1.051  23.487  0.00  0.00    -0.217 NA
ATOM     21  C   UNL     1       1.280   0.315  23.114  0.00  0.00    +0.063 A 
ATOM     22  C   UNL     1       0.650  -0.201  23.246  0.00  0.00    +0.035 A 
ATOM     23  C   UNL     1       0.035   0.018  23.751  0.00  0.00    +0.103 A 
ATOM     24  N   UNL     1       0.050   0.754  24.123  0.00  0.00    -0.211 NA
BRANCH  21  25
ATOM     25  C   UNL     1       1.894   0.096  22.610  0.00  0.00    +0.036 C 
ATOM     26  C   UNL     1       2.509  -0.124  22.105  0.00  0.00    +0.006 C 
ATOM     27  C   UNL     1       1.348  -0.235  22.088  0.00  0.00    +0.006 C 
ATOM     28  C   UNL     1       2.441   0.427  23.132  0.00  0.00    +0.006 C 
ENDBRANCH  21  25
ENDBRANCH  14  18
BRANCH  10   9
ATOM      9  O   UNL     1      -2.041   3.776  25.828  0.00  0.00    -0.432 OA
BRANCH   9   7
ATOM      6  N   UNL     1      -3.380   3.307  25.998  0.00  0.00    -0.142 NA
ATOM      7  C   UNL     1      -2.823   3.736  25.567  0.00  0.00    +0.425 C 
ATOM      8  O   UNL     1      -3.047   4.126  24.875  0.00  0.00    -0.224 OA
BRANCH   6   5
ATOM      3  C   UNL     1      -5.220   2.543  25.108  0.00  0.00    +0.140 A 
ATOM      4  C   UNL     1      -4.439   2.583  25.368  0.00  0.00    +0.054 A 
ATOM      5  C   UNL     1      -4.162   3.267  25.737  0.00  0.00    +0.080 A 
ATOM     29  C   UNL     1      -4.666   3.910  25.846  0.00  0.00    +0.017 A 
ATOM     30  C   UNL     1      -5.448   3.870  25.585  0.00  0.00    +0.004 A 
ATOM     31  C   UNL     1      -5.725   3.186  25.216  0.00  0.00    +0.037 A 
BRANCH   3   2
ATOM      1  C   UNL     1      -6.243   1.561  24.929  0.00  0.00    +0.252 C 
ATOM      2  O   UNL     1      -5.497   1.859  24.739  0.00  0.00    -0.471 OA
ENDBRANCH   3   2
ENDBRANCH   6   5
ENDBRANCH   9   7
ENDBRANCH  10   9
TORSDOF 6
ENDMDL
MODEL 8
REMARK VINA RESULT:      -8.4      2.303      4.463
REMARK  Name = 
REMARK  6 active torsions:
REMARK  status: ('A' for Active; 'I' for Inactive)
REMARK    1  A    between atoms: O_2  and  C_3
REMARK    2  A    between atoms: C_5  and  N_6
REMARK    3  A    between atoms: C_7  and  O_9
REMARK    4  A    between atoms: O_9  and  C_10
REMARK    5  A    between atoms: C_14  and  N_18
REMARK    6  A    between atoms: C_21  and  C_25
REMARK                            x       y       z     vdW  Elec       q    Type
REMARK                         _______ _______ _______ _____ _____    ______ ____
ROOT
ATOM     10  C   UNL     1      -3.032  -0.827  24.918  0.00  0.00    +0.229 C 
ATOM     11  C   UNL     1      -3.032  -1.219  24.192  0.00  0.00    +0.188 C 
ATOM     12  O   UNL     1      -2.253  -1.261  23.926  0.00  0.00    -0.348 OA
ATOM     13  C   UNL     1      -1.771  -0.897  24.486  0.00  0.00    +0.168 C 
ATOM     14  C   UNL     1      -0.991  -0.697  24.669  0.00  0.00    +0.155 C 
ATOM     15  C   UNL     1      -0.991  -0.306  25.395  0.00  0.00    +0.166 C 
ATOM     16  O   UNL     1      -1.770  -0.263  25.662  0.00  0.00    -0.348 OA
ATOM     17  C   UNL     1      -2.252  -0.629  25.100  0.00  0.00    +0.186 C 
ENDROOT
BRANCH  14  18
ATOM     18  N   UNL     1      -0.328  -0.861  24.206  0.00  0.00    -0.200 NA
ATOM     19  C   UNL     1       0.124  -0.243  23.899  0.00  0.00    +0.236 A 
ATOM     20  N   UNL     1       0.787  -0.406  23.437  0.00  0.00    -0.217 NA
ATOM     21  C   UNL     1       1.238   0.212  23.130  0.00  0.00    +0.063 A 
ATOM     22  C   UNL     1       1.027   0.994  23.286  0.00  0.00    +0.035 A 
ATOM     23  C   UNL     1       0.364   1.158  23.749  0.00  0.00    +0.103 A 
ATOM     24  N   UNL     1      -0.087   0.539  24.055  0.00  0.00    -0.211 NA
BRANCH  21  25
ATOM     25  C   UNL     1       1.901   0.049  22.667  0.00  0.00    +0.036 C 
ATOM     26  C   UNL     1       2.565  -0.114  22.204  0.00  0.00    +0.006 C 
ATOM     27  C   UNL     1       1.425  -0.352  22.126  0.00  0.00    +0.006 C 
ATOM     28  C   UNL     1       2.378   0.451  23.208  0.00  0.00    +0.006 C 
ENDBRANCH  21  25
ENDBRANCH  14  18
BRANCH  10   9
ATOM      9  O   UNL     1      -3.695  -0.664  25.381  0.00  0.00    -0.432 OA
BRANCH   9   7
ATOM      6  N   UNL     1      -4.368   0.569  25.643  0.00  0.00    -0.142 NA
ATOM      7  C   UNL     1      -4.225  -0.076  25.150  0.00  0.00    +0.425 C 
ATOM      8  O   UNL     1      -4.613  -0.134  24.423  0.00  0.00    -0.224 OA
BRANCH   6   5
ATOM      3  C   UNL     1      -5.147   2.489  24.956  0.00  0.00    +0.140 A 
ATOM      4  C   UNL     1      -4.618   1.900  25.188  0.00  0.00    +0.054 A 
ATOM      5  C   UNL     1      -4.898   1.157  25.411  0.00  0.00    +0.080 A 
ATOM     29  C   UNL     1      -5.708   1.003  25.403  0.00  0.00    +0.017 A 
ATOM     30  C   UNL     1      -6.238   1.591  25.171  0.00  0.00    +0.004 A 
ATOM     31  C   UNL     1      -5.958   2.334  24.948  0.00  0.00    +0.037 A 
BRANCH   3   2
ATOM      1  C   UNL     1      -4.821   3.839  25.290  0.00  0.00    +0.252 C 
ATOM      2  O   UNL     1      -4.867   3.232  24.733  0.00  0.00    -0.471 OA
ENDBRANCH   3   2
ENDBRANCH   6   5
ENDBRANCH   9   7
ENDBRANCH  10   9
TORSDOF 6
ENDMDL
MODEL 9
REMARK VINA RESULT:      -7.5     14.363     16.747
REMARK  Name = 
REMARK  6 active torsions:
REMARK  status: ('A' for Active; 'I' for Inactive)
REMARK    1  A    between atoms: O_2  and  C_3
REMARK    2  A    between atoms: C_5  and  N_6
REMARK    3  A    between atoms: C_7  and  O_9
REMARK    4  A    between atoms: O_9  and  C_10
REMARK    5  A    between atoms: C_14  and  N_18
REMARK    6  A    between atoms: C_21  and  C_25
REMARK                            x       y       z     vdW  Elec       q    Type
REMARK                         _______ _______ _______ _____ _____    ______ ____
ROOT
ATOM     10  C   UNL     1      -5.582 -10.060  14.388  0.00  0.00    +0.229 C 
ATOM     11  C   UNL     1      -6.318  -9.868  14.068  0.00  0.00    +0.188 C 
ATOM     12  O   UNL     1      -6.267  -9.950  13.249  0.00  0.00    -0.348 OA
ATOM     13  C   UNL     1      -5.502 -10.191  13.062  0.00  0.00    +0.168 C 
ATOM     14  C   UNL     1      -4.996 -10.391  12.442  0.00  0.00    +0.155 C 
ATOM     15  C   UNL     1      -4.260 -10.582  12.762  0.00  0.00    +0.166 C 
ATOM     16  O   UNL     1      -4.311 -10.501  13.581  0.00  0.00    -0.348 OA
ATOM     17  C   UNL     1      -5.078 -10.259  13.767  0.00  0.00    +0.186 C 
ENDROOT
BRANCH  14  18
ATOM     18  N   UNL     1      -5.192 -10.398  11.640  0.00  0.00    -0.200 NA
ATOM     19  C   UNL     1      -4.669 -10.086  11.084  0.00  0.00    +0.236 A 
ATOM     20  N   UNL     1      -4.865 -10.093  10.283  0.00  0.00    -0.217 NA
ATOM     21  C   UNL     1      -4.341  -9.780   9.727  0.00  0.00    +0.063 A 
ATOM     22  C   UNL     1      -3.622  -9.460   9.973  0.00  0.00    +0.035 A 
ATOM     23  C   UNL     1      -3.425  -9.453  10.774  0.00  0.00    +0.103 A 
ATOM     24  N   UNL     1      -3.949  -9.766  11.330  0.00  0.00    -0.211 NA
BRANCH  21  25
ATOM     25  C   UNL     1      -4.537  -9.787   8.926  0.00  0.00    +0.036 C 
ATOM     26  C   UNL     1      -4.734  -9.794   8.125  0.00  0.00    +0.006 C 
ATOM     27  C   UNL     1      -4.276 -10.567   8.869  0.00  0.00    +0.006 C 
ATOM     28  C   UNL     1      -4.799  -9.006   8.984  0.00  0.00    +0.006 C 
ENDBRANCH  21  25
ENDBRANCH  14  18
BRANCH  10   9
ATOM      9  O   UNL     1      -5.386 -10.053  15.190  0.00  0.00    -0.432 OA
BRANCH   9   7
ATOM      6  N   UNL     1      -6.038  -9.587  16.372  0.00  0.00    -0.142 NA
ATOM      7  C   UNL     1      -5.976 -10.135  15.760  0.00  0.00    +0.425 C 
ATOM      8  O   UNL     1      -6.505 -10.768  15.717  0.00  0.00    -0.224 OA
BRANCH   6   5
ATOM      3  C   UNL     1      -7.929  -9.337  17.435  0.00  0.00    +0.140 A 
ATOM      4  C   UNL     1      -7.338  -9.255  16.865  0.00  0.00    +0.054 A 
ATOM      5  C   UNL     1      -6.629  -9.669  16.943  0.00  0.00    +0.080 A 
ATOM     29  C   UNL     1      -6.511 -10.166  17.590  0.00  0.00    +0.017 A 
ATOM     30  C   UNL     1      -7.101 -10.248  18.161  0.00  0.00    +0.004 A 
ATOM     31  C   UNL     1      -7.810  -9.834  18.083  0.00  0.00    +0.037 A 
BRANCH   3   2
ATOM      1  C   UNL     1      -9.356  -9.308  17.484  0.00  0.00    +0.252 C 
ATOM      2  O   UNL     1      -8.638  -8.922  17.358  0.00  0.00    -0.471 OA
ENDBRANCH   3   2
ENDBRANCH   6   5
ENDBRANCH   9   7
ENDBRANCH  10   9
TORSDOF 6
ENDMDL
