MODEL 1
REMARK VINA RESULT:     -11.7      0.000      0.000
REMARK  Name = 
REMARK  5 active torsions:
REMARK  status: ('A' for Active; 'I' for Inactive)
REMARK    1  A    between atoms: O_2  and  C_3
REMARK    2  A    between atoms: C_6  and  C_9
REMARK    3  A    between atoms: C_15  and  N_16
REMARK    4  A    between atoms: C_17  and  C_19
REMARK    5  A    between atoms: C_21  and  C_25
REMARK                            x       y       z     vdW  Elec       q    Type
REMARK                         _______ _______ _______ _____ _____    ______ ____
ROOT
ATOM      9  C   UNL     1      -4.324   0.644  24.865  0.00  0.00    +0.048 C 
ATOM     10  C   UNL     1      -5.097   0.931  24.857  0.00  0.00    +0.042 C 
ATOM     11  C   UNL     1      -5.062   1.754  24.895  0.00  0.00    +0.184 C 
ATOM     12  O   UNL     1      -5.709   2.267  24.901  0.00  0.00    -0.220 OA
ATOM     13  C   UNL     1      -4.268   1.975  24.927  0.00  0.00    +0.202 C 
ATOM     14  O   UNL     1      -3.981   2.748  24.969  0.00  0.00    -0.219 OA
ATOM     15  C   UNL     1      -3.811   1.289  24.908  0.00  0.00    +0.132 C 
ENDROOT
BRANCH   9   6
ATOM      3  C   UNL     1      -3.657  -1.738  24.775  0.00  0.00    +0.139 A 
ATOM      4  C   UNL     1      -3.610  -1.324  25.486  0.00  0.00    +0.037 A 
ATOM      5  C   UNL     1      -3.833  -0.529  25.516  0.00  0.00    -0.001 A 
ATOM      6  C   UNL     1      -4.101  -0.150  24.835  0.00  0.00    -0.020 A 
ATOM      7  C   UNL     1      -4.148  -0.565  24.124  0.00  0.00    -0.001 A 
ATOM      8  C   UNL     1      -3.925  -1.360  24.094  0.00  0.00    +0.037 A 
BRANCH   3   2
ATOM      1  C   UNL     1      -2.678  -2.740  24.489  0.00  0.00    +0.252 C 
ATOM      2  O   UNL     1      -3.434  -2.532  24.745  0.00  0.00    -0.471 OA
ENDBRANCH   3   2
ENDBRANCH   9   6
BRANCH  15  16
ATOM     16  N   UNL     1      -2.988   1.254  24.929  0.00  0.00    -0.200 NA
ATOM     17  C   UNL     1      -2.543   1.708  24.403  0.00  0.00    +0.265 C 
ATOM     18  O   UNL     1      -2.921   2.198  23.857  0.00  0.00    -0.268 OA
BRANCH  17  19
ATOM     19  C   UNL     1      -1.718   1.673  24.424  0.00  0.00    +0.056 A 
ATOM     20  C   UNL     1      -1.308   1.988  25.067  0.00  0.00    +0.015 A 
ATOM     21  C   UNL     1      -0.484   1.953  25.087  0.00  0.00    +0.069 A 
ATOM     22  C   UNL     1      -0.070   1.603  24.465  0.00  0.00    +0.010 A 
ATOM     23  C   UNL     1      -0.481   1.288  23.822  0.00  0.00    +0.001 A 
ATOM     24  C   UNL     1      -1.305   1.323  23.802  0.00  0.00    +0.005 A 
BRANCH  21  25
ATOM     25  C   UNL     1      -0.073   2.268  25.730  0.00  0.00    +0.100 C 
ATOM     26  N   UNL     1       0.337   2.583  26.372  0.00  0.00    -0.191 NA
ENDBRANCH  21  25
ENDBRANCH  17  19
ENDBRANCH  15  16
TORSDOF 5
ENDMDL
MODEL 2
REMARK VINA RESULT:     -11.5      1.509      3.638
REMARK  Name = 
REMARK  5 active torsions:
REMARK  status: ('A' for Active; 'I' for Inactive)
REMARK    1  A    between atoms: O_2  and  C_3
REMARK    2  A    between atoms: C_6  and  C_9
REMARK    3  A    between atoms: C_15  and  N_16
REMARK    4  A    between atoms: C_17  and  C_19
REMARK    5  A    between atoms: C_21  and  C_25
REMARK                            x       y       z     vdW  Elec       q    Type
REMARK                         _______ _______ _______ _____ _____    ______ ____
ROOT
ATOM      9  C   UNL     1      -3.839   2.256  24.705  0.00  0.00    +0.048 C 
ATOM     10  C   UNL     1      -4.303   2.880  24.981  0.00  0.00    +0.042 C 
ATOM     11  C   UNL     1      -5.068   2.597  25.095  0.00  0.00    +0.184 C 
ATOM     12  O   UNL     1      -5.713   3.036  25.366  0.00  0.00    -0.220 OA
ATOM     13  C   UNL     1      -5.078   1.798  24.890  0.00  0.00    +0.202 C 
ATOM     14  O   UNL     1      -5.734   1.297  24.921  0.00  0.00    -0.219 OA
ATOM     15  C   UNL     1      -4.319   1.587  24.649  0.00  0.00    +0.132 C 
ENDROOT
BRANCH   9   6
ATOM      3  C   UNL     1      -1.430   2.369  24.146  0.00  0.00    +0.139 A 
ATOM      4  C   UNL     1      -1.992   2.333  23.543  0.00  0.00    +0.037 A 
ATOM      5  C   UNL     1      -2.796   2.295  23.730  0.00  0.00    -0.001 A 
ATOM      6  C   UNL     1      -3.036   2.294  24.519  0.00  0.00    -0.020 A 
ATOM      7  C   UNL     1      -2.474   2.330  25.121  0.00  0.00    -0.001 A 
ATOM      8  C   UNL     1      -1.671   2.368  24.934  0.00  0.00    +0.037 A 
BRANCH   3   2
ATOM      1  C   UNL     1      -0.091   1.913  24.343  0.00  0.00    +0.252 C 
ATOM      2  O   UNL     1      -0.628   2.407  23.959  0.00  0.00    -0.471 OA
ENDBRANCH   3   2
ENDBRANCH   9   6
BRANCH  15  16
ATOM     16  N   UNL     1      -4.080   0.839  24.397  0.00  0.00    -0.200 NA
ATOM     17  C   UNL     1      -4.228   0.178  24.869  0.00  0.00    +0.265 C 
ATOM     18  O   UNL     1      -4.614   0.265  25.592  0.00  0.00    -0.268 OA
BRANCH  17  19
ATOM     19  C   UNL     1      -3.989  -0.571  24.617  0.00  0.00    +0.056 A 
ATOM     20  C   UNL     1      -3.253  -0.867  24.843  0.00  0.00    +0.015 A 
ATOM     21  C   UNL     1      -3.014  -1.616  24.591  0.00  0.00    +0.069 A 
ATOM     22  C   UNL     1      -3.512  -2.067  24.112  0.00  0.00    +0.010 A 
ATOM     23  C   UNL     1      -4.248  -1.771  23.886  0.00  0.00    +0.001 A 
ATOM     24  C   UNL     1      -4.486  -1.022  24.138  0.00  0.00    +0.005 A 
BRANCH  21  25
ATOM     25  C   UNL     1      -2.279  -1.912  24.817  0.00  0.00    +0.100 C 
ATOM     26  N   UNL     1      -1.543  -2.208  25.044  0.00  0.00    -0.191 NA
ENDBRANCH  21  25
ENDBRANCH  17  19
ENDBRANCH  15  16
TORSDOF 5
ENDMDL
MODEL 3
REMARK VINA RESULT:     -11.3      1.483      2.055
REMARK  Name = 
REMARK  5 active torsions:
REMARK  status: ('A' for Active; 'I' for Inactive)
REMARK    1  A    between atoms: O_2  and  C_3
REMARK    2  A    between atoms: C_6  and  C_9
REMARK    3  A    between atoms: C_15  and  N_16
REMARK    4  A    between atoms: C_17  and  C_19
REMARK    5  A    between atoms: C_21  and  C_25
REMARK                            x       y       z     vdW  Elec       q    Type
REMARK                         _______ _______ _______ _____ _____    ______ ____
ROOT
ATOM      9  C   UNL     1      -4.616   2.192  25.091  0.00  0.00    +0.048 C 
ATOM     10  C   UNL     1      -5.411   2.273  25.291  0.00  0.00    +0.042 C 
ATOM     11  C   UNL     1      -5.539   3.057  25.514  0.00  0.00    +0.184 C 
ATOM     12  O   UNL     1      -6.258   3.381  25.757  0.00  0.00    -0.220 OA
ATOM     13  C   UNL     1      -4.822   3.460  25.451  0.00  0.00    +0.202 C 
ATOM     14  O   UNL     1      -4.698   4.258  25.620  0.00  0.00    -0.219 OA
ATOM     15  C   UNL     1      -4.251   2.926  25.189  0.00  0.00    +0.132 C 
ENDROOT
BRANCH   9   6
ATOM      3  C   UNL     1      -3.513   0.112  24.326  0.00  0.00    +0.139 A 
ATOM      4  C   UNL     1      -3.636   0.731  23.797  0.00  0.00    +0.037 A 
ATOM      5  C   UNL     1      -4.004   1.425  24.052  0.00  0.00    -0.001 A 
ATOM      6  C   UNL     1      -4.248   1.498  24.836  0.00  0.00    -0.020 A 
ATOM      7  C   UNL     1      -4.125   0.879  25.365  0.00  0.00    -0.001 A 
ATOM      8  C   UNL     1      -3.757   0.185  25.110  0.00  0.00    +0.037 A 
BRANCH   3   2
ATOM      1  C   UNL     1      -3.521  -1.309  24.172  0.00  0.00    +0.252 C 
ATOM      2  O   UNL     1      -3.146  -0.582  24.072  0.00  0.00    -0.471 OA
ENDBRANCH   3   2
ENDBRANCH   9   6
BRANCH  15  16
ATOM     16  N   UNL     1      -3.456   3.094  25.051  0.00  0.00    -0.200 NA
ATOM     17  C   UNL     1      -3.022   3.519  25.609  0.00  0.00    +0.265 C 
ATOM     18  O   UNL     1      -3.382   3.776  26.305  0.00  0.00    -0.268 OA
BRANCH  17  19
ATOM     19  C   UNL     1      -2.226   3.689  25.471  0.00  0.00    +0.056 A 
ATOM     20  C   UNL     1      -1.641   3.179  25.751  0.00  0.00    +0.015 A 
ATOM     21  C   UNL     1      -0.845   3.348  25.613  0.00  0.00    +0.069 A 
ATOM     22  C   UNL     1      -0.635   4.027  25.194  0.00  0.00    +0.010 A 
ATOM     23  C   UNL     1      -1.220   4.537  24.914  0.00  0.00    +0.001 A 
ATOM     24  C   UNL     1      -2.016   4.368  25.052  0.00  0.00    +0.005 A 
BRANCH  21  25
ATOM     25  C   UNL     1      -0.260   2.838  25.893  0.00  0.00    +0.100 C 
ATOM     26  N   UNL     1       0.325   2.328  26.173  0.00  0.00    -0.191 NA
ENDBRANCH  21  25
ENDBRANCH  17  19
ENDBRANCH  15  16
TORSDOF 5
ENDMDL
MODEL 4
REMARK VINA RESULT:     -10.8      1.661      4.414
REMARK  Name = 
REMARK  5 active torsions:
REMARK  status: ('A' for Active; 'I' for Inactive)
REMARK    1  A    between atoms: O_2  and  C_3
REMARK    2  A    between atoms: C_6  and  C_9
REMARK    3  A    between atoms: C_15  and  N_16
REMARK    4  A    between atoms: C_17  and  C_19
REMARK    5  A    between atoms: C_21  and  C_25
REMARK                            x       y       z     vdW  Elec       q    Type
REMARK                         _______ _______ _______ _____ _____    ______ ____
ROOT
ATOM      9  C   UNL     1      -1.682   2.218  24.635  0.00  0.00    +0.048 C 
ATOM     10  C   UNL     1      -0.989   2.604  24.407  0.00  0.00    +0.042 C 
ATOM     11  C   UNL     1      -0.368   2.064  24.458  0.00  0.00    +0.184 C 
ATOM     12  O   UNL     1       0.423   2.217  24.281  0.00  0.00    -0.220 OA
ATOM     13  C   UNL     1      -0.676   1.344  24.718  0.00  0.00    +0.202 C 
ATOM     14  O   UNL     1      -0.247   0.651  24.846  0.00  0.00    -0.219 OA
ATOM     15  C   UNL     1      -1.488   1.439  24.827  0.00  0.00    +0.132 C 
ENDROOT
BRANCH   9   6
ATOM      3  C   UNL     1      -3.943   3.220  24.727  0.00  0.00    +0.139 A 
ATOM      4  C   UNL     1      -3.649   2.932  24.013  0.00  0.00    +0.037 A 
ATOM      5  C   UNL     1      -2.894   2.597  23.982  0.00  0.00    -0.001 A 
ATOM      6  C   UNL     1      -2.435   2.552  24.665  0.00  0.00    -0.020 A 
ATOM      7  C   UNL     1      -2.730   2.840  25.380  0.00  0.00    -0.001 A 
ATOM      8  C   UNL     1      -3.484   3.174  25.410  0.00  0.00    +0.037 A 
BRANCH   3   2
ATOM      1  C   UNL     1      -5.174   3.436  25.419  0.00  0.00    +0.252 C 
ATOM      2  O   UNL     1      -4.697   3.554  24.757  0.00  0.00    -0.471 OA
ENDBRANCH   3   2
ENDBRANCH   9   6
BRANCH  15  16
ATOM     16  N   UNL     1      -2.014   0.858  25.083  0.00  0.00    -0.200 NA
ATOM     17  C   UNL     1      -2.012   0.114  24.727  0.00  0.00    +0.265 C 
ATOM     18  O   UNL     1      -1.485  -0.048  24.114  0.00  0.00    -0.268 OA
BRANCH  17  19
ATOM     19  C   UNL     1      -2.539  -0.467  24.983  0.00  0.00    +0.056 A 
ATOM     20  C   UNL     1      -3.009  -0.868  24.436  0.00  0.00    +0.015 A 
ATOM     21  C   UNL     1      -3.535  -1.450  24.693  0.00  0.00    +0.069 A 
ATOM     22  C   UNL     1      -3.591  -1.630  25.496  0.00  0.00    +0.010 A 
ATOM     23  C   UNL     1      -3.121  -1.230  26.042  0.00  0.00    +0.001 A 
ATOM     24  C   UNL     1      -2.594  -0.648  25.786  0.00  0.00    +0.005 A 
BRANCH  21  25
ATOM     25  C   UNL     1      -4.006  -1.850  24.146  0.00  0.00    +0.100 C 
ATOM     26  N   UNL     1      -4.476  -2.251  23.599  0.00  0.00    -0.191 NA
ENDBRANCH  21  25
ENDBRANCH  17  19
ENDBRANCH  15  16
TORSDOF 5
ENDMDL
