REMARK  Name = 
REMARK  7 active torsions:
REMARK  status: ('A' for Active; 'I' for Inactive)
REMARK    1  A    between atoms: C_2  and  C_4
REMARK    2  A    between atoms: C_4  and  C_5
REMARK    3  A    between atoms: C_4  and  N_12
REMARK    4  A    between atoms: C_5  and  C_6
REMARK    5  A    between atoms: C_13  and  C_15
REMARK    6  A    between atoms: C_21  and  C_23
REMARK    7  A    between atoms: C_29  and  C_31
REMARK                            x       y       z     vdW  Elec       q    Type
REMARK                         _______ _______ _______ _____ _____    ______ ____
ROOT
ATOM     15  C   UNL     1       2.143  -2.888   0.000  0.00  0.00    +0.174 C 
ATOM     16  C   UNL     1       1.429  -2.475   0.000  0.00  0.00    +0.123 C 
ATOM     17  N   UNL     1       1.429  -1.650   0.000  0.00  0.00    -0.272 N 
ATOM     18  C   UNL     1       2.143  -1.238   0.000  0.00  0.00    +0.115 C 
ATOM     19  C   UNL     1       2.858  -1.650   0.000  0.00  0.00    +0.115 C 
ATOM     20  N   UNL     1       2.858  -2.475   0.000  0.00  0.00    -0.270 N 
ATOM     21  C   UNL     1       3.572  -2.888   0.000  0.00  0.00    +0.226 C 
ATOM     22  O   UNL     1       3.572  -3.712   0.000  0.00  0.00    -0.275 OA
ATOM     29  C   UNL     1       0.715  -1.238   0.000  0.00  0.00    +0.251 C 
ATOM     30  O   UNL     1       0.000  -1.650   0.000  0.00  0.00    -0.270 OA
ENDROOT
BRANCH  21  23
ATOM     23  C   UNL     1       4.287  -2.475   0.000  0.00  0.00    +0.080 C 
ATOM     24  C   UNL     1       4.287  -1.650   0.000  0.00  0.00    +0.028 C 
ATOM     25  C   UNL     1       5.001  -1.238   0.000  0.00  0.00    +0.089 C 
ATOM     26  N   UNL     1       5.716  -1.650   0.000  0.00  0.00    -0.218 NA
ATOM     27  C   UNL     1       5.716  -2.475   0.000  0.00  0.00    +0.089 C 
ATOM     28  C   UNL     1       5.001  -2.888   0.000  0.00  0.00    +0.028 C 
ENDBRANCH  21  23
BRANCH  29  31
ATOM     31  C   UNL     1       0.715  -0.412   0.000  0.00  0.00    +0.073 A 
ATOM     32  C   UNL     1       0.000   0.000   0.000  0.00  0.00    +0.103 A 
ATOM     33  N   UNL     1       0.000   0.825   0.000  0.00  0.00    -0.242 NA
ATOM     34  C   UNL     1       0.715   1.238   0.000  0.00  0.00    +0.099 A 
ATOM     35  C   UNL     1       1.429   0.825   0.000  0.00  0.00    +0.021 A 
ATOM     36  C   UNL     1       1.429   0.000   0.000  0.00  0.00    +0.008 A 
ENDBRANCH  29  31
BRANCH  15  13
ATOM     12  N   UNL     1       2.858  -4.125   0.000  0.00  0.00    -0.196 NA
ATOM     13  C   UNL     1       2.143  -3.712   0.000  0.00  0.00    +0.262 C 
ATOM     14  O   UNL     1       1.429  -4.125   0.000  0.00  0.00    -0.271 OA
BRANCH  12   4
ATOM      4  C   UNL     1       2.858  -4.950   0.000  0.00  0.00    +0.174 C 
BRANCH   4   2
ATOM      1  N   UNL     1       1.429  -4.950   0.000  0.00  0.00    -0.086 NA
ATOM      2  C   UNL     1       2.143  -5.362   0.000  0.00  0.00    +0.281 C 
ATOM      3  O   UNL     1       2.143  -6.188   0.000  0.00  0.00    -0.270 OA
ENDBRANCH   4   2
BRANCH   4   5
ATOM      5  C   UNL     1       3.572  -5.362   0.000  0.00  0.00    +0.031 C 
BRANCH   5   6
ATOM      6  C   UNL     1       3.572  -6.188   0.000  0.00  0.00    +0.002 C 
ATOM      7  C   UNL     1       4.287  -6.600   0.000  0.00  0.00    +0.000 C 
ATOM      8  C   UNL     1       4.287  -7.425   0.000  0.00  0.00    +0.000 C 
ATOM      9  C   UNL     1       3.572  -7.838   0.000  0.00  0.00    +0.000 C 
ATOM     10  C   UNL     1       2.858  -7.425   0.000  0.00  0.00    +0.000 C 
ATOM     11  C   UNL     1       2.858  -6.600   0.000  0.00  0.00    +0.000 C 
ENDBRANCH   5   6
ENDBRANCH   4   5
ENDBRANCH  12   4
ENDBRANCH  15  13
TORSDOF 7
