MODEL 1
REMARK VINA RESULT:     -11.8      0.000      0.000
REMARK  Name = 
REMARK  8 active torsions:
REMARK  status: ('A' for Active; 'I' for Inactive)
REMARK    1  A    between atoms: N_4  and  C_26
REMARK    2  A    between atoms: C_7  and  C_8
REMARK    3  A    between atoms: C_10  and  N_11
REMARK    4  A    between atoms: C_12  and  C_14
REMARK    5  A    between atoms: C_14  and  C_15
REMARK    6  A    between atoms: C_15  and  C_16
REMARK    7  A    between atoms: C_16  and  C_17
REMARK    8  A    between atoms: C_29  and  C_32
REMARK                            x       y       z     vdW  Elec       q    Type
REMARK                         _______ _______ _______ _____ _____    ______ ____
ROOT
ATOM      8  C   UNL     1      -4.527   2.271  25.085  0.00  0.00    +0.048 C 
ATOM      9  C   UNL     1      -3.816   2.562  25.383  0.00  0.00    +0.035 C 
ATOM     10  C   UNL     1      -3.844   3.385  25.353  0.00  0.00    +0.118 C 
ATOM     24  C   UNL     1      -4.574   3.603  25.035  0.00  0.00    -0.009 C 
ATOM     25  C   UNL     1      -4.996   2.915  24.870  0.00  0.00    -0.025 C 
ENDROOT
BRANCH   8   7
ATOM      1  C   UNL     1      -6.184   1.593  25.238  0.00  0.00    +0.054 C 
ATOM      2  C   UNL     1      -5.496   1.163  25.084  0.00  0.00    +0.077 A 
ATOM      3  N   UNL     1      -5.449   0.348  24.974  0.00  0.00    -0.170 NA
ATOM      4  N   UNL     1      -4.659   0.154  24.835  0.00  0.00    -0.234 N 
ATOM      5  C   UNL     1      -4.218   0.851  24.860  0.00  0.00    +0.058 A 
ATOM      6  C   UNL     1      -3.402   0.913  24.750  0.00  0.00    +0.052 C 
ATOM      7  C   UNL     1      -4.735   1.475  25.014  0.00  0.00    +0.010 A 
BRANCH   4  26
ATOM     26  C   UNL     1      -4.362  -0.603  24.696  0.00  0.00    +0.082 A 
ATOM     27  C   UNL     1      -3.985  -1.015  25.303  0.00  0.00    +0.019 A 
ATOM     28  C   UNL     1      -3.687  -1.772  25.164  0.00  0.00    -0.003 A 
ATOM     29  C   UNL     1      -3.767  -2.117  24.420  0.00  0.00    -0.023 A 
ATOM     30  C   UNL     1      -4.145  -1.704  23.812  0.00  0.00    -0.003 A 
ATOM     31  C   UNL     1      -4.442  -0.947  23.951  0.00  0.00    +0.019 A 
BRANCH  29  32
ATOM     32  C   UNL     1      -3.470  -2.874  24.280  0.00  0.00    +0.019 C 
ATOM     33  C   UNL     1      -3.174  -3.631  24.141  0.00  0.00    +0.004 C 
ATOM     34  C   UNL     1      -2.754  -2.657  24.628  0.00  0.00    +0.004 C 
ATOM     35  C   UNL     1      -4.186  -3.090  23.933  0.00  0.00    +0.004 C 
ENDBRANCH  29  32
ENDBRANCH   4  26
ENDBRANCH   8   7
BRANCH  10  11
ATOM     11  N   UNL     1      -3.248   3.901  25.596  0.00  0.00    -0.203 NA
ATOM     12  C   UNL     1      -2.566   3.990  25.140  0.00  0.00    +0.242 C 
ATOM     13  O   UNL     1      -2.479   3.562  24.440  0.00  0.00    -0.273 OA
BRANCH  12  14
ATOM     14  C   UNL     1      -1.971   4.506  25.385  0.00  0.00    +0.087 C 
BRANCH  14  15
ATOM     15  C   UNL     1      -1.185   4.351  25.190  0.00  0.00    +0.019 C 
ATOM     20  C   UNL     1      -1.237   3.789  25.792  0.00  0.00    +0.001 C 
ATOM     21  C   UNL     1      -0.507   3.411  25.851  0.00  0.00    +0.000 C 
ATOM     22  C   UNL     1      -0.003   3.739  25.287  0.00  0.00    +0.000 C 
ATOM     23  C   UNL     1      -0.422   4.319  24.878  0.00  0.00    +0.001 C 
BRANCH  15  16
ATOM     16  C   UNL     1      -1.297   4.945  24.629  0.00  0.00    +0.115 C 
BRANCH  16  17
ATOM     17  C   UNL     1      -0.975   5.695  24.751  0.00  0.00    +0.365 C 
ATOM     18  O   UNL     1      -0.240   5.886  24.430  0.00  0.00    -0.246 OA
ATOM     19  O   UNL     1      -1.389   6.253  25.196  0.00  0.00    -0.246 OA
ENDBRANCH  16  17
ENDBRANCH  15  16
ENDBRANCH  14  15
ENDBRANCH  12  14
ENDBRANCH  10  11
TORSDOF 8
ENDMDL
MODEL 2
REMARK VINA RESULT:     -11.2      2.063      6.103
REMARK  Name = 
REMARK  8 active torsions:
REMARK  status: ('A' for Active; 'I' for Inactive)
REMARK    1  A    between atoms: N_4  and  C_26
REMARK    2  A    between atoms: C_7  and  C_8
REMARK    3  A    between atoms: C_10  and  N_11
REMARK    4  A    between atoms: C_12  and  C_14
REMARK    5  A    between atoms: C_14  and  C_15
REMARK    6  A    between atoms: C_15  and  C_16
REMARK    7  A    between atoms: C_16  and  C_17
REMARK    8  A    between atoms: C_29  and  C_32
REMARK                            x       y       z     vdW  Elec       q    Type
REMARK                         _______ _______ _______ _____ _____    ______ ____
ROOT
ATOM      8  C   UNL     1      -4.534   1.440  25.106  0.00  0.00    +0.048 C 
ATOM      9  C   UNL     1      -4.123   0.783  25.388  0.00  0.00    +0.035 C 
ATOM     10  C   UNL     1      -4.540   0.107  25.169  0.00  0.00    +0.118 C 
ATOM     24  C   UNL     1      -5.210   0.346  24.751  0.00  0.00    -0.009 C 
ATOM     25  C   UNL     1      -5.206   1.169  24.712  0.00  0.00    -0.025 C 
ENDROOT
BRANCH   8   7
ATOM      1  C   UNL     1      -5.588   2.770  25.693  0.00  0.00    +0.054 C 
ATOM      2  C   UNL     1      -4.796   2.841  25.470  0.00  0.00    +0.077 A 
ATOM      3  N   UNL     1      -4.351   3.534  25.478  0.00  0.00    -0.170 NA
ATOM      4  N   UNL     1      -3.591   3.352  25.213  0.00  0.00    -0.234 N 
ATOM      5  C   UNL     1      -3.567   2.546  25.042  0.00  0.00    +0.058 A 
ATOM      6  C   UNL     1      -2.913   2.129  24.761  0.00  0.00    +0.052 C 
ATOM      7  C   UNL     1      -4.313   2.229  25.201  0.00  0.00    +0.010 A 
BRANCH   4  26
ATOM     26  C   UNL     1      -2.964   3.884  25.134  0.00  0.00    +0.082 A 
ATOM     27  C   UNL     1      -2.822   4.246  24.407  0.00  0.00    +0.019 A 
ATOM     28  C   UNL     1      -2.195   4.777  24.327  0.00  0.00    -0.003 A 
ATOM     29  C   UNL     1      -1.712   4.946  24.974  0.00  0.00    -0.023 A 
ATOM     30  C   UNL     1      -1.855   4.583  25.702  0.00  0.00    -0.003 A 
ATOM     31  C   UNL     1      -2.482   4.052  25.781  0.00  0.00    +0.019 A 
BRANCH  29  32
ATOM     32  C   UNL     1      -1.086   5.477  24.894  0.00  0.00    +0.019 C 
ATOM     33  C   UNL     1      -0.460   6.008  24.815  0.00  0.00    +0.004 C 
ATOM     34  C   UNL     1      -0.561   4.846  24.807  0.00  0.00    +0.004 C 
ATOM     35  C   UNL     1      -1.610   6.108  24.981  0.00  0.00    +0.004 C 
ENDBRANCH  29  32
ENDBRANCH   4  26
ENDBRANCH   8   7
BRANCH  10  11
ATOM     11  N   UNL     1      -4.326  -0.672  25.337  0.00  0.00    -0.203 NA
ATOM     12  C   UNL     1      -3.810  -1.076  24.837  0.00  0.00    +0.242 C 
ATOM     13  O   UNL     1      -3.507  -0.702  24.167  0.00  0.00    -0.273 OA
BRANCH  12  14
ATOM     14  C   UNL     1      -3.597  -1.855  25.006  0.00  0.00    +0.087 C 
BRANCH  14  15
ATOM     15  C   UNL     1      -2.937  -2.190  24.643  0.00  0.00    +0.019 C 
ATOM     20  C   UNL     1      -2.518  -1.790  25.232  0.00  0.00    +0.001 C 
ATOM     21  C   UNL     1      -1.716  -1.947  25.125  0.00  0.00    +0.000 C 
ATOM     22  C   UNL     1      -1.638  -2.444  24.471  0.00  0.00    +0.000 C 
ATOM     23  C   UNL     1      -2.392  -2.594  24.173  0.00  0.00    +0.001 C 
BRANCH  15  16
ATOM     16  C   UNL     1      -3.493  -2.520  24.131  0.00  0.00    +0.115 C 
BRANCH  16  17
ATOM     17  C   UNL     1      -3.758  -3.292  24.250  0.00  0.00    +0.365 C 
ATOM     18  O   UNL     1      -3.639  -3.661  24.978  0.00  0.00    -0.246 OA
ATOM     19  O   UNL     1      -4.141  -3.695  23.640  0.00  0.00    -0.246 OA
ENDBRANCH  16  17
ENDBRANCH  15  16
ENDBRANCH  14  15
ENDBRANCH  12  14
ENDBRANCH  10  11
TORSDOF 8
ENDMDL
MODEL 3
REMARK VINA RESULT:     -10.2      3.342      5.314
REMARK  Name = 
REMARK  8 active torsions:
REMARK  status: ('A' for Active; 'I' for Inactive)
REMARK    1  A    between atoms: N_4  and  C_26
REMARK    2  A    between atoms: C_7  and  C_8
REMARK    3  A    between atoms: C_10  and  N_11
REMARK    4  A    between atoms: C_12  and  C_14
REMARK    5  A    between atoms: C_14  and  C_15
REMARK    6  A    between atoms: C_15  and  C_16
REMARK    7  A    between atoms: C_16  and  C_17
REMARK    8  A    between atoms: C_29  and  C_32
REMARK                            x       y       z     vdW  Elec       q    Type
REMARK                         _______ _______ _______ _____ _____    ______ ____
ROOT
ATOM      8  C   UNL     1      -1.713  -0.147  24.655  0.00  0.00    +0.048 C 
ATOM      9  C   UNL     1      -2.316   0.224  24.233  0.00  0.00    +0.035 C 
ATOM     10  C   UNL     1      -2.928   0.393  24.758  0.00  0.00    +0.118 C 
ATOM     24  C   UNL     1      -2.703   0.127  25.506  0.00  0.00    -0.009 C 
ATOM     25  C   UNL     1      -1.953  -0.206  25.443  0.00  0.00    -0.025 C 
ENDROOT
BRANCH   8   7
ATOM      1  C   UNL     1      -1.163  -1.855  24.573  0.00  0.00    +0.054 C 
ATOM      2  C   UNL     1      -0.742  -1.196  24.308  0.00  0.00    +0.077 A 
ATOM      3  N   UNL     1       0.005  -1.207  23.959  0.00  0.00    -0.170 NA
ATOM      4  N   UNL     1       0.214  -0.429  23.781  0.00  0.00    -0.234 N 
ATOM      5  C   UNL     1      -0.404   0.063  24.020  0.00  0.00    +0.058 A 
ATOM      6  C   UNL     1      -0.426   0.885  23.946  0.00  0.00    +0.052 C 
ATOM      7  C   UNL     1      -0.995  -0.412  24.346  0.00  0.00    +0.010 A 
BRANCH   4  26
ATOM     26  C   UNL     1       0.919  -0.185  23.426  0.00  0.00    +0.082 A 
ATOM     27  C   UNL     1       1.142  -0.498  22.697  0.00  0.00    +0.019 A 
ATOM     28  C   UNL     1       1.846  -0.254  22.342  0.00  0.00    -0.003 A 
ATOM     29  C   UNL     1       2.326   0.302  22.716  0.00  0.00    -0.023 A 
ATOM     30  C   UNL     1       2.102   0.616  23.446  0.00  0.00    -0.003 A 
ATOM     31  C   UNL     1       1.398   0.372  23.801  0.00  0.00    +0.019 A 
BRANCH  29  32
ATOM     32  C   UNL     1       3.030   0.546  22.361  0.00  0.00    +0.019 C 
ATOM     33  C   UNL     1       3.734   0.790  22.007  0.00  0.00    +0.004 C 
ATOM     34  C   UNL     1       2.868   0.065  21.710  0.00  0.00    +0.004 C 
ATOM     35  C   UNL     1       3.191   1.026  23.012  0.00  0.00    +0.004 C 
ENDBRANCH  29  32
ENDBRANCH   4  26
ENDBRANCH   8   7
BRANCH  10  11
ATOM     11  N   UNL     1      -3.641   0.764  24.570  0.00  0.00    -0.203 NA
ATOM     12  C   UNL     1      -3.784   1.536  24.820  0.00  0.00    +0.242 C 
ATOM     13  O   UNL     1      -3.215   1.940  25.259  0.00  0.00    -0.273 OA
BRANCH  12  14
ATOM     14  C   UNL     1      -4.498   1.906  24.632  0.00  0.00    +0.087 C 
BRANCH  14  15
ATOM     15  C   UNL     1      -4.671   2.651  24.941  0.00  0.00    +0.019 C 
ATOM     20  C   UNL     1      -4.249   2.925  24.287  0.00  0.00    +0.001 C 
ATOM     21  C   UNL     1      -4.242   3.749  24.315  0.00  0.00    +0.000 C 
ATOM     22  C   UNL     1      -4.659   3.984  24.987  0.00  0.00    +0.000 C 
ATOM     23  C   UNL     1      -4.924   3.306  25.373  0.00  0.00    +0.001 C 
BRANCH  15  16
ATOM     16  C   UNL     1      -5.056   2.221  25.530  0.00  0.00    +0.115 C 
BRANCH  16  17
ATOM     17  C   UNL     1      -5.876   2.274  25.611  0.00  0.00    +0.365 C 
ATOM     18  O   UNL     1      -6.368   2.017  25.001  0.00  0.00    -0.246 OA
ATOM     19  O   UNL     1      -6.203   2.584  26.302  0.00  0.00    -0.246 OA
ENDBRANCH  16  17
ENDBRANCH  15  16
ENDBRANCH  14  15
ENDBRANCH  12  14
ENDBRANCH  10  11
TORSDOF 8
ENDMDL
MODEL 4
REMARK VINA RESULT:      -9.5      3.364      5.316
REMARK  Name = 
REMARK  8 active torsions:
REMARK  status: ('A' for Active; 'I' for Inactive)
REMARK    1  A    between atoms: N_4  and  C_26
REMARK    2  A    between atoms: C_7  and  C_8
REMARK    3  A    between atoms: C_10  and  N_11
REMARK    4  A    between atoms: C_12  and  C_14
REMARK    5  A    between atoms: C_14  and  C_15
REMARK    6  A    between atoms: C_15  and  C_16
REMARK    7  A    between atoms: C_16  and  C_17
REMARK    8  A    between atoms: C_29  and  C_32
REMARK                            x       y       z     vdW  Elec       q    Type
REMARK                         _______ _______ _______ _____ _____    ______ ____
ROOT
ATOM      8  C   UNL     1      -1.270   1.438  24.653  0.00  0.00    +0.048 C 
ATOM      9  C   UNL     1      -1.939   1.705  24.253  0.00  0.00    +0.035 C 
ATOM     10  C   UNL     1      -2.363   2.194  24.764  0.00  0.00    +0.118 C 
ATOM     24  C   UNL     1      -1.956   2.228  25.481  0.00  0.00    -0.009 C 
ATOM     25  C   UNL     1      -1.280   1.761  25.412  0.00  0.00    -0.025 C 
ENDROOT
BRANCH   8   7
ATOM      1  C   UNL     1      -1.326  -0.358  24.647  0.00  0.00    +0.054 C 
ATOM      2  C   UNL     1      -0.716   0.110  24.346  0.00  0.00    +0.077 A 
ATOM      3  N   UNL     1      -0.026  -0.166  23.989  0.00  0.00    -0.170 NA
ATOM      4  N   UNL     1       0.427   0.489  23.771  0.00  0.00    -0.234 N 
ATOM      5  C   UNL     1       0.016   1.169  23.993  0.00  0.00    +0.058 A 
ATOM      6  C   UNL     1       0.268   1.947  23.880  0.00  0.00    +0.052 C 
ATOM      7  C   UNL     1      -0.691   0.935  24.349  0.00  0.00    +0.010 A 
BRANCH   4  26
ATOM     26  C   UNL     1       1.162   0.468  23.396  0.00  0.00    +0.082 A 
ATOM     27  C   UNL     1       1.774   0.953  23.663  0.00  0.00    +0.019 A 
ATOM     28  C   UNL     1       2.509   0.931  23.288  0.00  0.00    -0.003 A 
ATOM     29  C   UNL     1       2.632   0.426  22.649  0.00  0.00    -0.023 A 
ATOM     30  C   UNL     1       2.019  -0.060  22.382  0.00  0.00    -0.003 A 
ATOM     31  C   UNL     1       1.284  -0.038  22.757  0.00  0.00    +0.019 A 
BRANCH  29  32
ATOM     32  C   UNL     1       3.367   0.404  22.274  0.00  0.00    +0.019 C 
ATOM     33  C   UNL     1       4.101   0.383  21.899  0.00  0.00    +0.004 C 
ATOM     34  C   UNL     1       3.708   0.785  22.922  0.00  0.00    +0.004 C 
ATOM     35  C   UNL     1       3.025   0.024  21.627  0.00  0.00    +0.004 C 
ENDBRANCH  29  32
ENDBRANCH   4  26
ENDBRANCH   8   7
BRANCH  10  11
ATOM     11  N   UNL     1      -3.071   2.581  24.590  0.00  0.00    -0.203 NA
ATOM     12  C   UNL     1      -3.774   2.338  24.948  0.00  0.00    +0.242 C 
ATOM     13  O   UNL     1      -3.770   1.707  25.480  0.00  0.00    -0.273 OA
BRANCH  12  14
ATOM     14  C   UNL     1      -4.481   2.726  24.774  0.00  0.00    +0.087 C 
BRANCH  14  15
ATOM     15  C   UNL     1      -5.176   2.511  25.163  0.00  0.00    +0.019 C 
ATOM     20  C   UNL     1      -5.201   1.907  24.602  0.00  0.00    +0.001 C 
ATOM     21  C   UNL     1      -5.875   1.455  24.745  0.00  0.00    +0.000 C 
ATOM     22  C   UNL     1      -6.267   1.779  25.395  0.00  0.00    +0.000 C 
ATOM     23  C   UNL     1      -5.835   2.432  25.653  0.00  0.00    +0.001 C 
BRANCH  15  16
ATOM     16  C   UNL     1      -5.005   3.160  25.643  0.00  0.00    +0.115 C 
BRANCH  16  17
ATOM     17  C   UNL     1      -5.420   3.867  25.545  0.00  0.00    +0.365 C 
ATOM     18  O   UNL     1      -6.050   4.048  26.046  0.00  0.00    -0.246 OA
ATOM     19  O   UNL     1      -5.205   4.392  24.946  0.00  0.00    -0.246 OA
ENDBRANCH  16  17
ENDBRANCH  15  16
ENDBRANCH  14  15
ENDBRANCH  12  14
ENDBRANCH  10  11
TORSDOF 8
ENDMDL
MODEL 5
REMARK VINA RESULT:      -9.4      2.946      6.765
REMARK  Name = 
REMARK  8 active torsions:
REMARK  status: ('A' for Active; 'I' for Inactive)
REMARK    1  A    between atoms: N_4  and  C_26
REMARK    2  A    between atoms: C_7  and  C_8
REMARK    3  A    between atoms: C_10  and  N_11
REMARK    4  A    between atoms: C_12  and  C_14
REMARK    5  A    between atoms: C_14  and  C_15
REMARK    6  A    between atoms: C_15  and  C_16
REMARK    7  A    between atoms: C_16  and  C_17
REMARK    8  A    between atoms: C_29  and  C_32
REMARK                            x       y       z     vdW  Elec       q    Type
REMARK                         _______ _______ _______ _____ _____    ______ ____
ROOT
ATOM      8  C   UNL     1      -0.104   0.262  24.141  0.00  0.00    +0.048 C 
ATOM      9  C   UNL     1      -0.651  -0.160  24.589  0.00  0.00    +0.035 C 
ATOM     10  C   UNL     1      -0.626  -0.948  24.347  0.00  0.00    +0.118 C 
ATOM     24  C   UNL     1      -0.062  -1.013  23.749  0.00  0.00    -0.009 C 
ATOM     25  C   UNL     1       0.261  -0.266  23.621  0.00  0.00    -0.025 C 
ENDROOT
BRANCH   8   7
ATOM      1  C   UNL     1       1.482   1.055  23.850  0.00  0.00    +0.054 C 
ATOM      2  C   UNL     1       0.781   1.435  24.067  0.00  0.00    +0.077 A 
ATOM      3  N   UNL     1       0.687   2.245  24.187  0.00  0.00    -0.170 NA
ATOM      4  N   UNL     1      -0.100   2.382  24.395  0.00  0.00    -0.234 N 
ATOM      5  C   UNL     1      -0.492   1.655  24.403  0.00  0.00    +0.058 A 
ATOM      6  C   UNL     1      -1.288   1.536  24.583  0.00  0.00    +0.052 C 
ATOM      7  C   UNL     1       0.053   1.070  24.200  0.00  0.00    +0.010 A 
BRANCH   4  26
ATOM     26  C   UNL     1      -0.436   3.116  24.566  0.00  0.00    +0.082 A 
ATOM     27  C   UNL     1      -0.564   3.661  23.960  0.00  0.00    +0.019 A 
ATOM     28  C   UNL     1      -0.900   4.395  24.131  0.00  0.00    -0.003 A 
ATOM     29  C   UNL     1      -1.109   4.583  24.905  0.00  0.00    -0.023 A 
ATOM     30  C   UNL     1      -0.981   4.038  25.512  0.00  0.00    -0.003 A 
ATOM     31  C   UNL     1      -0.645   3.304  25.341  0.00  0.00    +0.019 A 
BRANCH  29  32
ATOM     32  C   UNL     1      -1.445   5.318  25.076  0.00  0.00    +0.019 C 
ATOM     33  C   UNL     1      -1.782   6.051  25.246  0.00  0.00    +0.004 C 
ATOM     34  C   UNL     1      -0.797   5.695  24.731  0.00  0.00    +0.004 C 
ATOM     35  C   UNL     1      -2.092   4.940  25.421  0.00  0.00    +0.004 C 
ENDBRANCH  29  32
ENDBRANCH   4  26
ENDBRANCH   8   7
BRANCH  10  11
ATOM     11  N   UNL     1      -1.084  -1.564  24.650  0.00  0.00    -0.203 NA
ATOM     12  C   UNL     1      -1.854  -1.680  24.377  0.00  0.00    +0.242 C 
ATOM     13  O   UNL     1      -2.167  -1.180  23.800  0.00  0.00    -0.273 OA
BRANCH  12  14
ATOM     14  C   UNL     1      -2.311  -2.297  24.680  0.00  0.00    +0.087 C 
BRANCH  14  15
ATOM     15  C   UNL     1      -3.129  -2.295  24.573  0.00  0.00    +0.019 C 
ATOM     20  C   UNL     1      -2.965  -2.842  23.977  0.00  0.00    +0.001 C 
ATOM     21  C   UNL     1      -3.680  -3.063  23.631  0.00  0.00    +0.000 C 
ATOM     22  C   UNL     1      -4.285  -2.654  24.013  0.00  0.00    +0.000 C 
ATOM     23  C   UNL     1      -3.945  -2.179  24.595  0.00  0.00    +0.001 C 
BRANCH  15  16
ATOM     16  C   UNL     1      -3.121  -1.749  25.191  0.00  0.00    +0.115 C 
BRANCH  16  17
ATOM     17  C   UNL     1      -3.444  -1.950  25.924  0.00  0.00    +0.365 C 
ATOM     18  O   UNL     1      -3.371  -2.720  26.210  0.00  0.00    -0.246 OA
ATOM     19  O   UNL     1      -3.841  -1.379  26.369  0.00  0.00    -0.246 OA
ENDBRANCH  16  17
ENDBRANCH  15  16
ENDBRANCH  14  15
ENDBRANCH  12  14
ENDBRANCH  10  11
TORSDOF 8
ENDMDL
MODEL 6
REMARK VINA RESULT:      -9.3      2.066      3.212
REMARK  Name = 
REMARK  8 active torsions:
REMARK  status: ('A' for Active; 'I' for Inactive)
REMARK    1  A    between atoms: N_4  and  C_26
REMARK    2  A    between atoms: C_7  and  C_8
REMARK    3  A    between atoms: C_10  and  N_11
REMARK    4  A    between atoms: C_12  and  C_14
REMARK    5  A    between atoms: C_14  and  C_15
REMARK    6  A    between atoms: C_15  and  C_16
REMARK    7  A    between atoms: C_16  and  C_17
REMARK    8  A    between atoms: C_29  and  C_32
REMARK                            x       y       z     vdW  Elec       q    Type
REMARK                         _______ _______ _______ _____ _____    ______ ____
ROOT
ATOM      8  C   UNL     1      -0.316   0.994  24.709  0.00  0.00    +0.048 C 
ATOM      9  C   UNL     1      -0.772   1.537  25.130  0.00  0.00    +0.035 C 
ATOM     10  C   UNL     1      -0.306   2.200  25.280  0.00  0.00    +0.118 C 
ATOM     24  C   UNL     1       0.439   2.067  24.950  0.00  0.00    -0.009 C 
ATOM     25  C   UNL     1       0.433   1.323  24.598  0.00  0.00    -0.025 C 
ENDROOT
BRANCH   8   7
ATOM      1  C   UNL     1       0.635  -0.136  23.688  0.00  0.00    +0.054 C 
ATOM      2  C   UNL     1      -0.127  -0.267  23.976  0.00  0.00    +0.077 A 
ATOM      3  N   UNL     1      -0.586  -0.940  23.845  0.00  0.00    -0.170 NA
ATOM      4  N   UNL     1      -1.306  -0.836  24.234  0.00  0.00    -0.234 N 
ATOM      5  C   UNL     1      -1.293  -0.100  24.604  0.00  0.00    +0.058 A 
ATOM      6  C   UNL     1      -1.902   0.228  25.056  0.00  0.00    +0.052 C 
ATOM      7  C   UNL     1      -0.563   0.253  24.445  0.00  0.00    +0.010 A 
BRANCH   4  26
ATOM     26  C   UNL     1      -1.931  -1.375  24.249  0.00  0.00    +0.082 A 
ATOM     27  C   UNL     1      -2.670  -1.157  23.956  0.00  0.00    +0.019 A 
ATOM     28  C   UNL     1      -3.295  -1.696  23.971  0.00  0.00    -0.003 A 
ATOM     29  C   UNL     1      -3.181  -2.452  24.278  0.00  0.00    -0.023 A 
ATOM     30  C   UNL     1      -2.441  -2.671  24.572  0.00  0.00    -0.003 A 
ATOM     31  C   UNL     1      -1.816  -2.132  24.556  0.00  0.00    +0.019 A 
BRANCH  29  32
ATOM     32  C   UNL     1      -3.806  -2.991  24.293  0.00  0.00    +0.019 C 
ATOM     33  C   UNL     1      -4.430  -3.530  24.309  0.00  0.00    +0.004 C 
ATOM     34  C   UNL     1      -4.235  -2.508  23.779  0.00  0.00    +0.004 C 
ATOM     35  C   UNL     1      -3.377  -3.473  24.807  0.00  0.00    +0.004 C 
ENDBRANCH  29  32
ENDBRANCH   4  26
ENDBRANCH   8   7
BRANCH  10  11
ATOM     11  N   UNL     1      -0.542   2.878  25.687  0.00  0.00    -0.203 NA
ATOM     12  C   UNL     1      -0.976   3.463  25.299  0.00  0.00    +0.242 C 
ATOM     13  O   UNL     1      -1.174   3.370  24.504  0.00  0.00    -0.273 OA
BRANCH  12  14
ATOM     14  C   UNL     1      -1.211   4.140  25.707  0.00  0.00    +0.087 C 
BRANCH  14  15
ATOM     15  C   UNL     1      -1.750   4.662  25.363  0.00  0.00    +0.019 C 
ATOM     20  C   UNL     1      -1.077   5.105  25.187  0.00  0.00    +0.001 C 
ATOM     21  C   UNL     1      -1.317   5.785  24.787  0.00  0.00    +0.000 C 
ATOM     22  C   UNL     1      -2.139   5.762  24.716  0.00  0.00    +0.000 C 
ATOM     23  C   UNL     1      -2.406   5.068  25.072  0.00  0.00    +0.001 C 
BRANCH  15  16
ATOM     16  C   UNL     1      -2.311   4.110  25.611  0.00  0.00    +0.115 C 
BRANCH  16  17
ATOM     17  C   UNL     1      -2.925   4.340  26.111  0.00  0.00    +0.365 C 
ATOM     18  O   UNL     1      -3.708   4.275  25.861  0.00  0.00    -0.246 OA
ATOM     19  O   UNL     1      -2.755   4.637  26.863  0.00  0.00    -0.246 OA
ENDBRANCH  16  17
ENDBRANCH  15  16
ENDBRANCH  14  15
ENDBRANCH  12  14
ENDBRANCH  10  11
TORSDOF 8
ENDMDL
