MODEL 1
REMARK VINA RESULT:     -10.0      0.000      0.000
REMARK  Name = 
REMARK  5 active torsions:
REMARK  status: ('A' for Active; 'I' for Inactive)
REMARK    1  A    between atoms: C_5  and  C_6
REMARK    2  A    between atoms: C_6  and  C_7
REMARK    3  A    between atoms: C_15  and  C_16
REMARK    4  A    between atoms: C_16  and  N_17
REMARK    5  A    between atoms: C_18  and  C_20
REMARK                            x       y       z     vdW  Elec       q    Type
REMARK                         _______ _______ _______ _____ _____    ______ ____
ROOT
ATOM      1  O   UNL     1      -5.616   3.266  25.413  0.00  0.00    -0.218 OA
ATOM      2  C   UNL     1      -5.097   2.653  25.227  0.00  0.00    +0.213 C 
ATOM      3  C   UNL     1      -5.308   1.904  24.953  0.00  0.00    +0.212 C 
ATOM      4  O   UNL     1      -6.077   1.638  24.816  0.00  0.00    -0.218 OA
ATOM      5  C   UNL     1      -4.616   1.470  24.840  0.00  0.00    +0.157 C 
ATOM     14  O   UNL     1      -3.978   1.949  25.044  0.00  0.00    -0.351 OA
ATOM     15  C   UNL     1      -4.274   2.681  25.284  0.00  0.00    +0.170 C 
ENDROOT
BRANCH   5   6
ATOM      6  C   UNL     1      -4.571   0.691  24.569  0.00  0.00    +0.117 C 
BRANCH   6   7
ATOM      7  C   UNL     1      -4.154   0.127  25.004  0.00  0.00    +0.228 C 
ATOM      8  O   UNL     1      -3.840   0.323  25.740  0.00  0.00    -0.275 OA
ATOM      9  N   UNL     1      -4.052  -0.634  24.700  0.00  0.00    -0.279 N 
ATOM     10  C   UNL     1      -3.650  -1.252  25.070  0.00  0.00    +0.093 C 
ATOM     11  C   UNL     1      -3.684  -1.910  24.572  0.00  0.00    +0.023 C 
ATOM     12  C   UNL     1      -4.106  -1.697  23.897  0.00  0.00    +0.023 C 
ATOM     13  C   UNL     1      -4.334  -0.908  23.975  0.00  0.00    +0.093 C 
ENDBRANCH   6   7
ENDBRANCH   5   6
BRANCH  15  16
ATOM     16  C   UNL     1      -3.827   3.327  25.535  0.00  0.00    +0.147 C 
BRANCH  16  17
ATOM     17  N   UNL     1      -3.041   3.402  25.297  0.00  0.00    -0.203 NA
ATOM     18  C   UNL     1      -2.559   3.979  25.638  0.00  0.00    +0.241 C 
ATOM     19  O   UNL     1      -2.864   4.480  26.218  0.00  0.00    -0.273 OA
BRANCH  18  20
ATOM     20  C   UNL     1      -1.773   4.054  25.400  0.00  0.00    +0.078 C 
ATOM     21  C   UNL     1      -1.167   4.503  25.067  0.00  0.00    +0.010 C 
ATOM     22  C   UNL     1      -1.017   3.733  25.321  0.00  0.00    +0.010 C 
ENDBRANCH  18  20
ENDBRANCH  16  17
ENDBRANCH  15  16
TORSDOF 5
ENDMDL
MODEL 2
REMARK VINA RESULT:      -9.6      0.886      4.336
REMARK  Name = 
REMARK  5 active torsions:
REMARK  status: ('A' for Active; 'I' for Inactive)
REMARK    1  A    between atoms: C_5  and  C_6
REMARK    2  A    between atoms: C_6  and  C_7
REMARK    3  A    between atoms: C_15  and  C_16
REMARK    4  A    between atoms: C_16  and  N_17
REMARK    5  A    between atoms: C_18  and  C_20
REMARK                            x       y       z     vdW  Elec       q    Type
REMARK                         _______ _______ _______ _____ _____    ______ ____
ROOT
ATOM      1  O   UNL     1      -6.187   1.683  25.045  0.00  0.00    -0.218 OA
ATOM      2  C   UNL     1      -5.399   1.928  25.032  0.00  0.00    +0.213 C 
ATOM      3  C   UNL     1      -5.126   2.692  25.178  0.00  0.00    +0.212 C 
ATOM      4  O   UNL     1      -5.593   3.346  25.364  0.00  0.00    -0.218 OA
ATOM      5  C   UNL     1      -4.304   2.686  25.107  0.00  0.00    +0.157 C 
ATOM     14  O   UNL     1      -4.069   1.920  24.916  0.00  0.00    -0.351 OA
ATOM     15  C   UNL     1      -4.746   1.450  24.870  0.00  0.00    +0.170 C 
ENDROOT
BRANCH   5   6
ATOM      6  C   UNL     1      -3.804   3.336  25.208  0.00  0.00    +0.117 C 
BRANCH   6   7
ATOM      7  C   UNL     1      -3.151   3.435  24.714  0.00  0.00    +0.228 C 
ATOM      8  O   UNL     1      -3.154   3.110  23.957  0.00  0.00    -0.275 OA
ATOM      9  N   UNL     1      -2.495   3.860  24.978  0.00  0.00    -0.279 N 
ATOM     10  C   UNL     1      -1.806   4.004  24.548  0.00  0.00    +0.093 C 
ATOM     11  C   UNL     1      -1.298   4.449  25.023  0.00  0.00    +0.023 C 
ATOM     12  C   UNL     1      -1.673   4.579  25.745  0.00  0.00    +0.023 C 
ATOM     13  C   UNL     1      -2.414   4.215  25.718  0.00  0.00    +0.093 C 
ENDBRANCH   6   7
ENDBRANCH   5   6
BRANCH  15  16
ATOM     16  C   UNL     1      -4.766   0.645  24.692  0.00  0.00    +0.147 C 
BRANCH  16  17
ATOM     17  N   UNL     1      -4.264   0.123  25.087  0.00  0.00    -0.203 NA
ATOM     18  C   UNL     1      -4.174  -0.651  24.813  0.00  0.00    +0.241 C 
ATOM     19  O   UNL     1      -4.586  -0.901  24.144  0.00  0.00    -0.273 OA
BRANCH  18  20
ATOM     20  C   UNL     1      -3.671  -1.173  25.208  0.00  0.00    +0.078 C 
ATOM     21  C   UNL     1      -3.245  -1.381  25.882  0.00  0.00    +0.010 C 
ATOM     22  C   UNL     1      -3.228  -1.868  25.216  0.00  0.00    +0.010 C 
ENDBRANCH  18  20
ENDBRANCH  16  17
ENDBRANCH  15  16
TORSDOF 5
ENDMDL
MODEL 3
REMARK VINA RESULT:      -9.1      2.409      5.357
REMARK  Name = 
REMARK  5 active torsions:
REMARK  status: ('A' for Active; 'I' for Inactive)
REMARK    1  A    between atoms: C_5  and  C_6
REMARK    2  A    between atoms: C_6  and  C_7
REMARK    3  A    between atoms: C_15  and  C_16
REMARK    4  A    between atoms: C_16  and  N_17
REMARK    5  A    between atoms: C_18  and  C_20
REMARK                            x       y       z     vdW  Elec       q    Type
REMARK                         _______ _______ _______ _____ _____    ______ ____
ROOT
ATOM      1  O   UNL     1       0.320  -0.224  23.845  0.00  0.00    -0.218 OA
ATOM      2  C   UNL     1      -0.270   0.206  24.229  0.00  0.00    +0.213 C 
ATOM      3  C   UNL     1      -0.283   1.024  24.336  0.00  0.00    +0.212 C 
ATOM      4  O   UNL     1       0.292   1.555  24.077  0.00  0.00    -0.218 OA
ATOM      5  C   UNL     1      -0.972   1.216  24.747  0.00  0.00    +0.157 C 
ATOM     14  O   UNL     1      -1.384   0.518  24.894  0.00  0.00    -0.351 OA
ATOM     15  C   UNL     1      -0.951  -0.108  24.574  0.00  0.00    +0.170 C 
ENDROOT
BRANCH   5   6
ATOM      6  C   UNL     1      -1.207   1.974  24.971  0.00  0.00    +0.117 C 
BRANCH   6   7
ATOM      7  C   UNL     1      -1.960   2.249  24.774  0.00  0.00    +0.228 C 
ATOM      8  O   UNL     1      -2.398   1.866  24.190  0.00  0.00    -0.275 OA
ATOM      9  N   UNL     1      -2.274   2.905  25.163  0.00  0.00    -0.279 N 
ATOM     10  C   UNL     1      -3.015   3.240  25.026  0.00  0.00    +0.093 C 
ATOM     11  C   UNL     1      -3.101   3.884  25.535  0.00  0.00    +0.023 C 
ATOM     12  C   UNL     1      -2.414   3.946  25.986  0.00  0.00    +0.023 C 
ATOM     13  C   UNL     1      -1.902   3.341  25.756  0.00  0.00    +0.093 C 
ENDBRANCH   6   7
ENDBRANCH   5   6
BRANCH  15  16
ATOM     16  C   UNL     1      -1.161  -0.905  24.595  0.00  0.00    +0.147 C 
BRANCH  16  17
ATOM     17  N   UNL     1      -1.957  -1.121  24.603  0.00  0.00    -0.203 NA
ATOM     18  C   UNL     1      -2.168  -1.919  24.609  0.00  0.00    +0.241 C 
ATOM     19  O   UNL     1      -1.582  -2.500  24.607  0.00  0.00    -0.273 OA
BRANCH  18  20
ATOM     20  C   UNL     1      -2.964  -2.136  24.616  0.00  0.00    +0.078 C 
ATOM     21  C   UNL     1      -3.604  -2.490  24.995  0.00  0.00    +0.010 C 
ATOM     22  C   UNL     1      -3.702  -2.155  24.248  0.00  0.00    +0.010 C 
ENDBRANCH  18  20
ENDBRANCH  16  17
ENDBRANCH  15  16
TORSDOF 5
ENDMDL
MODEL 4
REMARK VINA RESULT:      -9.1      2.093      4.859
REMARK  Name = 
REMARK  5 active torsions:
REMARK  status: ('A' for Active; 'I' for Inactive)
REMARK    1  A    between atoms: C_5  and  C_6
REMARK    2  A    between atoms: C_6  and  C_7
REMARK    3  A    between atoms: C_15  and  C_16
REMARK    4  A    between atoms: C_16  and  N_17
REMARK    5  A    between atoms: C_18  and  C_20
REMARK                            x       y       z     vdW  Elec       q    Type
REMARK                         _______ _______ _______ _____ _____    ______ ____
ROOT
ATOM      1  O   UNL     1      -0.166   0.595  24.118  0.00  0.00    -0.218 OA
ATOM      2  C   UNL     1      -0.933   0.833  24.310  0.00  0.00    +0.213 C 
ATOM      3  C   UNL     1      -1.210   1.610  24.329  0.00  0.00    +0.212 C 
ATOM      4  O   UNL     1      -0.768   2.285  24.161  0.00  0.00    -0.218 OA
ATOM      5  C   UNL     1      -2.005   1.591  24.547  0.00  0.00    +0.157 C 
ATOM     14  O   UNL     1      -2.220   0.804  24.662  0.00  0.00    -0.351 OA
ATOM     15  C   UNL     1      -1.557   0.334  24.515  0.00  0.00    +0.170 C 
ENDROOT
BRANCH   5   6
ATOM      6  C   UNL     1      -2.499   2.246  24.634  0.00  0.00    +0.117 C 
BRANCH   6   7
ATOM      7  C   UNL     1      -3.282   2.211  24.375  0.00  0.00    +0.228 C 
ATOM      8  O   UNL     1      -3.481   1.737  23.731  0.00  0.00    -0.275 OA
ATOM      9  N   UNL     1      -3.864   2.649  24.763  0.00  0.00    -0.279 N 
ATOM     10  C   UNL     1      -4.665   2.668  24.567  0.00  0.00    +0.093 C 
ATOM     11  C   UNL     1      -5.044   3.176  25.097  0.00  0.00    +0.023 C 
ATOM     12  C   UNL     1      -4.477   3.469  25.618  0.00  0.00    +0.023 C 
ATOM     13  C   UNL     1      -3.747   3.144  25.412  0.00  0.00    +0.093 C 
ENDBRANCH   6   7
ENDBRANCH   5   6
BRANCH  15  16
ATOM     16  C   UNL     1      -1.525  -0.488  24.566  0.00  0.00    +0.147 C 
BRANCH  16  17
ATOM     17  N   UNL     1      -2.222  -0.926  24.622  0.00  0.00    -0.203 NA
ATOM     18  C   UNL     1      -2.191  -1.750  24.650  0.00  0.00    +0.241 C 
ATOM     19  O   UNL     1      -1.463  -2.136  24.620  0.00  0.00    -0.273 OA
BRANCH  18  20
ATOM     20  C   UNL     1      -2.889  -2.188  24.706  0.00  0.00    +0.078 C 
ATOM     21  C   UNL     1      -3.459  -2.566  25.166  0.00  0.00    +0.010 C 
ATOM     22  C   UNL     1      -3.525  -2.567  24.344  0.00  0.00    +0.010 C 
ENDBRANCH  18  20
ENDBRANCH  16  17
ENDBRANCH  15  16
TORSDOF 5
ENDMDL
MODEL 5
REMARK VINA RESULT:      -8.9      1.664      2.773
REMARK  Name = 
REMARK  5 active torsions:
REMARK  status: ('A' for Active; 'I' for Inactive)
REMARK    1  A    between atoms: C_5  and  C_6
REMARK    2  A    between atoms: C_6  and  C_7
REMARK    3  A    between atoms: C_15  and  C_16
REMARK    4  A    between atoms: C_16  and  N_17
REMARK    5  A    between atoms: C_18  and  C_20
REMARK                            x       y       z     vdW  Elec       q    Type
REMARK                         _______ _______ _______ _____ _____    ______ ____
ROOT
ATOM      1  O   UNL     1      -1.169   2.259  24.336  0.00  0.00    -0.218 OA
ATOM      2  C   UNL     1      -1.726   1.669  24.485  0.00  0.00    +0.213 C 
ATOM      3  C   UNL     1      -1.625   0.861  24.349  0.00  0.00    +0.212 C 
ATOM      4  O   UNL     1      -0.950   0.503  24.040  0.00  0.00    -0.218 OA
ATOM      5  C   UNL     1      -2.319   0.477  24.576  0.00  0.00    +0.157 C 
ATOM     14  O   UNL     1      -2.847   1.045  24.853  0.00  0.00    -0.351 OA
ATOM     15  C   UNL     1      -2.481   1.783  24.797  0.00  0.00    +0.170 C 
ENDROOT
BRANCH   5   6
ATOM      6  C   UNL     1      -2.458  -0.336  24.534  0.00  0.00    +0.117 C 
BRANCH   6   7
ATOM      7  C   UNL     1      -3.153  -0.618  24.188  0.00  0.00    +0.228 C 
ATOM      8  O   UNL     1      -3.622  -0.113  23.736  0.00  0.00    -0.275 OA
ATOM      9  N   UNL     1      -3.375  -1.405  24.295  0.00  0.00    -0.279 N 
ATOM     10  C   UNL     1      -4.051  -1.763  23.984  0.00  0.00    +0.093 C 
ATOM     11  C   UNL     1      -4.055  -2.552  24.228  0.00  0.00    +0.023 C 
ATOM     12  C   UNL     1      -3.384  -2.680  24.688  0.00  0.00    +0.023 C 
ATOM     13  C   UNL     1      -2.963  -1.971  24.730  0.00  0.00    +0.093 C 
ENDBRANCH   6   7
ENDBRANCH   5   6
BRANCH  15  16
ATOM     16  C   UNL     1      -2.812   2.506  25.014  0.00  0.00    +0.147 C 
BRANCH  16  17
ATOM     17  N   UNL     1      -3.626   2.567  25.136  0.00  0.00    -0.203 NA
ATOM     18  C   UNL     1      -3.950   3.274  25.415  0.00  0.00    +0.241 C 
ATOM     19  O   UNL     1      -3.459   3.918  25.571  0.00  0.00    -0.273 OA
BRANCH  18  20
ATOM     20  C   UNL     1      -4.764   3.335  25.537  0.00  0.00    +0.078 C 
ATOM     21  C   UNL     1      -5.473   3.007  25.800  0.00  0.00    +0.010 C 
ATOM     22  C   UNL     1      -5.463   3.769  25.484  0.00  0.00    +0.010 C 
ENDBRANCH  18  20
ENDBRANCH  16  17
ENDBRANCH  15  16
TORSDOF 5
ENDMDL
