MODEL 1
REMARK VINA RESULT:      -9.2      0.000      0.000
REMARK  Name = 
REMARK  4 active torsions:
REMARK  status: ('A' for Active; 'I' for Inactive)
REMARK    1  A    between atoms: C_3  and  C_4
REMARK    2  A    between atoms: C_4  and  N_5
REMARK    3  A    between atoms: C_16  and  N_17
REMARK    4  A    between atoms: N_17  and  C_18
REMARK                            x       y       z     vdW  Elec       q    Type
REMARK                         _______ _______ _______ _____ _____    ______ ____
ROOT
ATOM      1  O   UNL     1      -4.928   0.998  25.175  0.00  0.00    -0.219 OA
ATOM      2  C   UNL     1      -4.221   0.803  24.798  0.00  0.00    +0.199 C 
ATOM      3  C   UNL     1      -3.611   1.326  24.609  0.00  0.00    +0.169 C 
ATOM     14  O   UNL     1      -3.013   0.896  24.239  0.00  0.00    -0.350 OA
ATOM     15  C   UNL     1      -3.252   0.107  24.199  0.00  0.00    +0.162 C 
ATOM     16  C   UNL     1      -3.999   0.050  24.545  0.00  0.00    +0.135 C 
ENDROOT
BRANCH   3   4
ATOM      4  C   UNL     1      -3.602   2.136  24.764  0.00  0.00    +0.149 C 
BRANCH   4   5
ATOM      5  N   UNL     1      -2.885   2.541  24.799  0.00  0.00    -0.186 NA
ATOM      6  C   UNL     1      -2.875   3.352  24.956  0.00  0.00    +0.323 C 
ATOM      7  O   UNL     1      -3.584   3.756  25.078  0.00  0.00    -0.251 OA
ATOM      8  N   UNL     1      -2.158   3.757  24.991  0.00  0.00    -0.258 N 
ATOM      9  C   UNL     1      -2.149   4.566  25.148  0.00  0.00    +0.127 C 
ATOM     10  C   UNL     1      -1.431   4.972  25.183  0.00  0.00    +0.164 C 
ATOM     11  O   UNL     1      -0.722   4.568  25.061  0.00  0.00    -0.350 OA
ATOM     12  C   UNL     1      -0.732   3.757  24.904  0.00  0.00    +0.164 C 
ATOM     13  C   UNL     1      -1.449   3.352  24.869  0.00  0.00    +0.127 C 
ENDBRANCH   4   5
ENDBRANCH   3   4
BRANCH  16  17
ATOM     17  N   UNL     1      -4.445  -0.639  24.623  0.00  0.00    -0.216 NA
BRANCH  17  18
ATOM     18  C   UNL     1      -4.097  -1.374  24.482  0.00  0.00    +0.073 C 
ATOM     19  C   UNL     1      -4.098  -1.910  23.854  0.00  0.00    +0.017 C 
ATOM     20  C   UNL     1      -3.604  -2.413  24.282  0.00  0.00    +0.003 C 
ATOM     21  C   UNL     1      -3.602  -1.878  24.910  0.00  0.00    +0.017 C 
ENDBRANCH  17  18
ENDBRANCH  16  17
TORSDOF 4
ENDMDL
MODEL 2
REMARK VINA RESULT:      -8.6      1.646      5.308
REMARK  Name = 
REMARK  4 active torsions:
REMARK  status: ('A' for Active; 'I' for Inactive)
REMARK    1  A    between atoms: C_3  and  C_4
REMARK    2  A    between atoms: C_4  and  N_5
REMARK    3  A    between atoms: C_16  and  N_17
REMARK    4  A    between atoms: N_17  and  C_18
REMARK                            x       y       z     vdW  Elec       q    Type
REMARK                         _______ _______ _______ _____ _____    ______ ____
ROOT
ATOM      1  O   UNL     1      -0.552   1.453  25.939  0.00  0.00    -0.219 OA
ATOM      2  C   UNL     1      -1.178   1.701  25.463  0.00  0.00    +0.199 C 
ATOM      3  C   UNL     1      -1.662   1.215  25.006  0.00  0.00    +0.169 C 
ATOM     14  O   UNL     1      -2.213   1.694  24.622  0.00  0.00    -0.350 OA
ATOM     15  C   UNL     1      -2.069   2.476  24.840  0.00  0.00    +0.162 C 
ATOM     16  C   UNL     1      -1.429   2.481  25.361  0.00  0.00    +0.135 C 
ENDROOT
BRANCH   3   4
ATOM      4  C   UNL     1      -1.606   0.395  24.945  0.00  0.00    +0.149 C 
BRANCH   4   5
ATOM      5  N   UNL     1      -2.268  -0.050  24.736  0.00  0.00    -0.186 NA
ATOM      6  C   UNL     1      -2.227  -0.875  24.728  0.00  0.00    +0.323 C 
ATOM      7  O   UNL     1      -1.522  -1.253  24.929  0.00  0.00    -0.251 OA
ATOM      8  N   UNL     1      -2.889  -1.319  24.520  0.00  0.00    -0.258 N 
ATOM      9  C   UNL     1      -2.848  -2.143  24.512  0.00  0.00    +0.127 C 
ATOM     10  C   UNL     1      -3.510  -2.587  24.303  0.00  0.00    +0.164 C 
ATOM     11  O   UNL     1      -4.215  -2.209  24.102  0.00  0.00    -0.350 OA
ATOM     12  C   UNL     1      -4.257  -1.384  24.110  0.00  0.00    +0.164 C 
ATOM     13  C   UNL     1      -3.594  -0.940  24.319  0.00  0.00    +0.127 C 
ENDBRANCH   4   5
ENDBRANCH   3   4
BRANCH  16  17
ATOM     17  N   UNL     1      -1.099   3.147  25.716  0.00  0.00    -0.216 NA
BRANCH  17  18
ATOM     18  C   UNL     1      -1.310   3.901  25.456  0.00  0.00    +0.073 C 
ATOM     19  C   UNL     1      -1.953   4.404  25.583  0.00  0.00    +0.017 C 
ATOM     20  C   UNL     1      -1.610   4.967  25.087  0.00  0.00    +0.003 C 
ATOM     21  C   UNL     1      -0.968   4.465  24.960  0.00  0.00    +0.017 C 
ENDBRANCH  17  18
ENDBRANCH  16  17
TORSDOF 4
ENDMDL
MODEL 3
REMARK VINA RESULT:      -8.5      1.471      2.079
REMARK  Name = 
REMARK  4 active torsions:
REMARK  status: ('A' for Active; 'I' for Inactive)
REMARK    1  A    between atoms: C_3  and  C_4
REMARK    2  A    between atoms: C_4  and  N_5
REMARK    3  A    between atoms: C_16  and  N_17
REMARK    4  A    between atoms: N_17  and  C_18
REMARK                            x       y       z     vdW  Elec       q    Type
REMARK                         _______ _______ _______ _____ _____    ______ ____
ROOT
ATOM      1  O   UNL     1      -0.567  -0.467  24.771  0.00  0.00    -0.219 OA
ATOM      2  C   UNL     1      -1.344  -0.214  24.880  0.00  0.00    +0.199 C 
ATOM      3  C   UNL     1      -1.601   0.570  24.898  0.00  0.00    +0.169 C 
ATOM     14  O   UNL     1      -2.417   0.568  25.020  0.00  0.00    -0.350 OA
ATOM     15  C   UNL     1      -2.665  -0.217  25.077  0.00  0.00    +0.162 C 
ATOM     16  C   UNL     1      -2.001  -0.700  24.991  0.00  0.00    +0.135 C 
ENDROOT
BRANCH   3   4
ATOM      4  C   UNL     1      -1.126   1.238  24.810  0.00  0.00    +0.149 C 
BRANCH   4   5
ATOM      5  N   UNL     1      -1.421   1.983  25.005  0.00  0.00    -0.186 NA
ATOM      6  C   UNL     1      -0.970   2.658  24.856  0.00  0.00    +0.323 C 
ATOM      7  O   UNL     1      -0.224   2.587  24.510  0.00  0.00    -0.251 OA
ATOM      8  N   UNL     1      -1.265   3.403  25.051  0.00  0.00    -0.258 N 
ATOM      9  C   UNL     1      -0.815   4.078  24.902  0.00  0.00    +0.127 C 
ATOM     10  C   UNL     1      -1.109   4.822  25.098  0.00  0.00    +0.164 C 
ATOM     11  O   UNL     1      -1.855   4.894  25.443  0.00  0.00    -0.350 OA
ATOM     12  C   UNL     1      -2.306   4.218  25.593  0.00  0.00    +0.164 C 
ATOM     13  C   UNL     1      -2.011   3.473  25.397  0.00  0.00    +0.127 C 
ENDBRANCH   4   5
ENDBRANCH   3   4
BRANCH  16  17
ATOM     17  N   UNL     1      -1.996  -1.525  25.012  0.00  0.00    -0.216 NA
BRANCH  17  18
ATOM     18  C   UNL     1      -2.694  -1.944  24.878  0.00  0.00    +0.073 C 
ATOM     19  C   UNL     1      -3.329  -2.186  25.347  0.00  0.00    +0.017 C 
ATOM     20  C   UNL     1      -3.680  -2.539  24.689  0.00  0.00    +0.003 C 
ATOM     21  C   UNL     1      -3.046  -2.298  24.221  0.00  0.00    +0.017 C 
ENDBRANCH  17  18
ENDBRANCH  16  17
TORSDOF 4
ENDMDL
MODEL 4
REMARK VINA RESULT:      -8.5      1.264      4.995
REMARK  Name = 
REMARK  4 active torsions:
REMARK  status: ('A' for Active; 'I' for Inactive)
REMARK    1  A    between atoms: C_3  and  C_4
REMARK    2  A    between atoms: C_4  and  N_5
REMARK    3  A    between atoms: C_16  and  N_17
REMARK    4  A    between atoms: N_17  and  C_18
REMARK                            x       y       z     vdW  Elec       q    Type
REMARK                         _______ _______ _______ _____ _____    ______ ____
ROOT
ATOM      1  O   UNL     1      -4.479   2.425  24.266  0.00  0.00    -0.219 OA
ATOM      2  C   UNL     1      -3.730   2.221  24.546  0.00  0.00    +0.199 C 
ATOM      3  C   UNL     1      -3.440   1.455  24.642  0.00  0.00    +0.169 C 
ATOM     14  O   UNL     1      -2.671   1.509  24.934  0.00  0.00    -0.350 OA
ATOM     15  C   UNL     1      -2.485   2.308  25.018  0.00  0.00    +0.162 C 
ATOM     16  C   UNL     1      -3.140   2.749  24.778  0.00  0.00    +0.135 C 
ENDROOT
BRANCH   3   4
ATOM      4  C   UNL     1      -3.848   0.758  24.475  0.00  0.00    +0.149 C 
BRANCH   4   5
ATOM      5  N   UNL     1      -3.458   0.032  24.515  0.00  0.00    -0.186 NA
ATOM      6  C   UNL     1      -3.873  -0.668  24.377  0.00  0.00    +0.323 C 
ATOM      7  O   UNL     1      -4.678  -0.641  24.198  0.00  0.00    -0.251 OA
ATOM      8  N   UNL     1      -3.483  -1.394  24.418  0.00  0.00    -0.258 N 
ATOM      9  C   UNL     1      -3.898  -2.093  24.279  0.00  0.00    +0.127 C 
ATOM     10  C   UNL     1      -3.508  -2.819  24.320  0.00  0.00    +0.164 C 
ATOM     11  O   UNL     1      -2.703  -2.846  24.499  0.00  0.00    -0.350 OA
ATOM     12  C   UNL     1      -2.288  -2.145  24.637  0.00  0.00    +0.164 C 
ATOM     13  C   UNL     1      -2.678  -1.420  24.597  0.00  0.00    +0.127 C 
ENDBRANCH   4   5
ENDBRANCH   3   4
BRANCH  16  17
ATOM     17  N   UNL     1      -3.195   3.571  24.772  0.00  0.00    -0.216 NA
BRANCH  17  18
ATOM     18  C   UNL     1      -2.568   4.028  25.051  0.00  0.00    +0.073 C 
ATOM     19  C   UNL     1      -1.898   4.371  24.710  0.00  0.00    +0.017 C 
ATOM     20  C   UNL     1      -1.680   4.675  25.446  0.00  0.00    +0.003 C 
ATOM     21  C   UNL     1      -2.349   4.333  25.786  0.00  0.00    +0.017 C 
ENDBRANCH  17  18
ENDBRANCH  16  17
TORSDOF 4
ENDMDL
MODEL 5
REMARK VINA RESULT:      -8.0      1.825      2.473
REMARK  Name = 
REMARK  4 active torsions:
REMARK  status: ('A' for Active; 'I' for Inactive)
REMARK    1  A    between atoms: C_3  and  C_4
REMARK    2  A    between atoms: C_4  and  N_5
REMARK    3  A    between atoms: C_16  and  N_17
REMARK    4  A    between atoms: N_17  and  C_18
REMARK                            x       y       z     vdW  Elec       q    Type
REMARK                         _______ _______ _______ _____ _____    ______ ____
ROOT
ATOM      1  O   UNL     1      -2.097   0.106  24.306  0.00  0.00    -0.219 OA
ATOM      2  C   UNL     1      -2.899  -0.081  24.264  0.00  0.00    +0.199 C 
ATOM      3  C   UNL     1      -3.524   0.459  24.264  0.00  0.00    +0.169 C 
ATOM     14  O   UNL     1      -4.228   0.032  24.215  0.00  0.00    -0.350 OA
ATOM     15  C   UNL     1      -4.040  -0.770  24.184  0.00  0.00    +0.162 C 
ATOM     16  C   UNL     1      -3.218  -0.840  24.214  0.00  0.00    +0.135 C 
ENDROOT
BRANCH   3   4
ATOM      4  C   UNL     1      -3.455   1.279  24.307  0.00  0.00    +0.149 C 
BRANCH   4   5
ATOM      5  N   UNL     1      -4.046   1.724  24.671  0.00  0.00    -0.186 NA
ATOM      6  C   UNL     1      -3.986   2.547  24.699  0.00  0.00    +0.323 C 
ATOM      7  O   UNL     1      -3.335   2.924  24.362  0.00  0.00    -0.251 OA
ATOM      8  N   UNL     1      -4.578   2.992  25.064  0.00  0.00    -0.258 N 
ATOM      9  C   UNL     1      -4.518   3.814  25.091  0.00  0.00    +0.127 C 
ATOM     10  C   UNL     1      -5.109   4.259  25.456  0.00  0.00    +0.164 C 
ATOM     11  O   UNL     1      -5.760   3.882  25.793  0.00  0.00    -0.350 OA
ATOM     12  C   UNL     1      -5.820   3.059  25.765  0.00  0.00    +0.164 C 
ATOM     13  C   UNL     1      -5.229   2.614  25.401  0.00  0.00    +0.127 C 
ENDBRANCH   4   5
ENDBRANCH   3   4
BRANCH  16  17
ATOM     17  N   UNL     1      -2.791  -1.545  24.198  0.00  0.00    -0.216 NA
BRANCH  17  18
ATOM     18  C   UNL     1      -3.138  -2.244  24.466  0.00  0.00    +0.073 C 
ATOM     19  C   UNL     1      -3.568  -2.855  24.114  0.00  0.00    +0.017 C 
ATOM     20  C   UNL     1      -3.629  -3.232  24.846  0.00  0.00    +0.003 C 
ATOM     21  C   UNL     1      -3.199  -2.622  25.197  0.00  0.00    +0.017 C 
ENDBRANCH  17  18
ENDBRANCH  16  17
TORSDOF 4
ENDMDL
MODEL 6
REMARK VINA RESULT:      -7.7      2.330      4.261
REMARK  Name = 
REMARK  4 active torsions:
REMARK  status: ('A' for Active; 'I' for Inactive)
REMARK    1  A    between atoms: C_3  and  C_4
REMARK    2  A    between atoms: C_4  and  N_5
REMARK    3  A    between atoms: C_16  and  N_17
REMARK    4  A    between atoms: N_17  and  C_18
REMARK                            x       y       z     vdW  Elec       q    Type
REMARK                         _______ _______ _______ _____ _____    ______ ____
ROOT
ATOM      1  O   UNL     1      -3.277   2.214  23.260  0.00  0.00    -0.219 OA
ATOM      2  C   UNL     1      -3.041   2.444  24.017  0.00  0.00    +0.199 C 
ATOM      3  C   UNL     1      -2.341   2.224  24.395  0.00  0.00    +0.169 C 
ATOM     14  O   UNL     1      -2.332   2.579  25.139  0.00  0.00    -0.350 OA
ATOM     15  C   UNL     1      -3.025   3.019  25.222  0.00  0.00    +0.162 C 
ATOM     16  C   UNL     1      -3.463   2.936  24.527  0.00  0.00    +0.135 C 
ENDROOT
BRANCH   3   4
ATOM      4  C   UNL     1      -1.755   1.735  24.083  0.00  0.00    +0.149 C 
BRANCH   4   5
ATOM      5  N   UNL     1      -1.578   1.018  24.451  0.00  0.00    -0.186 NA
ATOM      6  C   UNL     1      -0.970   0.543  24.157  0.00  0.00    +0.323 C 
ATOM      7  O   UNL     1      -0.541   0.785  23.495  0.00  0.00    -0.251 OA
ATOM      8  N   UNL     1      -0.793  -0.174  24.524  0.00  0.00    -0.258 N 
ATOM      9  C   UNL     1      -0.186  -0.649  24.230  0.00  0.00    +0.127 C 
ATOM     10  C   UNL     1      -0.008  -1.366  24.598  0.00  0.00    +0.164 C 
ATOM     11  O   UNL     1      -0.438  -1.608  25.259  0.00  0.00    -0.350 OA
ATOM     12  C   UNL     1      -1.045  -1.133  25.553  0.00  0.00    +0.164 C 
ATOM     13  C   UNL     1      -1.223  -0.416  25.186  0.00  0.00    +0.127 C 
ENDBRANCH   4   5
ENDBRANCH   3   4
BRANCH  16  17
ATOM     17  N   UNL     1      -4.195   3.283  24.372  0.00  0.00    -0.216 NA
BRANCH  17  18
ATOM     18  C   UNL     1      -4.802   3.230  24.927  0.00  0.00    +0.073 C 
ATOM     19  C   UNL     1      -5.102   3.727  25.515  0.00  0.00    +0.017 C 
ATOM     20  C   UNL     1      -5.662   3.155  25.713  0.00  0.00    +0.003 C 
ATOM     21  C   UNL     1      -5.363   2.658  25.127  0.00  0.00    +0.017 C 
ENDBRANCH  17  18
ENDBRANCH  16  17
TORSDOF 4
ENDMDL
MODEL 7
REMARK VINA RESULT:      -7.6     15.753     18.465
REMARK  Name = 
REMARK  4 active torsions:
REMARK  status: ('A' for Active; 'I' for Inactive)
REMARK    1  A    between atoms: C_3  and  C_4
REMARK    2  A    between atoms: C_4  and  N_5
REMARK    3  A    between atoms: C_16  and  N_17
REMARK    4  A    between atoms: N_17  and  C_18
REMARK                            x       y       z     vdW  Elec       q    Type
REMARK                         _______ _______ _______ _____ _____    ______ ____
ROOT
ATOM      1  O   UNL     1      14.018   7.204  18.736  0.00  0.00    -0.219 OA
ATOM      2  C   UNL     1      14.305   6.951  19.467  0.00  0.00    +0.199 C 
ATOM      3  C   UNL     1      13.849   6.752  20.125  0.00  0.00    +0.169 C 
ATOM     14  O   UNL     1      14.362   6.532  20.732  0.00  0.00    -0.350 OA
ATOM     15  C   UNL     1      15.135   6.594  20.450  0.00  0.00    +0.162 C 
ATOM     16  C   UNL     1      15.099   6.854  19.667  0.00  0.00    +0.135 C 
ENDROOT
BRANCH   3   4
ATOM      4  C   UNL     1      13.026   6.770  20.168  0.00  0.00    +0.149 C 
BRANCH   4   5
ATOM      5  N   UNL     1      12.653   7.216  20.753  0.00  0.00    -0.186 NA
ATOM      6  C   UNL     1      11.860   7.078  20.934  0.00  0.00    +0.323 C 
ATOM      7  O   UNL     1      11.440   6.494  20.529  0.00  0.00    -0.251 OA
ATOM      8  N   UNL     1      11.486   7.524  21.519  0.00  0.00    -0.258 N 
ATOM      9  C   UNL     1      10.694   7.386  21.700  0.00  0.00    +0.127 C 
ATOM     10  C   UNL     1      10.321   7.832  22.286  0.00  0.00    +0.164 C 
ATOM     11  O   UNL     1      10.740   8.415  22.690  0.00  0.00    -0.350 OA
ATOM     12  C   UNL     1      11.534   8.553  22.509  0.00  0.00    +0.164 C 
ATOM     13  C   UNL     1      11.907   8.107  21.924  0.00  0.00    +0.127 C 
ENDBRANCH   4   5
ENDBRANCH   3   4
BRANCH  16  17
ATOM     17  N   UNL     1      15.745   6.991  19.173  0.00  0.00    -0.216 NA
BRANCH  17  18
ATOM     18  C   UNL     1      16.432   6.543  19.258  0.00  0.00    +0.073 C 
ATOM     19  C   UNL     1      17.116   6.603  19.716  0.00  0.00    +0.017 C 
ATOM     20  C   UNL     1      17.404   5.908  19.377  0.00  0.00    +0.003 C 
ATOM     21  C   UNL     1      16.721   5.847  18.920  0.00  0.00    +0.017 C 
ENDBRANCH  17  18
ENDBRANCH  16  17
TORSDOF 4
ENDMDL
MODEL 8
REMARK VINA RESULT:      -7.5      2.180      3.091
REMARK  Name = 
REMARK  4 active torsions:
REMARK  status: ('A' for Active; 'I' for Inactive)
REMARK    1  A    between atoms: C_3  and  C_4
REMARK    2  A    between atoms: C_4  and  N_5
REMARK    3  A    between atoms: C_16  and  N_17
REMARK    4  A    between atoms: N_17  and  C_18
REMARK                            x       y       z     vdW  Elec       q    Type
REMARK                         _______ _______ _______ _____ _____    ______ ____
ROOT
ATOM      1  O   UNL     1      -0.913   1.619  25.791  0.00  0.00    -0.219 OA
ATOM      2  C   UNL     1      -1.289   1.312  25.124  0.00  0.00    +0.199 C 
ATOM      3  C   UNL     1      -1.927   1.651  24.727  0.00  0.00    +0.169 C 
ATOM     14  O   UNL     1      -2.125   1.159  24.095  0.00  0.00    -0.350 OA
ATOM     15  C   UNL     1      -1.609   0.516  24.101  0.00  0.00    +0.162 C 
ATOM     16  C   UNL     1      -1.092   0.610  24.738  0.00  0.00    +0.135 C 
ENDROOT
BRANCH   3   4
ATOM      4  C   UNL     1      -2.302   2.358  24.927  0.00  0.00    +0.149 C 
BRANCH   4   5
ATOM      5  N   UNL     1      -3.119   2.375  25.038  0.00  0.00    -0.186 NA
ATOM      6  C   UNL     1      -3.502   3.092  25.185  0.00  0.00    +0.323 C 
ATOM      7  O   UNL     1      -3.066   3.791  25.220  0.00  0.00    -0.251 OA
ATOM      8  N   UNL     1      -4.319   3.109  25.296  0.00  0.00    -0.258 N 
ATOM      9  C   UNL     1      -4.700   3.825  25.442  0.00  0.00    +0.127 C 
ATOM     10  C   UNL     1      -5.517   3.842  25.553  0.00  0.00    +0.164 C 
ATOM     11  O   UNL     1      -5.953   3.142  25.518  0.00  0.00    -0.350 OA
ATOM     12  C   UNL     1      -5.571   2.425  25.371  0.00  0.00    +0.164 C 
ATOM     13  C   UNL     1      -4.754   2.408  25.260  0.00  0.00    +0.127 C 
ENDBRANCH   4   5
ENDBRANCH   3   4
BRANCH  16  17
ATOM     17  N   UNL     1      -0.485   0.093  24.949  0.00  0.00    -0.216 NA
BRANCH  17  18
ATOM     18  C   UNL     1      -0.614  -0.721  24.935  0.00  0.00    +0.073 C 
ATOM     19  C   UNL     1      -0.505  -1.320  24.376  0.00  0.00    +0.017 C 
ATOM     20  C   UNL     1      -0.795  -1.874  24.914  0.00  0.00    +0.003 C 
ATOM     21  C   UNL     1      -0.904  -1.277  25.472  0.00  0.00    +0.017 C 
ENDBRANCH  17  18
ENDBRANCH  16  17
TORSDOF 4
ENDMDL
MODEL 9
REMARK VINA RESULT:      -6.1     14.863     16.894
REMARK  Name = 
REMARK  4 active torsions:
REMARK  status: ('A' for Active; 'I' for Inactive)
REMARK    1  A    between atoms: C_3  and  C_4
REMARK    2  A    between atoms: C_4  and  N_5
REMARK    3  A    between atoms: C_16  and  N_17
REMARK    4  A    between atoms: N_17  and  C_18
REMARK                            x       y       z     vdW  Elec       q    Type
REMARK                         _______ _______ _______ _____ _____    ______ ____
ROOT
ATOM      1  O   UNL     1      -1.734 -10.417  12.453  0.00  0.00    -0.219 OA
ATOM      2  C   UNL     1      -2.557 -10.392  12.413  0.00  0.00    +0.199 C 
ATOM      3  C   UNL     1      -3.078 -10.509  13.042  0.00  0.00    +0.169 C 
ATOM     14  O   UNL     1      -3.847 -10.435  12.753  0.00  0.00    -0.350 OA
ATOM     15  C   UNL     1      -3.802 -10.271  11.946  0.00  0.00    +0.162 C 
ATOM     16  C   UNL     1      -3.005 -10.245  11.735  0.00  0.00    +0.135 C 
ENDROOT
BRANCH   3   4
ATOM      4  C   UNL     1      -2.866 -10.673  13.822  0.00  0.00    +0.149 C 
BRANCH   4   5
ATOM      5  N   UNL     1      -3.440 -10.671  14.414  0.00  0.00    -0.186 NA
ATOM      6  C   UNL     1      -3.216 -10.725  15.207  0.00  0.00    +0.323 C 
ATOM      7  O   UNL     1      -2.417 -10.781  15.406  0.00  0.00    -0.251 OA
ATOM      8  N   UNL     1      -3.789 -10.724  15.799  0.00  0.00    -0.258 N 
ATOM      9  C   UNL     1      -3.566 -10.778  16.591  0.00  0.00    +0.127 C 
ATOM     10  C   UNL     1      -4.139 -10.777  17.183  0.00  0.00    +0.164 C 
ATOM     11  O   UNL     1      -4.938 -10.721  16.984  0.00  0.00    -0.350 OA
ATOM     12  C   UNL     1      -5.162 -10.667  16.191  0.00  0.00    +0.164 C 
ATOM     13  C   UNL     1      -4.588 -10.668  15.599  0.00  0.00    +0.127 C 
ENDBRANCH   4   5
ENDBRANCH   3   4
BRANCH  16  17
ATOM     17  N   UNL     1      -2.708 -10.098  10.980  0.00  0.00    -0.216 NA
BRANCH  17  18
ATOM     18  C   UNL     1      -3.185  -9.733  10.414  0.00  0.00    +0.073 C 
ATOM     19  C   UNL     1      -3.308  -8.954  10.168  0.00  0.00    +0.017 C 
ATOM     20  C   UNL     1      -3.859  -9.218   9.613  0.00  0.00    +0.003 C 
ATOM     21  C   UNL     1      -3.735  -9.995   9.858  0.00  0.00    +0.017 C 
ENDBRANCH  17  18
ENDBRANCH  16  17
TORSDOF 4
ENDMDL
MODEL 10
REMARK VINA RESULT:      -5.5     14.409     15.983
REMARK  Name = 
REMARK  4 active torsions:
REMARK  status: ('A' for Active; 'I' for Inactive)
REMARK    1  A    between atoms: C_3  and  C_4
REMARK    2  A    between atoms: C_4  and  N_5
REMARK    3  A    between atoms: C_16  and  N_17
REMARK    4  A    between atoms: N_17  and  C_18
REMARK                            x       y       z     vdW  Elec       q    Type
REMARK                         _______ _______ _______ _____ _____    ______ ____
ROOT
ATOM      1  O   UNL     1      -3.961 -10.391  16.763  0.00  0.00    -0.219 OA
ATOM      2  C   UNL     1      -4.532 -10.449  16.170  0.00  0.00    +0.199 C 
ATOM      3  C   UNL     1      -4.387 -10.576  15.368  0.00  0.00    +0.169 C 
ATOM     14  O   UNL     1      -5.114 -10.595  14.979  0.00  0.00    -0.350 OA
ATOM     15  C   UNL     1      -5.708 -10.480  15.540  0.00  0.00    +0.162 C 
ATOM     16  C   UNL     1      -5.348 -10.390  16.277  0.00  0.00    +0.135 C 
ENDROOT
BRANCH   3   4
ATOM      4  C   UNL     1      -3.647 -10.668  15.017  0.00  0.00    +0.149 C 
BRANCH   4   5
ATOM      5  N   UNL     1      -3.563 -10.579  14.202  0.00  0.00    -0.186 NA
ATOM      6  C   UNL     1      -2.812 -10.594  13.860  0.00  0.00    +0.323 C 
ATOM      7  O   UNL     1      -2.145 -10.699  14.334  0.00  0.00    -0.251 OA
ATOM      8  N   UNL     1      -2.727 -10.505  13.044  0.00  0.00    -0.258 N 
ATOM      9  C   UNL     1      -1.977 -10.520  12.703  0.00  0.00    +0.127 C 
ATOM     10  C   UNL     1      -1.893 -10.431  11.887  0.00  0.00    +0.164 C 
ATOM     11  O   UNL     1      -2.559 -10.326  11.412  0.00  0.00    -0.350 OA
ATOM     12  C   UNL     1      -3.310 -10.311  11.754  0.00  0.00    +0.164 C 
ATOM     13  C   UNL     1      -3.395 -10.400  12.570  0.00  0.00    +0.127 C 
ENDBRANCH   4   5
ENDBRANCH   3   4
BRANCH  16  17
ATOM     17  N   UNL     1      -5.735 -10.262  16.993  0.00  0.00    -0.216 NA
BRANCH  17  18
ATOM     18  C   UNL     1      -6.539 -10.077  17.000  0.00  0.00    +0.073 C 
ATOM     19  C   UNL     1      -7.235 -10.502  17.132  0.00  0.00    +0.017 C 
ATOM     20  C   UNL     1      -7.677  -9.816  17.009  0.00  0.00    +0.003 C 
ATOM     21  C   UNL     1      -6.982  -9.392  16.876  0.00  0.00    +0.017 C 
ENDBRANCH  17  18
ENDBRANCH  16  17
TORSDOF 4
ENDMDL
