MODEL 1
REMARK VINA RESULT:      -9.3      0.000      0.000
REMARK  Name = 
REMARK  9 active torsions:
REMARK  status: ('A' for Active; 'I' for Inactive)
REMARK    1  A    between atoms: C_2  and  C_20
REMARK    2  A    between atoms: C_9  and  N_10
REMARK    3  A    between atoms: C_20  and  C_22
REMARK    4  A    between atoms: N_24  and  C_25
REMARK    5  A    between atoms: N_24  and  C_29
REMARK    6  A    between atoms: C_25  and  C_26
REMARK    7  A    between atoms: C_26  and  O_27
REMARK    8  A    between atoms: C_29  and  C_30
REMARK    9  A    between atoms: C_30  and  O_31
REMARK                            x       y       z     vdW  Elec       q    Type
REMARK                         _______ _______ _______ _____ _____    ______ ____
ROOT
ATOM      1  C   UNL     1      -2.289   1.042  24.771  0.00  0.00    +0.052 C 
ATOM      2  C   UNL     1      -2.785   0.396  24.640  0.00  0.00    -0.001 C 
ATOM      3  C   UNL     1      -3.602   0.500  24.614  0.00  0.00    -0.000 C 
ATOM      4  C   UNL     1      -3.925   1.251  24.719  0.00  0.00    -0.001 C 
ATOM      5  C   UNL     1      -4.420   0.605  24.588  0.00  0.00    -0.000 C 
ATOM      6  C   UNL     1      -4.744   1.356  24.693  0.00  0.00    +0.002 C 
ATOM      7  C   UNL     1      -5.067   2.108  24.797  0.00  0.00    +0.022 C 
ATOM      8  C   UNL     1      -4.573   2.755  24.928  0.00  0.00    +0.095 C 
ATOM     13  C   UNL     1      -3.754   2.651  24.954  0.00  0.00    +0.019 C 
ATOM     14  C   UNL     1      -3.260   3.298  25.085  0.00  0.00    +0.002 C 
ATOM     15  C   UNL     1      -3.431   1.899  24.850  0.00  0.00    +0.045 C 
ATOM     16  C   UNL     1      -2.613   1.795  24.876  0.00  0.00    +0.145 C 
ATOM     17  O   UNL     1      -2.118   2.441  25.006  0.00  0.00    -0.224 OA
ENDROOT
BRANCH   8   9
ATOM      9  N   UNL     1      -4.896   3.507  25.033  0.00  0.00    -0.207 NA
ATOM     10  C   UNL     1      -5.500   3.624  25.582  0.00  0.00    +0.242 C 
ATOM     11  C   UNL     1      -5.823   4.375  25.688  0.00  0.00    +0.096 C 
ATOM     12  O   UNL     1      -5.782   2.987  26.027  0.00  0.00    -0.273 OA
ENDBRANCH   8   9
BRANCH   1  18
ATOM     18  C   UNL     1      -1.473   0.938  24.797  0.00  0.00    +0.075 C 
ATOM     19  C   UNL     1      -1.065   1.041  25.508  0.00  0.00    +0.009 C 
BRANCH  18  20
ATOM     20  C   UNL     1      -1.061   0.730  24.113  0.00  0.00    +0.225 C 
ATOM     21  O   UNL     1      -1.145   1.182  23.428  0.00  0.00    -0.275 OA
ATOM     22  N   UNL     1      -0.565   0.071  24.114  0.00  0.00    -0.274 N 
BRANCH  22  23
ATOM     23  C   UNL     1      -0.153  -0.136  23.429  0.00  0.00    +0.125 C 
BRANCH  23  24
ATOM     24  C   UNL     1       0.630   0.105  23.330  0.00  0.00    +0.164 C 
BRANCH  24  25
ATOM     25  O   UNL     1       1.054  -0.133  22.665  0.00  0.00    -0.349 OA
ATOM     26  C   UNL     1       1.856   0.052  22.598  0.00  0.00    +0.174 C 
ENDBRANCH  24  25
ENDBRANCH  23  24
ENDBRANCH  22  23
BRANCH  22  27
ATOM     27  C   UNL     1      -0.480  -0.380  24.799  0.00  0.00    +0.125 C 
BRANCH  27  28
ATOM     28  C   UNL     1      -0.402  -1.200  24.745  0.00  0.00    +0.164 C 
BRANCH  28  29
ATOM     29  O   UNL     1      -0.290  -1.650  25.429  0.00  0.00    -0.349 OA
ATOM     30  C   UNL     1      -0.483  -2.452  25.432  0.00  0.00    +0.174 C 
ENDBRANCH  28  29
ENDBRANCH  27  28
ENDBRANCH  22  27
ENDBRANCH  18  20
ENDBRANCH   1  18
TORSDOF 9
ENDMDL
MODEL 2
REMARK VINA RESULT:      -8.8      2.058      5.089
REMARK  Name = 
REMARK  9 active torsions:
REMARK  status: ('A' for Active; 'I' for Inactive)
REMARK    1  A    between atoms: C_2  and  C_20
REMARK    2  A    between atoms: C_9  and  N_10
REMARK    3  A    between atoms: C_20  and  C_22
REMARK    4  A    between atoms: N_24  and  C_25
REMARK    5  A    between atoms: N_24  and  C_29
REMARK    6  A    between atoms: C_25  and  C_26
REMARK    7  A    between atoms: C_26  and  O_27
REMARK    8  A    between atoms: C_29  and  C_30
REMARK    9  A    between atoms: C_30  and  O_31
REMARK                            x       y       z     vdW  Elec       q    Type
REMARK                         _______ _______ _______ _____ _____    ______ ____
ROOT
ATOM      1  C   UNL     1      -2.922   1.222  24.621  0.00  0.00    +0.052 C 
ATOM      2  C   UNL     1      -2.282   1.190  25.139  0.00  0.00    -0.001 C 
ATOM      3  C   UNL     1      -1.959   0.462  25.354  0.00  0.00    -0.000 C 
ATOM      4  C   UNL     1      -2.278  -0.235  25.050  0.00  0.00    -0.001 C 
ATOM      5  C   UNL     1      -1.637  -0.267  25.568  0.00  0.00    -0.000 C 
ATOM      6  C   UNL     1      -1.955  -0.965  25.265  0.00  0.00    +0.002 C 
ATOM      7  C   UNL     1      -2.275  -1.662  24.960  0.00  0.00    +0.022 C 
ATOM      8  C   UNL     1      -2.915  -1.631  24.442  0.00  0.00    +0.095 C 
ATOM     13  C   UNL     1      -3.238  -0.902  24.227  0.00  0.00    +0.019 C 
ATOM     14  C   UNL     1      -3.879  -0.872  23.708  0.00  0.00    +0.002 C 
ATOM     15  C   UNL     1      -2.919  -0.205  24.531  0.00  0.00    +0.045 C 
ATOM     16  C   UNL     1      -3.241   0.524  24.316  0.00  0.00    +0.145 C 
ATOM     17  O   UNL     1      -3.882   0.555  23.798  0.00  0.00    -0.224 OA
ENDROOT
BRANCH   8   9
ATOM      9  N   UNL     1      -3.234  -2.329  24.138  0.00  0.00    -0.207 NA
ATOM     10  C   UNL     1      -3.466  -2.933  24.649  0.00  0.00    +0.242 C 
ATOM     11  C   UNL     1      -3.785  -3.631  24.346  0.00  0.00    +0.096 C 
ATOM     12  O   UNL     1      -3.378  -2.841  25.465  0.00  0.00    -0.273 OA
ENDBRANCH   8   9
BRANCH   1  18
ATOM     18  C   UNL     1      -3.244   1.949  24.406  0.00  0.00    +0.075 C 
ATOM     19  C   UNL     1      -3.068   2.278  23.670  0.00  0.00    +0.009 C 
BRANCH  18  20
ATOM     20  C   UNL     1      -3.743   2.350  24.927  0.00  0.00    +0.225 C 
ATOM     21  O   UNL     1      -4.373   1.952  25.282  0.00  0.00    -0.275 OA
ATOM     22  N   UNL     1      -3.612   3.147  25.093  0.00  0.00    -0.274 N 
BRANCH  22  23
ATOM     23  C   UNL     1      -4.111   3.547  25.615  0.00  0.00    +0.125 C 
BRANCH  23  24
ATOM     24  C   UNL     1      -4.839   3.832  25.351  0.00  0.00    +0.164 C 
BRANCH  24  25
ATOM     25  O   UNL     1      -5.357   4.195  25.880  0.00  0.00    -0.349 OA
ATOM     26  C   UNL     1      -6.058   4.532  25.606  0.00  0.00    +0.174 C 
ENDBRANCH  24  25
ENDBRANCH  23  24
ENDBRANCH  22  23
BRANCH  22  27
ATOM     27  C   UNL     1      -2.982   3.544  24.739  0.00  0.00    +0.125 C 
BRANCH  27  28
ATOM     28  C   UNL     1      -2.594   4.148  25.145  0.00  0.00    +0.164 C 
BRANCH  28  29
ATOM     29  O   UNL     1      -2.020   4.602  24.762  0.00  0.00    -0.349 OA
ATOM     30  C   UNL     1      -1.444   4.995  25.201  0.00  0.00    +0.174 C 
ENDBRANCH  28  29
ENDBRANCH  27  28
ENDBRANCH  22  27
ENDBRANCH  18  20
ENDBRANCH   1  18
TORSDOF 9
ENDMDL
MODEL 3
REMARK VINA RESULT:      -8.8      1.999      4.640
REMARK  Name = 
REMARK  9 active torsions:
REMARK  status: ('A' for Active; 'I' for Inactive)
REMARK    1  A    between atoms: C_2  and  C_20
REMARK    2  A    between atoms: C_9  and  N_10
REMARK    3  A    between atoms: C_20  and  C_22
REMARK    4  A    between atoms: N_24  and  C_25
REMARK    5  A    between atoms: N_24  and  C_29
REMARK    6  A    between atoms: C_25  and  C_26
REMARK    7  A    between atoms: C_26  and  O_27
REMARK    8  A    between atoms: C_29  and  C_30
REMARK    9  A    between atoms: C_30  and  O_31
REMARK                            x       y       z     vdW  Elec       q    Type
REMARK                         _______ _______ _______ _____ _____    ______ ____
ROOT
ATOM      1  C   UNL     1      -2.411   1.208  24.567  0.00  0.00    +0.052 C 
ATOM      2  C   UNL     1      -1.804   1.011  25.089  0.00  0.00    -0.001 C 
ATOM      3  C   UNL     1      -1.742   0.242  25.380  0.00  0.00    -0.000 C 
ATOM      4  C   UNL     1      -2.288  -0.331  25.148  0.00  0.00    -0.001 C 
ATOM      5  C   UNL     1      -1.681  -0.528  25.670  0.00  0.00    -0.000 C 
ATOM      6  C   UNL     1      -2.227  -1.102  25.439  0.00  0.00    +0.002 C 
ATOM      7  C   UNL     1      -2.774  -1.675  25.206  0.00  0.00    +0.022 C 
ATOM      8  C   UNL     1      -3.381  -1.478  24.684  0.00  0.00    +0.095 C 
ATOM     13  C   UNL     1      -3.442  -0.708  24.394  0.00  0.00    +0.019 C 
ATOM     14  C   UNL     1      -4.050  -0.512  23.871  0.00  0.00    +0.002 C 
ATOM     15  C   UNL     1      -2.896  -0.135  24.625  0.00  0.00    +0.045 C 
ATOM     16  C   UNL     1      -2.958   0.635  24.335  0.00  0.00    +0.145 C 
ATOM     17  O   UNL     1      -3.565   0.832  23.813  0.00  0.00    -0.224 OA
ENDROOT
BRANCH   8   9
ATOM      9  N   UNL     1      -3.927  -2.051  24.452  0.00  0.00    -0.207 NA
ATOM     10  C   UNL     1      -3.668  -2.803  24.232  0.00  0.00    +0.242 C 
ATOM     11  C   UNL     1      -4.213  -3.376  24.000  0.00  0.00    +0.096 C 
ATOM     12  O   UNL     1      -2.862  -2.982  24.244  0.00  0.00    -0.273 OA
ENDBRANCH   8   9
BRANCH   1  18
ATOM     18  C   UNL     1      -2.472   1.977  24.277  0.00  0.00    +0.075 C 
ATOM     19  C   UNL     1      -2.874   2.121  23.570  0.00  0.00    +0.009 C 
BRANCH  18  20
ATOM     20  C   UNL     1      -2.132   2.604  24.692  0.00  0.00    +0.225 C 
ATOM     21  O   UNL     1      -1.323   2.598  24.856  0.00  0.00    -0.275 OA
ATOM     22  N   UNL     1      -2.600   3.235  24.943  0.00  0.00    -0.274 N 
BRANCH  22  23
ATOM     23  C   UNL     1      -2.258   3.861  25.358  0.00  0.00    +0.125 C 
BRANCH  23  24
ATOM     24  C   UNL     1      -1.908   4.485  24.948  0.00  0.00    +0.164 C 
BRANCH  24  25
ATOM     25  O   UNL     1      -1.581   5.120  25.361  0.00  0.00    -0.349 OA
ATOM     26  C   UNL     1      -1.137   5.688  24.962  0.00  0.00    +0.174 C 
ENDBRANCH  24  25
ENDBRANCH  23  24
ENDBRANCH  22  23
BRANCH  22  27
ATOM     27  C   UNL     1      -3.408   3.240  24.779  0.00  0.00    +0.125 C 
BRANCH  27  28
ATOM     28  C   UNL     1      -3.935   3.585  25.312  0.00  0.00    +0.164 C 
BRANCH  28  29
ATOM     29  O   UNL     1      -4.727   3.687  25.103  0.00  0.00    -0.349 OA
ATOM     30  C   UNL     1      -5.318   3.598  25.671  0.00  0.00    +0.174 C 
ENDBRANCH  28  29
ENDBRANCH  27  28
ENDBRANCH  22  27
ENDBRANCH  18  20
ENDBRANCH   1  18
TORSDOF 9
ENDMDL
MODEL 4
REMARK VINA RESULT:      -8.7      2.109      4.080
REMARK  Name = 
REMARK  9 active torsions:
REMARK  status: ('A' for Active; 'I' for Inactive)
REMARK    1  A    between atoms: C_2  and  C_20
REMARK    2  A    between atoms: C_9  and  N_10
REMARK    3  A    between atoms: C_20  and  C_22
REMARK    4  A    between atoms: N_24  and  C_25
REMARK    5  A    between atoms: N_24  and  C_29
REMARK    6  A    between atoms: C_25  and  C_26
REMARK    7  A    between atoms: C_26  and  O_27
REMARK    8  A    between atoms: C_29  and  C_30
REMARK    9  A    between atoms: C_30  and  O_31
REMARK                            x       y       z     vdW  Elec       q    Type
REMARK                         _______ _______ _______ _____ _____    ______ ____
ROOT
ATOM      1  C   UNL     1      -2.697   1.510  24.369  0.00  0.00    +0.052 C 
ATOM      2  C   UNL     1      -3.487   1.737  24.435  0.00  0.00    -0.001 C 
ATOM      3  C   UNL     1      -4.071   1.167  24.557  0.00  0.00    -0.000 C 
ATOM      4  C   UNL     1      -3.865   0.371  24.614  0.00  0.00    -0.001 C 
ATOM      5  C   UNL     1      -4.656   0.598  24.679  0.00  0.00    -0.000 C 
ATOM      6  C   UNL     1      -4.450  -0.199  24.736  0.00  0.00    +0.002 C 
ATOM      7  C   UNL     1      -4.244  -0.996  24.793  0.00  0.00    +0.022 C 
ATOM      8  C   UNL     1      -3.454  -1.223  24.728  0.00  0.00    +0.095 C 
ATOM     13  C   UNL     1      -2.869  -0.653  24.605  0.00  0.00    +0.019 C 
ATOM     14  C   UNL     1      -2.079  -0.881  24.540  0.00  0.00    +0.002 C 
ATOM     15  C   UNL     1      -3.075   0.143  24.549  0.00  0.00    +0.045 C 
ATOM     16  C   UNL     1      -2.491   0.712  24.426  0.00  0.00    +0.145 C 
ATOM     17  O   UNL     1      -1.700   0.486  24.361  0.00  0.00    -0.224 OA
ENDROOT
BRANCH   8   9
ATOM      9  N   UNL     1      -3.247  -2.020  24.785  0.00  0.00    -0.207 NA
ATOM     10  C   UNL     1      -3.670  -2.587  24.359  0.00  0.00    +0.242 C 
ATOM     11  C   UNL     1      -3.464  -3.384  24.415  0.00  0.00    +0.096 C 
ATOM     12  O   UNL     1      -4.299  -2.356  23.877  0.00  0.00    -0.273 OA
ENDBRANCH   8   9
BRANCH   1  18
ATOM     18  C   UNL     1      -2.113   2.079  24.247  0.00  0.00    +0.075 C 
ATOM     19  C   UNL     1      -1.432   1.887  23.822  0.00  0.00    +0.009 C 
BRANCH  18  20
ATOM     20  C   UNL     1      -2.209   2.840  24.550  0.00  0.00    +0.225 C 
ATOM     21  O   UNL     1      -2.876   3.282  24.349  0.00  0.00    -0.275 OA
ATOM     22  N   UNL     1      -1.638   3.159  25.052  0.00  0.00    -0.274 N 
BRANCH  22  23
ATOM     23  C   UNL     1      -1.734   3.921  25.354  0.00  0.00    +0.125 C 
BRANCH  23  24
ATOM     24  C   UNL     1      -1.387   4.564  24.970  0.00  0.00    +0.164 C 
BRANCH  24  25
ATOM     25  O   UNL     1      -1.453   5.321  25.290  0.00  0.00    -0.349 OA
ATOM     26  C   UNL     1      -1.225   5.978  24.847  0.00  0.00    +0.174 C 
ENDBRANCH  24  25
ENDBRANCH  23  24
ENDBRANCH  22  23
BRANCH  22  27
ATOM     27  C   UNL     1      -0.971   2.718  25.252  0.00  0.00    +0.125 C 
BRANCH  27  28
ATOM     28  C   UNL     1      -0.595   2.843  25.976  0.00  0.00    +0.164 C 
BRANCH  28  29
ATOM     29  O   UNL     1       0.119   2.463  26.141  0.00  0.00    -0.349 OA
ATOM     30  C   UNL     1       0.380   2.397  26.921  0.00  0.00    +0.174 C 
ENDBRANCH  28  29
ENDBRANCH  27  28
ENDBRANCH  22  27
ENDBRANCH  18  20
ENDBRANCH   1  18
TORSDOF 9
ENDMDL
MODEL 5
REMARK VINA RESULT:      -8.6      1.169      1.993
REMARK  Name = 
REMARK  9 active torsions:
REMARK  status: ('A' for Active; 'I' for Inactive)
REMARK    1  A    between atoms: C_2  and  C_20
REMARK    2  A    between atoms: C_9  and  N_10
REMARK    3  A    between atoms: C_20  and  C_22
REMARK    4  A    between atoms: N_24  and  C_25
REMARK    5  A    between atoms: N_24  and  C_29
REMARK    6  A    between atoms: C_25  and  C_26
REMARK    7  A    between atoms: C_26  and  O_27
REMARK    8  A    between atoms: C_29  and  C_30
REMARK    9  A    between atoms: C_30  and  O_31
REMARK                            x       y       z     vdW  Elec       q    Type
REMARK                         _______ _______ _______ _____ _____    ______ ____
ROOT
ATOM      1  C   UNL     1      -1.580   1.731  24.183  0.00  0.00    +0.052 C 
ATOM      2  C   UNL     1      -1.866   1.544  23.432  0.00  0.00    -0.001 C 
ATOM      3  C   UNL     1      -2.584   1.856  23.174  0.00  0.00    -0.000 C 
ATOM      4  C   UNL     1      -3.017   2.356  23.666  0.00  0.00    -0.001 C 
ATOM      5  C   UNL     1      -3.302   2.169  22.915  0.00  0.00    -0.000 C 
ATOM      6  C   UNL     1      -3.736   2.669  23.407  0.00  0.00    +0.002 C 
ATOM      7  C   UNL     1      -4.170   3.169  23.900  0.00  0.00    +0.022 C 
ATOM      8  C   UNL     1      -3.885   3.356  24.650  0.00  0.00    +0.095 C 
ATOM     13  C   UNL     1      -3.166   3.043  24.909  0.00  0.00    +0.019 C 
ATOM     14  C   UNL     1      -2.882   3.232  25.661  0.00  0.00    +0.002 C 
ATOM     15  C   UNL     1      -2.733   2.544  24.417  0.00  0.00    +0.045 C 
ATOM     16  C   UNL     1      -2.015   2.231  24.676  0.00  0.00    +0.145 C 
ATOM     17  O   UNL     1      -1.729   2.419  25.427  0.00  0.00    -0.224 OA
ENDROOT
BRANCH   8   9
ATOM      9  N   UNL     1      -4.318   3.857  25.143  0.00  0.00    -0.207 NA
ATOM     10  C   UNL     1      -5.103   3.678  25.325  0.00  0.00    +0.242 C 
ATOM     11  C   UNL     1      -5.537   4.177  25.817  0.00  0.00    +0.096 C 
ATOM     12  O   UNL     1      -5.455   2.999  25.013  0.00  0.00    -0.273 OA
ENDBRANCH   8   9
BRANCH   1  18
ATOM     18  C   UNL     1      -0.863   1.419  24.442  0.00  0.00    +0.075 C 
ATOM     19  C   UNL     1      -0.181   1.884  24.427  0.00  0.00    +0.009 C 
BRANCH  18  20
ATOM     20  C   UNL     1      -0.825   0.642  24.716  0.00  0.00    +0.225 C 
ATOM     21  O   UNL     1      -1.249   0.421  25.389  0.00  0.00    -0.275 OA
ATOM     22  N   UNL     1      -0.365   0.085  24.317  0.00  0.00    -0.274 N 
BRANCH  22  23
ATOM     23  C   UNL     1      -0.329  -0.692  24.592  0.00  0.00    +0.125 C 
BRANCH  23  24
ATOM     24  C   UNL     1      -0.939  -1.220  24.419  0.00  0.00    +0.164 C 
BRANCH  24  25
ATOM     25  O   UNL     1      -0.927  -1.982  24.733  0.00  0.00    -0.349 OA
ATOM     26  C   UNL     1      -1.548  -2.503  24.578  0.00  0.00    +0.174 C 
ENDBRANCH  24  25
ENDBRANCH  23  24
ENDBRANCH  22  23
BRANCH  22  27
ATOM     27  C   UNL     1       0.057   0.305  23.644  0.00  0.00    +0.125 C 
BRANCH  27  28
ATOM     28  C   UNL     1       0.736  -0.111  23.429  0.00  0.00    +0.164 C 
BRANCH  28  29
ATOM     29  O   UNL     1       1.069   0.000  22.682  0.00  0.00    -0.349 OA
ATOM     30  C   UNL     1       1.870  -0.156  22.559  0.00  0.00    +0.174 C 
ENDBRANCH  28  29
ENDBRANCH  27  28
ENDBRANCH  22  27
ENDBRANCH  18  20
ENDBRANCH   1  18
TORSDOF 9
ENDMDL
MODEL 6
REMARK VINA RESULT:      -8.2      1.877      3.017
REMARK  Name = 
REMARK  9 active torsions:
REMARK  status: ('A' for Active; 'I' for Inactive)
REMARK    1  A    between atoms: C_2  and  C_20
REMARK    2  A    between atoms: C_9  and  N_10
REMARK    3  A    between atoms: C_20  and  C_22
REMARK    4  A    between atoms: N_24  and  C_25
REMARK    5  A    between atoms: N_24  and  C_29
REMARK    6  A    between atoms: C_25  and  C_26
REMARK    7  A    between atoms: C_26  and  O_27
REMARK    8  A    between atoms: C_29  and  C_30
REMARK    9  A    between atoms: C_30  and  O_31
REMARK                            x       y       z     vdW  Elec       q    Type
REMARK                         _______ _______ _______ _____ _____    ______ ____
ROOT
ATOM      1  C   UNL     1      -3.762   1.010  24.253  0.00  0.00    +0.052 C 
ATOM      2  C   UNL     1      -4.451   1.108  24.695  0.00  0.00    -0.001 C 
ATOM      3  C   UNL     1      -4.615   1.836  25.048  0.00  0.00    -0.000 C 
ATOM      4  C   UNL     1      -4.090   2.465  24.957  0.00  0.00    -0.001 C 
ATOM      5  C   UNL     1      -4.779   2.564  25.400  0.00  0.00    -0.000 C 
ATOM      6  C   UNL     1      -4.254   3.194  25.310  0.00  0.00    +0.002 C 
ATOM      7  C   UNL     1      -3.728   3.823  25.219  0.00  0.00    +0.022 C 
ATOM      8  C   UNL     1      -3.039   3.726  24.777  0.00  0.00    +0.095 C 
ATOM     13  C   UNL     1      -2.875   2.997  24.424  0.00  0.00    +0.019 C 
ATOM     14  C   UNL     1      -2.186   2.900  23.981  0.00  0.00    +0.002 C 
ATOM     15  C   UNL     1      -3.400   2.368  24.514  0.00  0.00    +0.045 C 
ATOM     16  C   UNL     1      -3.236   1.640  24.162  0.00  0.00    +0.145 C 
ATOM     17  O   UNL     1      -2.547   1.541  23.719  0.00  0.00    -0.224 OA
ENDROOT
BRANCH   8   9
ATOM      9  N   UNL     1      -2.514   4.355  24.686  0.00  0.00    -0.207 NA
ATOM     10  C   UNL     1      -2.179   4.711  25.350  0.00  0.00    +0.242 C 
ATOM     11  C   UNL     1      -1.653   5.341  25.261  0.00  0.00    +0.096 C 
ATOM     12  O   UNL     1      -2.370   4.438  26.106  0.00  0.00    -0.273 OA
ENDBRANCH   8   9
BRANCH   1  18
ATOM     18  C   UNL     1      -3.598   0.283  23.901  0.00  0.00    +0.075 C 
ATOM     19  C   UNL     1      -3.204   0.254  23.176  0.00  0.00    +0.009 C 
BRANCH  18  20
ATOM     20  C   UNL     1      -3.827  -0.417  24.273  0.00  0.00    +0.225 C 
ATOM     21  O   UNL     1      -4.625  -0.557  24.432  0.00  0.00    -0.275 OA
ATOM     22  N   UNL     1      -3.260  -0.977  24.485  0.00  0.00    -0.274 N 
BRANCH  22  23
ATOM     23  C   UNL     1      -3.490  -1.677  24.857  0.00  0.00    +0.125 C 
BRANCH  23  24
ATOM     24  C   UNL     1      -3.641  -2.352  24.407  0.00  0.00    +0.164 C 
BRANCH  24  25
ATOM     25  O   UNL     1      -3.735  -3.082  24.778  0.00  0.00    -0.349 OA
ATOM     26  C   UNL     1      -3.867  -3.761  24.327  0.00  0.00    +0.174 C 
ENDBRANCH  24  25
ENDBRANCH  23  24
ENDBRANCH  22  23
BRANCH  22  27
ATOM     27  C   UNL     1      -2.463  -0.837  24.325  0.00  0.00    +0.125 C 
BRANCH  27  28
ATOM     28  C   UNL     1      -1.882  -1.171  24.806  0.00  0.00    +0.164 C 
BRANCH  28  29
ATOM     29  O   UNL     1      -1.087  -1.124  24.586  0.00  0.00    -0.349 OA
ATOM     30  C   UNL     1      -0.496  -1.192  25.158  0.00  0.00    +0.174 C 
ENDBRANCH  28  29
ENDBRANCH  27  28
ENDBRANCH  22  27
ENDBRANCH  18  20
ENDBRANCH   1  18
TORSDOF 9
ENDMDL
