MODEL 1
REMARK VINA RESULT:     -12.6      0.000      0.000
REMARK  Name = 
REMARK  9 active torsions:
REMARK  status: ('A' for Active; 'I' for Inactive)
REMARK    1  A    between atoms: N_4  and  C_5
REMARK    2  A    between atoms: C_5  and  C_6
REMARK    3  A    between atoms: C_6  and  N_7
REMARK    4  A    between atoms: C_8  and  C_10
REMARK    5  A    between atoms: C_10  and  C_11
REMARK    6  A    between atoms: C_16  and  C_17
REMARK    7  A    between atoms: C_17  and  C_18
REMARK    8  A    between atoms: C_21  and  C_23
REMARK    9  A    between atoms: C_26  and  C_29
REMARK                            x       y       z     vdW  Elec       q    Type
REMARK                         _______ _______ _______ _____ _____    ______ ____
ROOT
ATOM     11  C   UNL     1      -2.872   3.683  25.310  0.00  0.00    +0.012 C 
ATOM     12  C   UNL     1      -2.756   4.136  25.990  0.00  0.00    +0.019 C 
ATOM     13  C   UNL     1      -3.383   4.268  26.510  0.00  0.00    +0.089 C 
ATOM     14  N   UNL     1      -4.126   3.947  26.350  0.00  0.00    -0.218 NA
ATOM     15  C   UNL     1      -4.242   3.494  25.671  0.00  0.00    +0.089 C 
ATOM     16  C   UNL     1      -3.615   3.362  25.150  0.00  0.00    +0.024 C 
ENDROOT
BRANCH  11  10
ATOM     10  C   UNL     1      -2.245   3.551  24.790  0.00  0.00    +0.087 C 
BRANCH  10   8
ATOM      7  N   UNL     1      -0.819   3.594  24.704  0.00  0.00    -0.204 NA
ATOM      8  C   UNL     1      -1.535   3.961  24.887  0.00  0.00    +0.241 C 
ATOM      9  O   UNL     1      -1.541   4.737  25.168  0.00  0.00    -0.273 OA
BRANCH   7   6
ATOM      6  C   UNL     1      -0.813   2.818  24.422  0.00  0.00    +0.138 C 
BRANCH   6   5
ATOM      5  C   UNL     1      -0.097   2.418  24.331  0.00  0.00    +0.138 C 
BRANCH   5   4
ATOM      1  C   UNL     1       0.617   0.456  23.696  0.00  0.00    +0.096 C 
ATOM      2  C   UNL     1       0.614   1.252  23.911  0.00  0.00    +0.242 C 
ATOM      3  O   UNL     1       1.320   1.679  23.922  0.00  0.00    -0.273 OA
ATOM      4  N   UNL     1      -0.095   1.621  24.116  0.00  0.00    -0.204 NA
ENDBRANCH   5   4
ENDBRANCH   6   5
ENDBRANCH   7   6
ENDBRANCH  10   8
ENDBRANCH  11  10
BRANCH  16  17
ATOM     17  C   UNL     1      -3.731   2.909  24.470  0.00  0.00    +0.051 C 
BRANCH  17  18
ATOM     18  C   UNL     1      -4.087   2.167  24.525  0.00  0.00    +0.101 A 
ATOM     19  N   UNL     1      -4.894   2.022  24.611  0.00  0.00    -0.081 NA
ATOM     20  O   UNL     1      -5.004   1.204  24.642  0.00  0.00    -0.354 OA
ATOM     21  C   UNL     1      -4.265   0.845  24.575  0.00  0.00    +0.177 A 
ATOM     22  C   UNL     1      -3.698   1.440  24.502  0.00  0.00    +0.058 A 
BRANCH  21  23
ATOM     23  C   UNL     1      -4.118   0.033  24.579  0.00  0.00    +0.037 A 
ATOM     24  C   UNL     1      -4.167  -0.398  23.877  0.00  0.00    +0.003 A 
ATOM     25  C   UNL     1      -4.020  -1.210  23.881  0.00  0.00    -0.004 A 
ATOM     26  C   UNL     1      -3.825  -1.590  24.587  0.00  0.00    -0.023 A 
ATOM     27  C   UNL     1      -3.777  -1.159  25.288  0.00  0.00    -0.004 A 
ATOM     28  C   UNL     1      -3.923  -0.347  25.284  0.00  0.00    +0.003 A 
BRANCH  26  29
ATOM     29  C   UNL     1      -3.678  -2.402  24.591  0.00  0.00    +0.019 C 
ATOM     30  C   UNL     1      -3.531  -3.214  24.595  0.00  0.00    +0.004 C 
ATOM     31  C   UNL     1      -3.282  -2.327  25.311  0.00  0.00    +0.004 C 
ATOM     32  C   UNL     1      -4.074  -2.477  23.872  0.00  0.00    +0.004 C 
ENDBRANCH  26  29
ENDBRANCH  21  23
ENDBRANCH  17  18
ENDBRANCH  16  17
TORSDOF 9
ENDMDL
MODEL 2
REMARK VINA RESULT:     -12.1      1.413      3.449
REMARK  Name = 
REMARK  9 active torsions:
REMARK  status: ('A' for Active; 'I' for Inactive)
REMARK    1  A    between atoms: N_4  and  C_5
REMARK    2  A    between atoms: C_5  and  C_6
REMARK    3  A    between atoms: C_6  and  N_7
REMARK    4  A    between atoms: C_8  and  C_10
REMARK    5  A    between atoms: C_10  and  C_11
REMARK    6  A    between atoms: C_16  and  C_17
REMARK    7  A    between atoms: C_17  and  C_18
REMARK    8  A    between atoms: C_21  and  C_23
REMARK    9  A    between atoms: C_26  and  C_29
REMARK                            x       y       z     vdW  Elec       q    Type
REMARK                         _______ _______ _______ _____ _____    ______ ____
ROOT
ATOM     11  C   UNL     1      -1.153   3.251  25.195  0.00  0.00    +0.012 C 
ATOM     12  C   UNL     1      -0.886   3.793  24.632  0.00  0.00    +0.019 C 
ATOM     13  C   UNL     1      -0.232   3.611  24.162  0.00  0.00    +0.089 C 
ATOM     14  N   UNL     1       0.155   2.887  24.255  0.00  0.00    -0.218 NA
ATOM     15  C   UNL     1      -0.112   2.346  24.818  0.00  0.00    +0.089 C 
ATOM     16  C   UNL     1      -0.767   2.528  25.288  0.00  0.00    +0.024 C 
ENDROOT
BRANCH  11  10
ATOM     10  C   UNL     1      -1.807   3.433  25.664  0.00  0.00    +0.087 C 
BRANCH  10   8
ATOM      7  N   UNL     1      -3.002   4.213  25.589  0.00  0.00    -0.204 NA
ATOM      8  C   UNL     1      -2.178   4.166  25.589  0.00  0.00    +0.241 C 
ATOM      9  O   UNL     1      -1.726   4.852  25.512  0.00  0.00    -0.273 OA
BRANCH   7   6
ATOM      6  C   UNL     1      -3.455   3.527  25.666  0.00  0.00    +0.138 C 
BRANCH   6   5
ATOM      5  C   UNL     1      -4.278   3.570  25.629  0.00  0.00    +0.138 C 
BRANCH   5   4
ATOM      1  C   UNL     1      -5.851   2.117  25.208  0.00  0.00    +0.096 C 
ATOM      2  C   UNL     1      -5.423   2.717  25.578  0.00  0.00    +0.242 C 
ATOM      3  O   UNL     1      -5.712   3.064  26.269  0.00  0.00    -0.273 OA
ATOM      4  N   UNL     1      -4.706   2.970  25.259  0.00  0.00    -0.204 NA
ENDBRANCH   5   4
ENDBRANCH   6   5
ENDBRANCH   7   6
ENDBRANCH  10   8
ENDBRANCH  11  10
BRANCH  16  17
ATOM     17  C   UNL     1      -1.034   1.987  25.850  0.00  0.00    +0.051 C 
BRANCH  17  18
ATOM     18  C   UNL     1      -1.111   1.190  25.652  0.00  0.00    +0.101 A 
ATOM     19  N   UNL     1      -0.506   0.629  25.656  0.00  0.00    -0.081 NA
ATOM     20  O   UNL     1      -0.828  -0.094  25.422  0.00  0.00    -0.354 OA
ATOM     21  C   UNL     1      -1.630   0.020  25.272  0.00  0.00    +0.177 A 
ATOM     22  C   UNL     1      -1.805   0.814  25.415  0.00  0.00    +0.058 A 
BRANCH  21  23
ATOM     23  C   UNL     1      -2.165  -0.557  25.024  0.00  0.00    +0.037 A 
ATOM     24  C   UNL     1      -1.890  -1.243  24.657  0.00  0.00    +0.003 A 
ATOM     25  C   UNL     1      -2.424  -1.820  24.409  0.00  0.00    -0.004 A 
ATOM     26  C   UNL     1      -3.233  -1.712  24.528  0.00  0.00    -0.023 A 
ATOM     27  C   UNL     1      -3.508  -1.026  24.895  0.00  0.00    -0.004 A 
ATOM     28  C   UNL     1      -2.974  -0.449  25.143  0.00  0.00    +0.003 A 
BRANCH  26  29
ATOM     29  C   UNL     1      -3.768  -2.290  24.280  0.00  0.00    +0.019 C 
ATOM     30  C   UNL     1      -4.302  -2.867  24.032  0.00  0.00    +0.004 C 
ATOM     31  C   UNL     1      -4.194  -1.717  23.865  0.00  0.00    +0.004 C 
ATOM     32  C   UNL     1      -3.342  -2.861  24.694  0.00  0.00    +0.004 C 
ENDBRANCH  26  29
ENDBRANCH  21  23
ENDBRANCH  17  18
ENDBRANCH  16  17
TORSDOF 9
ENDMDL
MODEL 3
REMARK VINA RESULT:     -11.3      1.774      5.818
REMARK  Name = 
REMARK  9 active torsions:
REMARK  status: ('A' for Active; 'I' for Inactive)
REMARK    1  A    between atoms: N_4  and  C_5
REMARK    2  A    between atoms: C_5  and  C_6
REMARK    3  A    between atoms: C_6  and  N_7
REMARK    4  A    between atoms: C_8  and  C_10
REMARK    5  A    between atoms: C_10  and  C_11
REMARK    6  A    between atoms: C_16  and  C_17
REMARK    7  A    between atoms: C_17  and  C_18
REMARK    8  A    between atoms: C_21  and  C_23
REMARK    9  A    between atoms: C_26  and  C_29
REMARK                            x       y       z     vdW  Elec       q    Type
REMARK                         _______ _______ _______ _____ _____    ______ ____
ROOT
ATOM     11  C   UNL     1      -2.255  -1.372  25.111  0.00  0.00    +0.012 C 
ATOM     12  C   UNL     1      -2.373  -2.013  24.604  0.00  0.00    +0.019 C 
ATOM     13  C   UNL     1      -1.724  -2.400  24.271  0.00  0.00    +0.089 C 
ATOM     14  N   UNL     1      -0.958  -2.147  24.444  0.00  0.00    -0.218 NA
ATOM     15  C   UNL     1      -0.840  -1.506  24.951  0.00  0.00    +0.089 C 
ATOM     16  C   UNL     1      -1.489  -1.118  25.284  0.00  0.00    +0.024 C 
ENDROOT
BRANCH  11  10
ATOM     10  C   UNL     1      -2.902  -0.985  25.444  0.00  0.00    +0.087 C 
BRANCH  10   8
ATOM      7  N   UNL     1      -4.301  -0.806  25.206  0.00  0.00    -0.204 NA
ATOM      8  C   UNL     1      -3.660  -1.302  25.362  0.00  0.00    +0.241 C 
ATOM      9  O   UNL     1      -3.777  -2.116  25.436  0.00  0.00    -0.273 OA
BRANCH   7   6
ATOM      6  C   UNL     1      -4.184   0.008  25.132  0.00  0.00    +0.138 C 
BRANCH   6   5
ATOM      5  C   UNL     1      -4.833   0.514  25.074  0.00  0.00    +0.138 C 
BRANCH   5   4
ATOM      1  C   UNL     1      -5.252   2.653  24.969  0.00  0.00    +0.096 C 
ATOM      2  C   UNL     1      -5.367   1.837  25.008  0.00  0.00    +0.242 C 
ATOM      3  O   UNL     1      -6.133   1.529  25.019  0.00  0.00    -0.273 OA
ATOM      4  N   UNL     1      -4.717   1.330  25.035  0.00  0.00    -0.204 NA
ENDBRANCH   5   4
ENDBRANCH   6   5
ENDBRANCH   7   6
ENDBRANCH  10   8
ENDBRANCH  11  10
BRANCH  16  17
ATOM     17  C   UNL     1      -1.371  -0.478  25.791  0.00  0.00    +0.051 C 
BRANCH  17  18
ATOM     18  C   UNL     1      -1.043   0.221  25.502  0.00  0.00    +0.101 A 
ATOM     19  N   UNL     1      -0.344   0.286  25.068  0.00  0.00    -0.081 NA
ATOM     20  O   UNL     1      -0.224   1.084  24.895  0.00  0.00    -0.354 OA
ATOM     21  C   UNL     1      -0.849   1.512  25.221  0.00  0.00    +0.177 A 
ATOM     22  C   UNL     1      -1.355   0.979  25.596  0.00  0.00    +0.058 A 
BRANCH  21  23
ATOM     23  C   UNL     1      -0.951   2.330  25.179  0.00  0.00    +0.037 A 
ATOM     24  C   UNL     1      -1.450   2.654  24.607  0.00  0.00    +0.003 A 
ATOM     25  C   UNL     1      -1.551   3.472  24.565  0.00  0.00    -0.004 A 
ATOM     26  C   UNL     1      -1.155   3.965  25.095  0.00  0.00    -0.023 A 
ATOM     27  C   UNL     1      -0.656   3.639  25.666  0.00  0.00    -0.004 A 
ATOM     28  C   UNL     1      -0.554   2.822  25.708  0.00  0.00    +0.003 A 
BRANCH  26  29
ATOM     29  C   UNL     1      -1.256   4.782  25.053  0.00  0.00    +0.019 C 
ATOM     30  C   UNL     1      -1.359   5.600  25.012  0.00  0.00    +0.004 C 
ATOM     31  C   UNL     1      -0.524   4.854  24.679  0.00  0.00    +0.004 C 
ATOM     32  C   UNL     1      -1.988   4.710  25.427  0.00  0.00    +0.004 C 
ENDBRANCH  26  29
ENDBRANCH  21  23
ENDBRANCH  17  18
ENDBRANCH  16  17
TORSDOF 9
ENDMDL
