MODEL 1
REMARK VINA RESULT:     -11.8      0.000      0.000
REMARK  Name = 
REMARK  5 active torsions:
REMARK  status: ('A' for Active; 'I' for Inactive)
REMARK    1  A    between atoms: O_2  and  C_3
REMARK    2  A    between atoms: C_8  and  C_9
REMARK    3  A    between atoms: C_9  and  N_10
REMARK    4  A    between atoms: C_15  and  C_16
REMARK    5  A    between atoms: C_18  and  C_21
REMARK                            x       y       z     vdW  Elec       q    Type
REMARK                         _______ _______ _______ _____ _____    ______ ____
ROOT
ATOM     10  N   UNL     1      -3.639   2.532  25.106  0.00  0.00    -0.260 NA
ATOM     11  C   UNL     1      -4.055   3.161  25.439  0.00  0.00    +0.106 C 
ATOM     12  C   UNL     1      -4.856   2.962  25.444  0.00  0.00    +0.170 C 
ATOM     13  O   UNL     1      -5.471   3.432  25.729  0.00  0.00    -0.222 OA
ATOM     14  C   UNL     1      -4.934   2.210  25.113  0.00  0.00    +0.060 C 
ATOM     15  C   UNL     1      -4.181   1.944  24.904  0.00  0.00    +0.140 C 
ENDROOT
BRANCH  15  16
ATOM     16  C   UNL     1      -4.002   1.219  24.555  0.00  0.00    +0.251 A 
ATOM     17  N   UNL     1      -4.015   0.484  24.930  0.00  0.00    -0.190 NA
ATOM     18  C   UNL     1      -3.800  -0.088  24.376  0.00  0.00    +0.205 A 
ATOM     19  N   UNL     1      -3.654   0.293  23.659  0.00  0.00    -0.056 NA
ATOM     20  O   UNL     1      -3.779   1.100  23.770  0.00  0.00    -0.336 OA
BRANCH  18  21
ATOM     21  C   UNL     1      -3.741  -0.900  24.515  0.00  0.00    +0.058 A 
ATOM     22  C   UNL     1      -4.073  -1.434  23.981  0.00  0.00    +0.006 A 
ATOM     23  C   UNL     1      -4.014  -2.246  24.120  0.00  0.00    +0.021 A 
ATOM     24  C   UNL     1      -3.624  -2.522  24.793  0.00  0.00    +0.099 A 
ATOM     25  N   UNL     1      -3.293  -1.987  25.326  0.00  0.00    -0.242 NA
ATOM     26  C   UNL     1      -3.352  -1.176  25.187  0.00  0.00    +0.102 A 
ENDBRANCH  18  21
ENDBRANCH  15  16
BRANCH  10   9
ATOM      9  C   UNL     1      -2.822   2.497  24.993  0.00  0.00    +0.103 C 
BRANCH   9   8
ATOM      3  C   UNL     1      -1.619   3.111  25.461  0.00  0.00    +0.136 A 
ATOM      4  C   UNL     1      -1.158   3.787  25.571  0.00  0.00    +0.037 A 
ATOM      5  C   UNL     1      -1.439   4.522  25.327  0.00  0.00    +0.003 A 
ATOM      6  C   UNL     1      -2.181   4.583  24.971  0.00  0.00    -0.000 A 
ATOM      7  C   UNL     1      -2.642   3.909  24.860  0.00  0.00    +0.000 A 
ATOM      8  C   UNL     1      -2.361   3.172  25.105  0.00  0.00    +0.028 A 
BRANCH   3   2
ATOM      1  C   UNL     1      -0.557   2.294  25.959  0.00  0.00    +0.252 C 
ATOM      2  O   UNL     1      -1.339   2.375  25.705  0.00  0.00    -0.472 OA
ENDBRANCH   3   2
ENDBRANCH   9   8
ENDBRANCH  10   9
TORSDOF 5
ENDMDL
MODEL 2
REMARK VINA RESULT:     -11.4      1.249      4.385
REMARK  Name = 
REMARK  5 active torsions:
REMARK  status: ('A' for Active; 'I' for Inactive)
REMARK    1  A    between atoms: O_2  and  C_3
REMARK    2  A    between atoms: C_8  and  C_9
REMARK    3  A    between atoms: C_9  and  N_10
REMARK    4  A    between atoms: C_15  and  C_16
REMARK    5  A    between atoms: C_18  and  C_21
REMARK                            x       y       z     vdW  Elec       q    Type
REMARK                         _______ _______ _______ _____ _____    ______ ____
ROOT
ATOM     10  N   UNL     1      -4.209   0.989  24.788  0.00  0.00    -0.260 NA
ATOM     11  C   UNL     1      -4.959   0.747  25.030  0.00  0.00    +0.106 C 
ATOM     12  C   UNL     1      -5.449   1.411  25.043  0.00  0.00    +0.170 C 
ATOM     13  O   UNL     1      -6.247   1.421  25.253  0.00  0.00    -0.222 OA
ATOM     14  C   UNL     1      -5.001   2.062  24.809  0.00  0.00    +0.060 C 
ATOM     15  C   UNL     1      -4.234   1.801  24.651  0.00  0.00    +0.140 C 
ENDROOT
BRANCH  15  16
ATOM     16  C   UNL     1      -3.604   2.270  24.401  0.00  0.00    +0.251 A 
ATOM     17  N   UNL     1      -3.118   2.728  24.886  0.00  0.00    -0.190 NA
ATOM     18  C   UNL     1      -2.562   3.105  24.406  0.00  0.00    +0.205 A 
ATOM     19  N   UNL     1      -2.705   2.880  23.626  0.00  0.00    -0.056 NA
ATOM     20  O   UNL     1      -3.348   2.365  23.623  0.00  0.00    -0.336 OA
BRANCH  18  21
ATOM     21  C   UNL     1      -1.968   3.617  24.663  0.00  0.00    +0.058 A 
ATOM     22  C   UNL     1      -2.166   4.354  24.976  0.00  0.00    +0.006 A 
ATOM     23  C   UNL     1      -1.572   4.866  25.233  0.00  0.00    +0.021 A 
ATOM     24  C   UNL     1      -0.781   4.641  25.176  0.00  0.00    +0.099 A 
ATOM     25  N   UNL     1      -0.582   3.904  24.863  0.00  0.00    -0.242 NA
ATOM     26  C   UNL     1      -1.177   3.392  24.606  0.00  0.00    +0.102 A 
ENDBRANCH  18  21
ENDBRANCH  15  16
BRANCH  10   9
ATOM      9  C   UNL     1      -3.549   0.503  24.699  0.00  0.00    +0.103 C 
BRANCH   9   8
ATOM      3  C   UNL     1      -3.170  -0.822  25.081  0.00  0.00    +0.136 A 
ATOM      4  C   UNL     1      -3.266  -1.639  25.016  0.00  0.00    +0.037 A 
ATOM      5  C   UNL     1      -3.833  -1.949  24.505  0.00  0.00    +0.003 A 
ATOM      6  C   UNL     1      -4.307  -1.442  24.058  0.00  0.00    -0.000 A 
ATOM      7  C   UNL     1      -4.212  -0.625  24.123  0.00  0.00    +0.000 A 
ATOM      8  C   UNL     1      -3.643  -0.315  24.635  0.00  0.00    +0.028 A 
BRANCH   3   2
ATOM      1  C   UNL     1      -1.952  -0.970  25.815  0.00  0.00    +0.252 C 
ATOM      2  O   UNL     1      -2.602  -0.511  25.593  0.00  0.00    -0.472 OA
ENDBRANCH   3   2
ENDBRANCH   9   8
ENDBRANCH  10   9
TORSDOF 5
ENDMDL
MODEL 3
REMARK VINA RESULT:     -11.3      1.083      1.256
REMARK  Name = 
REMARK  5 active torsions:
REMARK  status: ('A' for Active; 'I' for Inactive)
REMARK    1  A    between atoms: O_2  and  C_3
REMARK    2  A    between atoms: C_8  and  C_9
REMARK    3  A    between atoms: C_9  and  N_10
REMARK    4  A    between atoms: C_15  and  C_16
REMARK    5  A    between atoms: C_18  and  C_21
REMARK                            x       y       z     vdW  Elec       q    Type
REMARK                         _______ _______ _______ _____ _____    ______ ____
ROOT
ATOM     10  N   UNL     1      -3.056   2.148  24.490  0.00  0.00    -0.260 NA
ATOM     11  C   UNL     1      -3.136   2.867  24.094  0.00  0.00    +0.106 C 
ATOM     12  C   UNL     1      -3.876   2.875  23.728  0.00  0.00    +0.170 C 
ATOM     13  O   UNL     1      -4.185   3.489  23.273  0.00  0.00    -0.222 OA
ATOM     14  C   UNL     1      -4.252   2.161  23.899  0.00  0.00    +0.060 C 
ATOM     15  C   UNL     1      -3.744   1.711  24.369  0.00  0.00    +0.140 C 
ENDROOT
BRANCH  15  16
ATOM     16  C   UNL     1      -3.899   0.958  24.667  0.00  0.00    +0.251 A 
ATOM     17  N   UNL     1      -3.700   0.243  24.305  0.00  0.00    -0.190 NA
ATOM     18  C   UNL     1      -3.958  -0.370  24.793  0.00  0.00    +0.205 A 
ATOM     19  N   UNL     1      -4.316  -0.034  25.456  0.00  0.00    -0.056 NA
ATOM     20  O   UNL     1      -4.279   0.785  25.378  0.00  0.00    -0.336 OA
BRANCH  18  21
ATOM     21  C   UNL     1      -3.873  -1.177  24.644  0.00  0.00    +0.058 A 
ATOM     22  C   UNL     1      -4.232  -1.514  23.982  0.00  0.00    +0.006 A 
ATOM     23  C   UNL     1      -4.147  -2.321  23.833  0.00  0.00    +0.021 A 
ATOM     24  C   UNL     1      -3.703  -2.791  24.345  0.00  0.00    +0.099 A 
ATOM     25  N   UNL     1      -3.343  -2.454  25.007  0.00  0.00    -0.242 NA
ATOM     26  C   UNL     1      -3.429  -1.647  25.156  0.00  0.00    +0.102 A 
ENDBRANCH  18  21
ENDBRANCH  15  16
BRANCH  10   9
ATOM      9  C   UNL     1      -2.400   1.907  24.929  0.00  0.00    +0.103 C 
BRANCH   9   8
ATOM      3  C   UNL     1      -1.016   2.263  24.953  0.00  0.00    +0.136 A 
ATOM      4  C   UNL     1      -0.421   2.805  25.136  0.00  0.00    +0.037 A 
ATOM      5  C   UNL     1      -0.613   3.531  25.476  0.00  0.00    +0.003 A 
ATOM      6  C   UNL     1      -1.401   3.716  25.634  0.00  0.00    -0.000 A 
ATOM      7  C   UNL     1      -1.997   3.176  25.452  0.00  0.00    +0.000 A 
ATOM      8  C   UNL     1      -1.804   2.449  25.112  0.00  0.00    +0.028 A 
BRANCH   3   2
ATOM      1  C   UNL     1      -0.032   1.321  24.522  0.00  0.00    +0.252 C 
ATOM      2  O   UNL     1      -0.824   1.537  24.613  0.00  0.00    -0.472 OA
ENDBRANCH   3   2
ENDBRANCH   9   8
ENDBRANCH  10   9
TORSDOF 5
ENDMDL
MODEL 4
REMARK VINA RESULT:     -11.3      1.476      2.721
REMARK  Name = 
REMARK  5 active torsions:
REMARK  status: ('A' for Active; 'I' for Inactive)
REMARK    1  A    between atoms: O_2  and  C_3
REMARK    2  A    between atoms: C_8  and  C_9
REMARK    3  A    between atoms: C_9  and  N_10
REMARK    4  A    between atoms: C_15  and  C_16
REMARK    5  A    between atoms: C_18  and  C_21
REMARK                            x       y       z     vdW  Elec       q    Type
REMARK                         _______ _______ _______ _____ _____    ______ ____
ROOT
ATOM     10  N   UNL     1      -1.287   1.630  24.772  0.00  0.00    -0.260 NA
ATOM     11  C   UNL     1      -0.626   2.050  24.512  0.00  0.00    +0.106 C 
ATOM     12  C   UNL     1      -0.033   1.505  24.330  0.00  0.00    +0.170 C 
ATOM     13  O   UNL     1       0.721   1.685  24.050  0.00  0.00    -0.222 OA
ATOM     14  C   UNL     1      -0.329   0.749  24.478  0.00  0.00    +0.060 C 
ATOM     15  C   UNL     1      -1.104   0.827  24.751  0.00  0.00    +0.140 C 
ENDROOT
BRANCH  15  16
ATOM     16  C   UNL     1      -1.606   0.210  24.966  0.00  0.00    +0.251 A 
ATOM     17  N   UNL     1      -2.080  -0.231  24.453  0.00  0.00    -0.190 NA
ATOM     18  C   UNL     1      -2.490  -0.789  24.901  0.00  0.00    +0.205 A 
ATOM     19  N   UNL     1      -2.270  -0.694  25.690  0.00  0.00    -0.056 NA
ATOM     20  O   UNL     1      -1.724  -0.078  25.730  0.00  0.00    -0.336 OA
BRANCH  18  21
ATOM     21  C   UNL     1      -3.027  -1.344  24.611  0.00  0.00    +0.058 A 
ATOM     22  C   UNL     1      -3.734  -1.094  24.267  0.00  0.00    +0.006 A 
ATOM     23  C   UNL     1      -4.270  -1.650  23.976  0.00  0.00    +0.021 A 
ATOM     24  C   UNL     1      -4.100  -2.455  24.030  0.00  0.00    +0.099 A 
ATOM     25  N   UNL     1      -3.393  -2.705  24.374  0.00  0.00    -0.242 NA
ATOM     26  C   UNL     1      -2.856  -2.150  24.664  0.00  0.00    +0.102 A 
ENDBRANCH  18  21
ENDBRANCH  15  16
BRANCH  10   9
ATOM      9  C   UNL     1      -2.005   1.957  25.011  0.00  0.00    +0.103 C 
BRANCH   9   8
ATOM      3  C   UNL     1      -2.691   3.200  24.839  0.00  0.00    +0.136 A 
ATOM      4  C   UNL     1      -2.747   4.011  24.983  0.00  0.00    +0.037 A 
ATOM      5  C   UNL     1      -2.176   4.389  25.441  0.00  0.00    +0.003 A 
ATOM      6  C   UNL     1      -1.547   3.958  25.756  0.00  0.00    -0.000 A 
ATOM      7  C   UNL     1      -1.490   3.147  25.613  0.00  0.00    +0.000 A 
ATOM      8  C   UNL     1      -2.062   2.768  25.154  0.00  0.00    +0.028 A 
BRANCH   3   2
ATOM      1  C   UNL     1      -3.954   3.220  24.170  0.00  0.00    +0.252 C 
ATOM      2  O   UNL     1      -3.263   2.821  24.381  0.00  0.00    -0.472 OA
ENDBRANCH   3   2
ENDBRANCH   9   8
ENDBRANCH  10   9
TORSDOF 5
ENDMDL
MODEL 5
REMARK VINA RESULT:     -11.1      1.821      5.209
REMARK  Name = 
REMARK  5 active torsions:
REMARK  status: ('A' for Active; 'I' for Inactive)
REMARK    1  A    between atoms: O_2  and  C_3
REMARK    2  A    between atoms: C_8  and  C_9
REMARK    3  A    between atoms: C_9  and  N_10
REMARK    4  A    between atoms: C_15  and  C_16
REMARK    5  A    between atoms: C_18  and  C_21
REMARK                            x       y       z     vdW  Elec       q    Type
REMARK                         _______ _______ _______ _____ _____    ______ ____
ROOT
ATOM     10  N   UNL     1      -1.344   0.218  24.831  0.00  0.00    -0.260 NA
ATOM     11  C   UNL     1      -1.063  -0.416  24.386  0.00  0.00    +0.106 C 
ATOM     12  C   UNL     1      -0.303  -0.226  24.125  0.00  0.00    +0.170 C 
ATOM     13  O   UNL     1       0.183  -0.704  23.661  0.00  0.00    -0.222 OA
ATOM     14  C   UNL     1      -0.116   0.525  24.409  0.00  0.00    +0.060 C 
ATOM     15  C   UNL     1      -0.760   0.800  24.846  0.00  0.00    +0.140 C 
ENDROOT
BRANCH  15  16
ATOM     16  C   UNL     1      -0.811   1.528  25.230  0.00  0.00    +0.251 A 
ATOM     17  N   UNL     1      -1.070   2.236  24.895  0.00  0.00    -0.190 NA
ATOM     18  C   UNL     1      -1.030   2.822  25.474  0.00  0.00    +0.205 A 
ATOM     19  N   UNL     1      -0.747   2.476  26.167  0.00  0.00    -0.056 NA
ATOM     20  O   UNL     1      -0.612   1.677  26.016  0.00  0.00    -0.336 OA
BRANCH  18  21
ATOM     21  C   UNL     1      -1.238   3.615  25.377  0.00  0.00    +0.058 A 
ATOM     22  C   UNL     1      -0.706   4.140  25.028  0.00  0.00    +0.006 A 
ATOM     23  C   UNL     1      -0.913   4.933  24.931  0.00  0.00    +0.021 A 
ATOM     24  C   UNL     1      -1.652   5.200  25.183  0.00  0.00    +0.099 A 
ATOM     25  N   UNL     1      -2.184   4.675  25.532  0.00  0.00    -0.242 NA
ATOM     26  C   UNL     1      -1.976   3.882  25.629  0.00  0.00    +0.102 A 
ENDBRANCH  18  21
ENDBRANCH  15  16
BRANCH  10   9
ATOM      9  C   UNL     1      -2.082   0.263  25.198  0.00  0.00    +0.103 C 
BRANCH   9   8
ATOM      3  C   UNL     1      -3.393  -0.257  24.965  0.00  0.00    +0.136 A 
ATOM      4  C   UNL     1      -3.911  -0.898  24.928  0.00  0.00    +0.037 A 
ATOM      5  C   UNL     1      -3.638  -1.660  25.087  0.00  0.00    +0.003 A 
ATOM      6  C   UNL     1      -2.846  -1.781  25.283  0.00  0.00    -0.000 A 
ATOM      7  C   UNL     1      -2.327  -1.141  25.320  0.00  0.00    +0.000 A 
ATOM      8  C   UNL     1      -2.601  -0.378  25.161  0.00  0.00    +0.028 A 
BRANCH   3   2
ATOM      1  C   UNL     1      -4.478   0.655  24.780  0.00  0.00    +0.252 C 
ATOM      2  O   UNL     1      -3.666   0.505  24.806  0.00  0.00    -0.472 OA
ENDBRANCH   3   2
ENDBRANCH   9   8
ENDBRANCH  10   9
TORSDOF 5
ENDMDL
MODEL 6
REMARK VINA RESULT:     -10.8      1.108      2.044
REMARK  Name = 
REMARK  5 active torsions:
REMARK  status: ('A' for Active; 'I' for Inactive)
REMARK    1  A    between atoms: O_2  and  C_3
REMARK    2  A    between atoms: C_8  and  C_9
REMARK    3  A    between atoms: C_9  and  N_10
REMARK    4  A    between atoms: C_15  and  C_16
REMARK    5  A    between atoms: C_18  and  C_21
REMARK                            x       y       z     vdW  Elec       q    Type
REMARK                         _______ _______ _______ _____ _____    ______ ____
ROOT
ATOM     10  N   UNL     1      -3.142   1.993  24.001  0.00  0.00    -0.260 NA
ATOM     11  C   UNL     1      -2.766   2.501  23.470  0.00  0.00    +0.106 C 
ATOM     12  C   UNL     1      -2.662   2.093  22.760  0.00  0.00    +0.170 C 
ATOM     13  O   UNL     1      -2.309   2.392  22.077  0.00  0.00    -0.222 OA
ATOM     14  C   UNL     1      -2.973   1.335  22.853  0.00  0.00    +0.060 C 
ATOM     15  C   UNL     1      -3.270   1.273  23.621  0.00  0.00    +0.140 C 
ENDROOT
BRANCH  15  16
ATOM     16  C   UNL     1      -3.630   0.609  23.950  0.00  0.00    +0.251 A 
ATOM     17  N   UNL     1      -3.273  -0.124  24.077  0.00  0.00    -0.190 NA
ATOM     18  C   UNL     1      -3.834  -0.626  24.415  0.00  0.00    +0.205 A 
ATOM     19  N   UNL     1      -4.537  -0.203  24.497  0.00  0.00    -0.056 NA
ATOM     20  O   UNL     1      -4.411   0.559  24.209  0.00  0.00    -0.336 OA
BRANCH  18  21
ATOM     21  C   UNL     1      -3.712  -1.412  24.634  0.00  0.00    +0.058 A 
ATOM     22  C   UNL     1      -3.863  -2.018  24.094  0.00  0.00    +0.006 A 
ATOM     23  C   UNL     1      -3.741  -2.804  24.312  0.00  0.00    +0.021 A 
ATOM     24  C   UNL     1      -3.468  -2.985  25.070  0.00  0.00    +0.099 A 
ATOM     25  N   UNL     1      -3.317  -2.379  25.609  0.00  0.00    -0.242 NA
ATOM     26  C   UNL     1      -3.439  -1.593  25.391  0.00  0.00    +0.102 A 
ENDBRANCH  18  21
ENDBRANCH  15  16
BRANCH  10   9
ATOM      9  C   UNL     1      -3.352   2.175  24.778  0.00  0.00    +0.103 C 
BRANCH   9   8
ATOM      3  C   UNL     1      -3.531   3.405  25.484  0.00  0.00    +0.136 A 
ATOM      4  C   UNL     1      -3.211   4.070  25.853  0.00  0.00    +0.037 A 
ATOM      5  C   UNL     1      -2.393   4.171  25.885  0.00  0.00    +0.003 A 
ATOM      6  C   UNL     1      -1.895   3.607  25.548  0.00  0.00    -0.000 A 
ATOM      7  C   UNL     1      -2.214   2.942  25.179  0.00  0.00    +0.000 A 
ATOM      8  C   UNL     1      -3.033   2.841  25.147  0.00  0.00    +0.028 A 
BRANCH   3   2
ATOM      1  C   UNL     1      -4.845   3.814  25.872  0.00  0.00    +0.252 C 
ATOM      2  O   UNL     1      -4.349   3.304  25.452  0.00  0.00    -0.472 OA
ENDBRANCH   3   2
ENDBRANCH   9   8
ENDBRANCH  10   9
TORSDOF 5
ENDMDL
MODEL 7
REMARK VINA RESULT:     -10.5      1.745      4.726
REMARK  Name = 
REMARK  5 active torsions:
REMARK  status: ('A' for Active; 'I' for Inactive)
REMARK    1  A    between atoms: O_2  and  C_3
REMARK    2  A    between atoms: C_8  and  C_9
REMARK    3  A    between atoms: C_9  and  N_10
REMARK    4  A    between atoms: C_15  and  C_16
REMARK    5  A    between atoms: C_18  and  C_21
REMARK                            x       y       z     vdW  Elec       q    Type
REMARK                         _______ _______ _______ _____ _____    ______ ____
ROOT
ATOM     10  N   UNL     1      -2.397   0.031  24.409  0.00  0.00    -0.260 NA
ATOM     11  C   UNL     1      -1.646  -0.302  24.489  0.00  0.00    +0.106 C 
ATOM     12  C   UNL     1      -1.091   0.305  24.427  0.00  0.00    +0.170 C 
ATOM     13  O   UNL     1      -0.272   0.219  24.475  0.00  0.00    -0.222 OA
ATOM     14  C   UNL     1      -1.498   1.012  24.310  0.00  0.00    +0.060 C 
ATOM     15  C   UNL     1      -2.306   0.843  24.299  0.00  0.00    +0.140 C 
ENDROOT
BRANCH  15  16
ATOM     16  C   UNL     1      -2.915   1.389  24.195  0.00  0.00    +0.251 A 
ATOM     17  N   UNL     1      -3.322   1.782  24.797  0.00  0.00    -0.190 NA
ATOM     18  C   UNL     1      -3.882   2.274  24.445  0.00  0.00    +0.205 A 
ATOM     19  N   UNL     1      -3.822   2.187  23.628  0.00  0.00    -0.056 NA
ATOM     20  O   UNL     1      -3.225   1.640  23.473  0.00  0.00    -0.336 OA
BRANCH  18  21
ATOM     21  C   UNL     1      -4.410   2.768  24.843  0.00  0.00    +0.058 A 
ATOM     22  C   UNL     1      -5.128   2.468  25.117  0.00  0.00    +0.006 A 
ATOM     23  C   UNL     1      -5.657   2.962  25.515  0.00  0.00    +0.021 A 
ATOM     24  C   UNL     1      -5.467   3.756  25.637  0.00  0.00    +0.099 A 
ATOM     25  N   UNL     1      -4.749   4.056  25.363  0.00  0.00    -0.242 NA
ATOM     26  C   UNL     1      -4.221   3.562  24.965  0.00  0.00    +0.102 A 
ENDBRANCH  18  21
ENDBRANCH  15  16
BRANCH  10   9
ATOM      9  C   UNL     1      -3.113  -0.377  24.435  0.00  0.00    +0.103 C 
BRANCH   9   8
ATOM      3  C   UNL     1      -3.544  -1.738  24.511  0.00  0.00    +0.136 A 
ATOM      4  C   UNL     1      -3.599  -2.448  24.928  0.00  0.00    +0.037 A 
ATOM      5  C   UNL     1      -3.279  -2.507  25.686  0.00  0.00    +0.003 A 
ATOM      6  C   UNL     1      -2.904  -1.857  26.027  0.00  0.00    -0.000 A 
ATOM      7  C   UNL     1      -2.848  -1.147  25.611  0.00  0.00    +0.000 A 
ATOM      8  C   UNL     1      -3.169  -1.088  24.852  0.00  0.00    +0.028 A 
BRANCH   3   2
ATOM      1  C   UNL     1      -4.375  -2.264  23.473  0.00  0.00    +0.252 C 
ATOM      2  O   UNL     1      -3.864  -1.678  23.753  0.00  0.00    -0.472 OA
ENDBRANCH   3   2
ENDBRANCH   9   8
ENDBRANCH  10   9
TORSDOF 5
ENDMDL
MODEL 8
REMARK VINA RESULT:     -10.3      1.950      4.034
REMARK  Name = 
REMARK  5 active torsions:
REMARK  status: ('A' for Active; 'I' for Inactive)
REMARK    1  A    between atoms: O_2  and  C_3
REMARK    2  A    between atoms: C_8  and  C_9
REMARK    3  A    between atoms: C_9  and  N_10
REMARK    4  A    between atoms: C_15  and  C_16
REMARK    5  A    between atoms: C_18  and  C_21
REMARK                            x       y       z     vdW  Elec       q    Type
REMARK                         _______ _______ _______ _____ _____    ______ ____
ROOT
ATOM     10  N   UNL     1      -1.019   1.685  25.134  0.00  0.00    -0.260 NA
ATOM     11  C   UNL     1      -0.283   1.727  25.503  0.00  0.00    +0.106 C 
ATOM     12  C   UNL     1      -0.224   2.464  25.870  0.00  0.00    +0.170 C 
ATOM     13  O   UNL     1       0.422   2.739  26.304  0.00  0.00    -0.222 OA
ATOM     14  C   UNL     1      -0.924   2.876  25.728  0.00  0.00    +0.060 C 
ATOM     15  C   UNL     1      -1.416   2.395  25.272  0.00  0.00    +0.140 C 
ENDROOT
BRANCH  15  16
ATOM     16  C   UNL     1      -2.170   2.589  25.003  0.00  0.00    +0.251 A 
ATOM     17  N   UNL     1      -2.882   2.407  25.380  0.00  0.00    -0.190 NA
ATOM     18  C   UNL     1      -3.497   2.705  24.920  0.00  0.00    +0.205 A 
ATOM     19  N   UNL     1      -3.167   3.070  24.258  0.00  0.00    -0.056 NA
ATOM     20  O   UNL     1      -2.348   2.999  24.310  0.00  0.00    -0.336 OA
BRANCH  18  21
ATOM     21  C   UNL     1      -4.303   2.648  25.091  0.00  0.00    +0.058 A 
ATOM     22  C   UNL     1      -4.733   1.994  24.831  0.00  0.00    +0.006 A 
ATOM     23  C   UNL     1      -5.539   1.936  25.003  0.00  0.00    +0.021 A 
ATOM     24  C   UNL     1      -5.913   2.532  25.433  0.00  0.00    +0.099 A 
ATOM     25  N   UNL     1      -5.482   3.186  25.693  0.00  0.00    -0.242 NA
ATOM     26  C   UNL     1      -4.677   3.244  25.522  0.00  0.00    +0.102 A 
ENDBRANCH  18  21
ENDBRANCH  15  16
BRANCH  10   9
ATOM      9  C   UNL     1      -1.309   1.045  24.702  0.00  0.00    +0.103 C 
BRANCH   9   8
ATOM      3  C   UNL     1      -0.884  -0.307  24.513  0.00  0.00    +0.136 A 
ATOM      4  C   UNL     1      -0.360  -0.852  24.182  0.00  0.00    +0.037 A 
ATOM      5  C   UNL     1       0.262  -0.590  23.709  0.00  0.00    +0.003 A 
ATOM      6  C   UNL     1       0.362   0.216  23.566  0.00  0.00    -0.000 A 
ATOM      7  C   UNL     1      -0.161   0.761  23.897  0.00  0.00    +0.000 A 
ATOM      8  C   UNL     1      -0.785   0.499  24.371  0.00  0.00    +0.028 A 
BRANCH   3   2
ATOM      1  C   UNL     1      -1.710  -1.369  24.997  0.00  0.00    +0.252 C 
ATOM      2  O   UNL     1      -1.508  -0.568  24.987  0.00  0.00    -0.472 OA
ENDBRANCH   3   2
ENDBRANCH   9   8
ENDBRANCH  10   9
TORSDOF 5
ENDMDL
