MODEL 1
REMARK VINA RESULT:     -13.3      0.000      0.000
REMARK  Name = 
REMARK  7 active torsions:
REMARK  status: ('A' for Active; 'I' for Inactive)
REMARK    1  A    between atoms: C_2  and  C_3
REMARK    2  A    between atoms: C_2  and  C_24
REMARK    3  A    between atoms: C_10  and  N_11
REMARK    4  A    between atoms: C_12  and  C_14
REMARK    5  A    between atoms: C_14  and  C_15
REMARK    6  A    between atoms: N_26  and  C_27
REMARK    7  A    between atoms: C_27  and  C_28
REMARK                            x       y       z     vdW  Elec       q    Type
REMARK                         _______ _______ _______ _____ _____    ______ ____
ROOT
ATOM      3  C   UNL     1      -4.089   2.909  24.656  0.00  0.00    +0.039 C 
ATOM      4  C   UNL     1      -4.704   2.881  25.203  0.00  0.00    +0.003 C 
ATOM      5  C   UNL     1      -5.075   2.163  25.369  0.00  0.00    +0.000 C 
ATOM      6  C   UNL     1      -4.830   1.473  24.987  0.00  0.00    +0.002 C 
ATOM      7  C   UNL     1      -5.447   1.445  25.535  0.00  0.00    +0.000 C 
ATOM      8  C   UNL     1      -5.201   0.756  25.154  0.00  0.00    +0.002 C 
ATOM      9  C   UNL     1      -4.956   0.067  24.772  0.00  0.00    +0.022 C 
ATOM     10  C   UNL     1      -4.339   0.095  24.224  0.00  0.00    +0.095 C 
ATOM     19  C   UNL     1      -3.969   0.813  24.058  0.00  0.00    +0.022 C 
ATOM     20  C   UNL     1      -3.353   0.841  23.510  0.00  0.00    +0.002 C 
ATOM     21  C   UNL     1      -4.214   1.502  24.440  0.00  0.00    +0.032 C 
ATOM     22  C   UNL     1      -3.843   2.220  24.274  0.00  0.00    +0.152 C 
ATOM     23  O   UNL     1      -3.227   2.249  23.726  0.00  0.00    -0.223 OA
ENDROOT
BRANCH  10  11
ATOM     11  N   UNL     1      -4.095  -0.593  23.843  0.00  0.00    -0.207 NA
ATOM     12  C   UNL     1      -3.897  -1.262  24.284  0.00  0.00    +0.241 C 
ATOM     13  O   UNL     1      -3.945  -1.241  25.109  0.00  0.00    -0.273 OA
BRANCH  12  14
ATOM     14  C   UNL     1      -3.652  -1.951  23.903  0.00  0.00    +0.087 C 
BRANCH  14  15
ATOM     15  C   UNL     1      -3.497  -2.632  24.342  0.00  0.00    +0.009 C 
ATOM     16  C   UNL     1      -3.343  -3.314  24.781  0.00  0.00    +0.000 C 
ATOM     17  C   UNL     1      -2.740  -2.353  24.509  0.00  0.00    +0.000 C 
ATOM     18  C   UNL     1      -4.256  -2.912  24.174  0.00  0.00    +0.000 C 
ENDBRANCH  14  15
ENDBRANCH  12  14
ENDBRANCH  10  11
BRANCH   3   2
ATOM      1  C   UNL     1      -3.919   4.048  23.809  0.00  0.00    +0.010 C 
ATOM      2  C   UNL     1      -3.717   3.627  24.489  0.00  0.00    +0.081 C 
BRANCH   2  24
ATOM     24  C   UNL     1      -3.144   3.924  25.002  0.00  0.00    +0.241 C 
ATOM     25  O   UNL     1      -3.351   4.485  25.572  0.00  0.00    -0.273 OA
ATOM     26  N   UNL     1      -2.364   3.662  24.947  0.00  0.00    -0.201 NA
BRANCH  26  27
ATOM     27  C   UNL     1      -1.791   3.959  25.460  0.00  0.00    +0.141 C 
BRANCH  27  28
ATOM     28  C   UNL     1      -1.097   3.533  25.596  0.00  0.00    -0.001 A 
ATOM     29  C   UNL     1      -1.031   3.054  26.264  0.00  0.00    -0.003 A 
ATOM     30  C   UNL     1      -0.337   2.629  26.400  0.00  0.00    -0.000 A 
ATOM     31  C   UNL     1       0.291   2.683  25.867  0.00  0.00    -0.000 A 
ATOM     32  C   UNL     1       0.225   3.163  25.199  0.00  0.00    -0.000 A 
ATOM     33  C   UNL     1      -0.469   3.588  25.064  0.00  0.00    -0.003 A 
ENDBRANCH  27  28
ENDBRANCH  26  27
ENDBRANCH   2  24
ENDBRANCH   3   2
TORSDOF 7
ENDMDL
MODEL 2
REMARK VINA RESULT:     -12.8      1.908      3.505
REMARK  Name = 
REMARK  7 active torsions:
REMARK  status: ('A' for Active; 'I' for Inactive)
REMARK    1  A    between atoms: C_2  and  C_3
REMARK    2  A    between atoms: C_2  and  C_24
REMARK    3  A    between atoms: C_10  and  N_11
REMARK    4  A    between atoms: C_12  and  C_14
REMARK    5  A    between atoms: C_14  and  C_15
REMARK    6  A    between atoms: N_26  and  C_27
REMARK    7  A    between atoms: C_27  and  C_28
REMARK                            x       y       z     vdW  Elec       q    Type
REMARK                         _______ _______ _______ _____ _____    ______ ____
ROOT
ATOM      3  C   UNL     1      -0.258   1.928  25.196  0.00  0.00    +0.039 C 
ATOM      4  C   UNL     1       0.138   1.923  24.473  0.00  0.00    +0.003 C 
ATOM      5  C   UNL     1       0.151   1.237  24.015  0.00  0.00    +0.000 C 
ATOM      6  C   UNL     1      -0.232   0.556  24.281  0.00  0.00    +0.002 C 
ATOM      7  C   UNL     1       0.164   0.550  23.557  0.00  0.00    +0.000 C 
ATOM      8  C   UNL     1      -0.219  -0.130  23.823  0.00  0.00    +0.002 C 
ATOM      9  C   UNL     1      -0.601  -0.811  24.089  0.00  0.00    +0.022 C 
ATOM     10  C   UNL     1      -0.998  -0.806  24.813  0.00  0.00    +0.095 C 
ATOM     19  C   UNL     1      -1.011  -0.119  25.270  0.00  0.00    +0.022 C 
ATOM     20  C   UNL     1      -1.407  -0.115  25.994  0.00  0.00    +0.002 C 
ATOM     21  C   UNL     1      -0.628   0.561  25.005  0.00  0.00    +0.032 C 
ATOM     22  C   UNL     1      -0.641   1.247  25.462  0.00  0.00    +0.152 C 
ATOM     23  O   UNL     1      -1.037   1.253  26.186  0.00  0.00    -0.223 OA
ENDROOT
BRANCH  10  11
ATOM     11  N   UNL     1      -1.380  -1.486  25.079  0.00  0.00    -0.207 NA
ATOM     12  C   UNL     1      -2.030  -1.782  24.665  0.00  0.00    +0.241 C 
ATOM     13  O   UNL     1      -2.297  -1.398  23.985  0.00  0.00    -0.273 OA
BRANCH  12  14
ATOM     14  C   UNL     1      -2.413  -2.463  24.931  0.00  0.00    +0.087 C 
BRANCH  14  15
ATOM     15  C   UNL     1      -3.141  -2.680  24.607  0.00  0.00    +0.009 C 
ATOM     16  C   UNL     1      -3.869  -2.895  24.285  0.00  0.00    +0.000 C 
ATOM     17  C   UNL     1      -2.752  -3.102  24.015  0.00  0.00    +0.000 C 
ATOM     18  C   UNL     1      -3.529  -2.257  25.201  0.00  0.00    +0.000 C 
ENDBRANCH  14  15
ENDBRANCH  12  14
ENDBRANCH  10  11
BRANCH   3   2
ATOM      1  C   UNL     1       0.159   2.649  26.357  0.00  0.00    +0.010 C 
ATOM      2  C   UNL     1      -0.271   2.614  25.654  0.00  0.00    +0.081 C 
BRANCH   2  24
ATOM     24  C   UNL     1      -0.715   3.265  25.411  0.00  0.00    +0.241 C 
ATOM     25  O   UNL     1      -0.355   3.874  24.984  0.00  0.00    -0.273 OA
ATOM     26  N   UNL     1      -1.519   3.309  25.592  0.00  0.00    -0.201 NA
BRANCH  26  27
ATOM     27  C   UNL     1      -1.962   3.960  25.349  0.00  0.00    +0.141 C 
BRANCH  27  28
ATOM     28  C   UNL     1      -2.786   3.915  25.330  0.00  0.00    -0.001 A 
ATOM     29  C   UNL     1      -3.219   3.977  26.029  0.00  0.00    -0.003 A 
ATOM     30  C   UNL     1      -4.043   3.933  26.010  0.00  0.00    -0.000 A 
ATOM     31  C   UNL     1      -4.433   3.825  25.291  0.00  0.00    -0.000 A 
ATOM     32  C   UNL     1      -4.000   3.763  24.591  0.00  0.00    -0.000 A 
ATOM     33  C   UNL     1      -3.176   3.808  24.611  0.00  0.00    -0.003 A 
ENDBRANCH  27  28
ENDBRANCH  26  27
ENDBRANCH   2  24
ENDBRANCH   3   2
TORSDOF 7
ENDMDL
MODEL 3
REMARK VINA RESULT:     -11.9      1.790      5.153
REMARK  Name = 
REMARK  7 active torsions:
REMARK  status: ('A' for Active; 'I' for Inactive)
REMARK    1  A    between atoms: C_2  and  C_3
REMARK    2  A    between atoms: C_2  and  C_24
REMARK    3  A    between atoms: C_10  and  N_11
REMARK    4  A    between atoms: C_12  and  C_14
REMARK    5  A    between atoms: C_14  and  C_15
REMARK    6  A    between atoms: N_26  and  C_27
REMARK    7  A    between atoms: C_27  and  C_28
REMARK                            x       y       z     vdW  Elec       q    Type
REMARK                         _______ _______ _______ _____ _____    ______ ____
ROOT
ATOM      3  C   UNL     1      -0.577   0.789  24.490  0.00  0.00    +0.039 C 
ATOM      4  C   UNL     1      -0.138   1.075  25.125  0.00  0.00    +0.003 C 
ATOM      5  C   UNL     1      -0.382   1.755  25.523  0.00  0.00    +0.000 C 
ATOM      6  C   UNL     1      -1.067   2.150  25.283  0.00  0.00    +0.002 C 
ATOM      7  C   UNL     1      -0.627   2.436  25.920  0.00  0.00    +0.000 C 
ATOM      8  C   UNL     1      -1.311   2.830  25.681  0.00  0.00    +0.002 C 
ATOM      9  C   UNL     1      -1.995   3.224  25.442  0.00  0.00    +0.022 C 
ATOM     10  C   UNL     1      -2.436   2.938  24.805  0.00  0.00    +0.095 C 
ATOM     19  C   UNL     1      -2.191   2.257  24.408  0.00  0.00    +0.022 C 
ATOM     20  C   UNL     1      -2.631   1.971  23.772  0.00  0.00    +0.002 C 
ATOM     21  C   UNL     1      -1.507   1.863  24.647  0.00  0.00    +0.032 C 
ATOM     22  C   UNL     1      -1.263   1.183  24.250  0.00  0.00    +0.152 C 
ATOM     23  O   UNL     1      -1.702   0.896  23.614  0.00  0.00    -0.223 OA
ENDROOT
BRANCH  10  11
ATOM     11  N   UNL     1      -3.119   3.331  24.566  0.00  0.00    -0.207 NA
ATOM     12  C   UNL     1      -3.759   3.399  25.084  0.00  0.00    +0.241 C 
ATOM     13  O   UNL     1      -3.714   3.072  25.841  0.00  0.00    -0.273 OA
BRANCH  12  14
ATOM     14  C   UNL     1      -4.443   3.793  24.845  0.00  0.00    +0.087 C 
BRANCH  14  15
ATOM     15  C   UNL     1      -5.140   3.708  25.278  0.00  0.00    +0.009 C 
ATOM     16  C   UNL     1      -5.837   3.622  25.711  0.00  0.00    +0.000 C 
ATOM     17  C   UNL     1      -4.972   4.405  25.685  0.00  0.00    +0.000 C 
ATOM     18  C   UNL     1      -5.308   3.010  24.871  0.00  0.00    +0.000 C 
ENDBRANCH  14  15
ENDBRANCH  12  14
ENDBRANCH  10  11
BRANCH   3   2
ATOM      1  C   UNL     1       0.032   0.170  23.355  0.00  0.00    +0.010 C 
ATOM      2  C   UNL     1      -0.334   0.108  24.092  0.00  0.00    +0.081 C 
BRANCH   2  24
ATOM     24  C   UNL     1      -0.455  -0.634  24.430  0.00  0.00    +0.241 C 
ATOM     25  O   UNL     1       0.168  -1.022  24.809  0.00  0.00    -0.273 OA
ATOM     26  N   UNL     1      -1.199  -0.989  24.391  0.00  0.00    -0.201 NA
BRANCH  26  27
ATOM     27  C   UNL     1      -1.321  -1.731  24.729  0.00  0.00    +0.141 C 
BRANCH  27  28
ATOM     28  C   UNL     1      -2.082  -2.046  24.771  0.00  0.00    -0.001 A 
ATOM     29  C   UNL     1      -2.337  -2.588  24.206  0.00  0.00    -0.003 A 
ATOM     30  C   UNL     1      -3.099  -2.903  24.248  0.00  0.00    -0.000 A 
ATOM     31  C   UNL     1      -3.605  -2.675  24.858  0.00  0.00    -0.000 A 
ATOM     32  C   UNL     1      -3.350  -2.132  25.425  0.00  0.00    -0.000 A 
ATOM     33  C   UNL     1      -2.589  -1.817  25.381  0.00  0.00    -0.003 A 
ENDBRANCH  27  28
ENDBRANCH  26  27
ENDBRANCH   2  24
ENDBRANCH   3   2
TORSDOF 7
ENDMDL
MODEL 4
REMARK VINA RESULT:     -11.8      2.037      6.070
REMARK  Name = 
REMARK  7 active torsions:
REMARK  status: ('A' for Active; 'I' for Inactive)
REMARK    1  A    between atoms: C_2  and  C_3
REMARK    2  A    between atoms: C_2  and  C_24
REMARK    3  A    between atoms: C_10  and  N_11
REMARK    4  A    between atoms: C_12  and  C_14
REMARK    5  A    between atoms: C_14  and  C_15
REMARK    6  A    between atoms: N_26  and  C_27
REMARK    7  A    between atoms: C_27  and  C_28
REMARK                            x       y       z     vdW  Elec       q    Type
REMARK                         _______ _______ _______ _____ _____    ______ ____
ROOT
ATOM      3  C   UNL     1      -0.498  -0.703  24.791  0.00  0.00    +0.039 C 
ATOM      4  C   UNL     1      -0.149  -0.669  24.044  0.00  0.00    +0.003 C 
ATOM      5  C   UNL     1       0.069   0.059  23.724  0.00  0.00    +0.000 C 
ATOM      6  C   UNL     1      -0.062   0.754  24.151  0.00  0.00    +0.002 C 
ATOM      7  C   UNL     1       0.288   0.788  23.403  0.00  0.00    +0.000 C 
ATOM      8  C   UNL     1       0.157   1.482  23.829  0.00  0.00    +0.002 C 
ATOM      9  C   UNL     1       0.026   2.176  24.255  0.00  0.00    +0.022 C 
ATOM     10  C   UNL     1      -0.324   2.142  25.003  0.00  0.00    +0.095 C 
ATOM     19  C   UNL     1      -0.542   1.414  25.323  0.00  0.00    +0.022 C 
ATOM     20  C   UNL     1      -0.891   1.381  26.069  0.00  0.00    +0.002 C 
ATOM     21  C   UNL     1      -0.411   0.720  24.897  0.00  0.00    +0.032 C 
ATOM     22  C   UNL     1      -0.629  -0.008  25.217  0.00  0.00    +0.152 C 
ATOM     23  O   UNL     1      -0.979  -0.042  25.964  0.00  0.00    -0.223 OA
ENDROOT
BRANCH  10  11
ATOM     11  N   UNL     1      -0.454   2.836  25.428  0.00  0.00    -0.207 NA
ATOM     12  C   UNL     1      -0.864   3.463  25.080  0.00  0.00    +0.241 C 
ATOM     13  O   UNL     1      -1.143   3.395  24.306  0.00  0.00    -0.273 OA
BRANCH  12  14
ATOM     14  C   UNL     1      -0.995   4.157  25.506  0.00  0.00    +0.087 C 
BRANCH  14  15
ATOM     15  C   UNL     1      -1.420   4.776  25.165  0.00  0.00    +0.009 C 
ATOM     16  C   UNL     1      -1.846   5.395  24.823  0.00  0.00    +0.000 C 
ATOM     17  C   UNL     1      -0.727   5.064  24.824  0.00  0.00    +0.000 C 
ATOM     18  C   UNL     1      -2.114   4.487  25.506  0.00  0.00    +0.000 C 
ENDBRANCH  14  15
ENDBRANCH  12  14
ENDBRANCH  10  11
BRANCH   3   2
ATOM      1  C   UNL     1      -0.422  -1.662  25.847  0.00  0.00    +0.010 C 
ATOM      2  C   UNL     1      -0.717  -1.431  25.112  0.00  0.00    +0.081 C 
BRANCH   2  24
ATOM     24  C   UNL     1      -1.230  -1.927  24.699  0.00  0.00    +0.241 C 
ATOM     25  O   UNL     1      -0.927  -2.521  24.212  0.00  0.00    -0.273 OA
ATOM     26  N   UNL     1      -2.046  -1.830  24.773  0.00  0.00    -0.201 NA
BRANCH  26  27
ATOM     27  C   UNL     1      -2.560  -2.326  24.360  0.00  0.00    +0.141 C 
BRANCH  27  28
ATOM     28  C   UNL     1      -3.337  -2.090  24.218  0.00  0.00    -0.001 A 
ATOM     29  C   UNL     1      -3.574  -1.321  24.394  0.00  0.00    -0.003 A 
ATOM     30  C   UNL     1      -4.352  -1.084  24.251  0.00  0.00    -0.000 A 
ATOM     31  C   UNL     1      -4.893  -1.619  23.932  0.00  0.00    -0.000 A 
ATOM     32  C   UNL     1      -4.656  -2.390  23.755  0.00  0.00    -0.000 A 
ATOM     33  C   UNL     1      -3.878  -2.625  23.898  0.00  0.00    -0.003 A 
ENDBRANCH  27  28
ENDBRANCH  26  27
ENDBRANCH   2  24
ENDBRANCH   3   2
TORSDOF 7
ENDMDL
MODEL 5
REMARK VINA RESULT:     -11.6      1.231      4.785
REMARK  Name = 
REMARK  7 active torsions:
REMARK  status: ('A' for Active; 'I' for Inactive)
REMARK    1  A    between atoms: C_2  and  C_3
REMARK    2  A    between atoms: C_2  and  C_24
REMARK    3  A    between atoms: C_10  and  N_11
REMARK    4  A    between atoms: C_12  and  C_14
REMARK    5  A    between atoms: C_14  and  C_15
REMARK    6  A    between atoms: N_26  and  C_27
REMARK    7  A    between atoms: C_27  and  C_28
REMARK                            x       y       z     vdW  Elec       q    Type
REMARK                         _______ _______ _______ _____ _____    ______ ____
ROOT
ATOM      3  C   UNL     1      -4.319   0.316  24.534  0.00  0.00    +0.039 C 
ATOM      4  C   UNL     1      -4.924   0.496  25.064  0.00  0.00    +0.003 C 
ATOM      5  C   UNL     1      -5.038   1.274  25.311  0.00  0.00    +0.000 C 
ATOM      6  C   UNL     1      -4.547   1.874  25.027  0.00  0.00    +0.002 C 
ATOM      7  C   UNL     1      -5.153   2.054  25.558  0.00  0.00    +0.000 C 
ATOM      8  C   UNL     1      -4.662   2.653  25.274  0.00  0.00    +0.002 C 
ATOM      9  C   UNL     1      -4.170   3.252  24.990  0.00  0.00    +0.022 C 
ATOM     10  C   UNL     1      -3.564   3.072  24.459  0.00  0.00    +0.095 C 
ATOM     19  C   UNL     1      -3.450   2.293  24.213  0.00  0.00    +0.022 C 
ATOM     20  C   UNL     1      -2.844   2.114  23.683  0.00  0.00    +0.002 C 
ATOM     21  C   UNL     1      -3.941   1.694  24.497  0.00  0.00    +0.032 C 
ATOM     22  C   UNL     1      -3.827   0.916  24.250  0.00  0.00    +0.152 C 
ATOM     23  O   UNL     1      -3.221   0.735  23.720  0.00  0.00    -0.223 OA
ENDROOT
BRANCH  10  11
ATOM     11  N   UNL     1      -3.073   3.670  24.176  0.00  0.00    -0.207 NA
ATOM     12  C   UNL     1      -2.584   4.084  24.697  0.00  0.00    +0.241 C 
ATOM     13  O   UNL     1      -2.587   3.899  25.501  0.00  0.00    -0.273 OA
BRANCH  12  14
ATOM     14  C   UNL     1      -2.093   4.683  24.413  0.00  0.00    +0.087 C 
BRANCH  14  15
ATOM     15  C   UNL     1      -1.441   4.926  24.856  0.00  0.00    +0.009 C 
ATOM     16  C   UNL     1      -0.788   5.168  25.299  0.00  0.00    +0.000 C 
ATOM     17  C   UNL     1      -1.909   5.488  25.238  0.00  0.00    +0.000 C 
ATOM     18  C   UNL     1      -0.972   4.364  24.474  0.00  0.00    +0.000 C 
ENDBRANCH  14  15
ENDBRANCH  12  14
ENDBRANCH  10  11
BRANCH   3   2
ATOM      1  C   UNL     1      -4.464  -0.701  23.542  0.00  0.00    +0.010 C 
ATOM      2  C   UNL     1      -4.204  -0.463  24.287  0.00  0.00    +0.081 C 
BRANCH   2  24
ATOM     24  C   UNL     1      -3.829  -1.003  24.785  0.00  0.00    +0.241 C 
ATOM     25  O   UNL     1      -4.250  -1.359  25.400  0.00  0.00    -0.273 OA
ATOM     26  N   UNL     1      -3.033  -1.188  24.669  0.00  0.00    -0.201 NA
BRANCH  26  27
ATOM     27  C   UNL     1      -2.659  -1.729  25.167  0.00  0.00    +0.141 C 
BRANCH  27  28
ATOM     28  C   UNL     1      -1.838  -1.811  25.144  0.00  0.00    -0.001 A 
ATOM     29  C   UNL     1      -1.495  -2.409  24.691  0.00  0.00    -0.003 A 
ATOM     30  C   UNL     1      -0.675  -2.491  24.669  0.00  0.00    -0.000 A 
ATOM     31  C   UNL     1      -0.197  -1.975  25.100  0.00  0.00    -0.000 A 
ATOM     32  C   UNL     1      -0.540  -1.377  25.554  0.00  0.00    -0.000 A 
ATOM     33  C   UNL     1      -1.360  -1.295  25.575  0.00  0.00    -0.003 A 
ENDBRANCH  27  28
ENDBRANCH  26  27
ENDBRANCH   2  24
ENDBRANCH   3   2
TORSDOF 7
ENDMDL
MODEL 6
REMARK VINA RESULT:     -11.1      1.733      3.659
REMARK  Name = 
REMARK  7 active torsions:
REMARK  status: ('A' for Active; 'I' for Inactive)
REMARK    1  A    between atoms: C_2  and  C_3
REMARK    2  A    between atoms: C_2  and  C_24
REMARK    3  A    between atoms: C_10  and  N_11
REMARK    4  A    between atoms: C_12  and  C_14
REMARK    5  A    between atoms: C_14  and  C_15
REMARK    6  A    between atoms: N_26  and  C_27
REMARK    7  A    between atoms: C_27  and  C_28
REMARK                            x       y       z     vdW  Elec       q    Type
REMARK                         _______ _______ _______ _____ _____    ______ ____
ROOT
ATOM      3  C   UNL     1      -2.111   3.435  25.175  0.00  0.00    +0.039 C 
ATOM      4  C   UNL     1      -1.628   3.614  25.819  0.00  0.00    +0.003 C 
ATOM      5  C   UNL     1      -1.041   3.085  26.054  0.00  0.00    +0.000 C 
ATOM      6  C   UNL     1      -0.937   2.375  25.645  0.00  0.00    +0.002 C 
ATOM      7  C   UNL     1      -0.453   2.555  26.289  0.00  0.00    +0.000 C 
ATOM      8  C   UNL     1      -0.349   1.846  25.880  0.00  0.00    +0.002 C 
ATOM      9  C   UNL     1      -0.246   1.137  25.472  0.00  0.00    +0.022 C 
ATOM     10  C   UNL     1      -0.729   0.957  24.827  0.00  0.00    +0.095 C 
ATOM     19  C   UNL     1      -1.316   1.487  24.592  0.00  0.00    +0.022 C 
ATOM     20  C   UNL     1      -1.799   1.307  23.949  0.00  0.00    +0.002 C 
ATOM     21  C   UNL     1      -1.420   2.196  25.001  0.00  0.00    +0.032 C 
ATOM     22  C   UNL     1      -2.007   2.725  24.766  0.00  0.00    +0.152 C 
ATOM     23  O   UNL     1      -2.491   2.546  24.122  0.00  0.00    -0.223 OA
ENDROOT
BRANCH  10  11
ATOM     11  N   UNL     1      -0.626   0.249  24.419  0.00  0.00    -0.207 NA
ATOM     12  C   UNL     1      -0.737  -0.472  24.807  0.00  0.00    +0.241 C 
ATOM     13  O   UNL     1      -0.953  -0.482  25.604  0.00  0.00    -0.273 OA
BRANCH  12  14
ATOM     14  C   UNL     1      -0.633  -1.181  24.398  0.00  0.00    +0.087 C 
BRANCH  14  15
ATOM     15  C   UNL     1      -0.926  -1.885  24.713  0.00  0.00    +0.009 C 
ATOM     16  C   UNL     1      -1.220  -2.589  25.028  0.00  0.00    +0.000 C 
ATOM     17  C   UNL     1      -0.258  -1.949  25.191  0.00  0.00    +0.000 C 
ATOM     18  C   UNL     1      -1.596  -1.820  24.234  0.00  0.00    +0.000 C 
ENDBRANCH  14  15
ENDBRANCH  12  14
ENDBRANCH  10  11
BRANCH   3   2
ATOM      1  C   UNL     1      -2.576   4.450  24.284  0.00  0.00    +0.010 C 
ATOM      2  C   UNL     1      -2.699   3.964  24.939  0.00  0.00    +0.081 C 
BRANCH   2  24
ATOM     24  C   UNL     1      -3.408   4.007  25.358  0.00  0.00    +0.241 C 
ATOM     25  O   UNL     1      -3.473   4.510  26.009  0.00  0.00    -0.273 OA
ATOM     26  N   UNL     1      -4.053   3.547  25.126  0.00  0.00    -0.201 NA
BRANCH  26  27
ATOM     27  C   UNL     1      -4.762   3.590  25.544  0.00  0.00    +0.141 C 
BRANCH  27  28
ATOM     28  C   UNL     1      -5.291   2.957  25.528  0.00  0.00    -0.001 A 
ATOM     29  C   UNL     1      -5.561   2.663  24.807  0.00  0.00    -0.003 A 
ATOM     30  C   UNL     1      -6.090   2.029  24.791  0.00  0.00    -0.000 A 
ATOM     31  C   UNL     1      -6.347   1.690  25.498  0.00  0.00    -0.000 A 
ATOM     32  C   UNL     1      -6.076   1.984  26.220  0.00  0.00    -0.000 A 
ATOM     33  C   UNL     1      -5.548   2.617  26.235  0.00  0.00    -0.003 A 
ENDBRANCH  27  28
ENDBRANCH  26  27
ENDBRANCH   2  24
ENDBRANCH   3   2
TORSDOF 7
ENDMDL
MODEL 7
REMARK VINA RESULT:     -10.9      3.131      5.020
REMARK  Name = 
REMARK  7 active torsions:
REMARK  status: ('A' for Active; 'I' for Inactive)
REMARK    1  A    between atoms: C_2  and  C_3
REMARK    2  A    between atoms: C_2  and  C_24
REMARK    3  A    between atoms: C_10  and  N_11
REMARK    4  A    between atoms: C_12  and  C_14
REMARK    5  A    between atoms: C_14  and  C_15
REMARK    6  A    between atoms: N_26  and  C_27
REMARK    7  A    between atoms: C_27  and  C_28
REMARK                            x       y       z     vdW  Elec       q    Type
REMARK                         _______ _______ _______ _____ _____    ______ ____
ROOT
ATOM      3  C   UNL     1      -0.059   0.792  23.915  0.00  0.00    +0.039 C 
ATOM      4  C   UNL     1       0.370   1.429  24.213  0.00  0.00    +0.003 C 
ATOM      5  C   UNL     1      -0.017   2.127  24.420  0.00  0.00    +0.000 C 
ATOM      6  C   UNL     1      -0.836   2.187  24.328  0.00  0.00    +0.002 C 
ATOM      7  C   UNL     1      -0.405   2.826  24.627  0.00  0.00    +0.000 C 
ATOM      8  C   UNL     1      -1.223   2.886  24.535  0.00  0.00    +0.002 C 
ATOM      9  C   UNL     1      -2.041   2.946  24.443  0.00  0.00    +0.022 C 
ATOM     10  C   UNL     1      -2.471   2.308  24.144  0.00  0.00    +0.095 C 
ATOM     19  C   UNL     1      -2.083   1.610  23.938  0.00  0.00    +0.022 C 
ATOM     20  C   UNL     1      -2.513   0.973  23.639  0.00  0.00    +0.002 C 
ATOM     21  C   UNL     1      -1.265   1.550  24.030  0.00  0.00    +0.032 C 
ATOM     22  C   UNL     1      -0.878   0.852  23.823  0.00  0.00    +0.152 C 
ATOM     23  O   UNL     1      -1.307   0.214  23.524  0.00  0.00    -0.223 OA
ENDROOT
BRANCH  10  11
ATOM     11  N   UNL     1      -3.288   2.368  24.053  0.00  0.00    -0.207 NA
ATOM     12  C   UNL     1      -3.754   2.643  24.676  0.00  0.00    +0.241 C 
ATOM     13  O   UNL     1      -3.402   2.856  25.392  0.00  0.00    -0.273 OA
BRANCH  12  14
ATOM     14  C   UNL     1      -4.572   2.703  24.585  0.00  0.00    +0.087 C 
BRANCH  14  15
ATOM     15  C   UNL     1      -5.055   2.792  25.247  0.00  0.00    +0.009 C 
ATOM     16  C   UNL     1      -5.539   2.879  25.910  0.00  0.00    +0.000 C 
ATOM     17  C   UNL     1      -4.901   3.602  25.252  0.00  0.00    +0.000 C 
ATOM     18  C   UNL     1      -5.209   1.981  25.243  0.00  0.00    +0.000 C 
ENDBRANCH  14  15
ENDBRANCH  12  14
ENDBRANCH  10  11
BRANCH   3   2
ATOM      1  C   UNL     1       0.171  -0.603  24.121  0.00  0.00    +0.010 C 
ATOM      2  C   UNL     1       0.328   0.093  23.708  0.00  0.00    +0.081 C 
BRANCH   2  24
ATOM     24  C   UNL     1       0.872   0.091  23.088  0.00  0.00    +0.241 C 
ATOM     25  O   UNL     1       0.607   0.058  22.306  0.00  0.00    -0.273 OA
ATOM     26  N   UNL     1       1.681   0.121  23.248  0.00  0.00    -0.201 NA
BRANCH  26  27
ATOM     27  C   UNL     1       2.225   0.118  22.628  0.00  0.00    +0.141 C 
BRANCH  27  28
ATOM     28  C   UNL     1       3.029   0.218  22.783  0.00  0.00    -0.001 A 
ATOM     29  C   UNL     1       3.468  -0.401  23.105  0.00  0.00    -0.003 A 
ATOM     30  C   UNL     1       4.272  -0.301  23.260  0.00  0.00    -0.000 A 
ATOM     31  C   UNL     1       4.637   0.420  23.093  0.00  0.00    -0.000 A 
ATOM     32  C   UNL     1       4.198   1.041  22.771  0.00  0.00    -0.000 A 
ATOM     33  C   UNL     1       3.394   0.939  22.616  0.00  0.00    -0.003 A 
ENDBRANCH  27  28
ENDBRANCH  26  27
ENDBRANCH   2  24
ENDBRANCH   3   2
TORSDOF 7
ENDMDL
MODEL 8
REMARK VINA RESULT:     -10.7      3.091      5.450
REMARK  Name = 
REMARK  7 active torsions:
REMARK  status: ('A' for Active; 'I' for Inactive)
REMARK    1  A    between atoms: C_2  and  C_3
REMARK    2  A    between atoms: C_2  and  C_24
REMARK    3  A    between atoms: C_10  and  N_11
REMARK    4  A    between atoms: C_12  and  C_14
REMARK    5  A    between atoms: C_14  and  C_15
REMARK    6  A    between atoms: N_26  and  C_27
REMARK    7  A    between atoms: C_27  and  C_28
REMARK                            x       y       z     vdW  Elec       q    Type
REMARK                         _______ _______ _______ _____ _____    ______ ____
ROOT
ATOM      3  C   UNL     1      -1.551   0.491  24.833  0.00  0.00    +0.039 C 
ATOM      4  C   UNL     1      -1.469   1.269  25.089  0.00  0.00    +0.003 C 
ATOM      5  C   UNL     1      -0.798   1.703  24.884  0.00  0.00    +0.000 C 
ATOM      6  C   UNL     1      -0.209   1.357  24.421  0.00  0.00    +0.002 C 
ATOM      7  C   UNL     1      -0.127   2.137  24.679  0.00  0.00    +0.000 C 
ATOM      8  C   UNL     1       0.462   1.791  24.216  0.00  0.00    +0.002 C 
ATOM      9  C   UNL     1       1.051   1.445  23.753  0.00  0.00    +0.022 C 
ATOM     10  C   UNL     1       0.969   0.665  23.496  0.00  0.00    +0.095 C 
ATOM     19  C   UNL     1       0.298   0.232  23.702  0.00  0.00    +0.022 C 
ATOM     20  C   UNL     1       0.217  -0.548  23.444  0.00  0.00    +0.002 C 
ATOM     21  C   UNL     1      -0.291   0.578  24.164  0.00  0.00    +0.032 C 
ATOM     22  C   UNL     1      -0.961   0.144  24.369  0.00  0.00    +0.152 C 
ATOM     23  O   UNL     1      -1.044  -0.636  24.112  0.00  0.00    -0.223 OA
ENDROOT
BRANCH  10  11
ATOM     11  N   UNL     1       1.558   0.319  23.034  0.00  0.00    -0.207 NA
ATOM     12  C   UNL     1       2.329   0.612  23.060  0.00  0.00    +0.241 C 
ATOM     13  O   UNL     1       2.511   1.252  23.550  0.00  0.00    -0.273 OA
BRANCH  12  14
ATOM     14  C   UNL     1       2.918   0.267  22.598  0.00  0.00    +0.087 C 
BRANCH  14  15
ATOM     15  C   UNL     1       3.712   0.369  22.798  0.00  0.00    +0.009 C 
ATOM     16  C   UNL     1       4.506   0.469  22.998  0.00  0.00    +0.000 C 
ATOM     17  C   UNL     1       3.716   1.097  22.412  0.00  0.00    +0.000 C 
ATOM     18  C   UNL     1       3.708  -0.361  23.184  0.00  0.00    +0.000 C 
ENDBRANCH  14  15
ENDBRANCH  12  14
ENDBRANCH  10  11
BRANCH   3   2
ATOM      1  C   UNL     1      -2.174  -0.526  25.620  0.00  0.00    +0.010 C 
ATOM      2  C   UNL     1      -2.222   0.056  25.038  0.00  0.00    +0.081 C 
BRANCH   2  24
ATOM     24  C   UNL     1      -2.941   0.204  24.661  0.00  0.00    +0.241 C 
ATOM     25  O   UNL     1      -3.139  -0.209  23.974  0.00  0.00    -0.273 OA
ATOM     26  N   UNL     1      -3.462   0.764  24.971  0.00  0.00    -0.201 NA
BRANCH  26  27
ATOM     27  C   UNL     1      -4.180   0.911  24.594  0.00  0.00    +0.141 C 
BRANCH  27  28
ATOM     28  C   UNL     1      -4.674   1.513  24.868  0.00  0.00    -0.001 A 
ATOM     29  C   UNL     1      -5.277   1.342  25.403  0.00  0.00    -0.003 A 
ATOM     30  C   UNL     1      -5.771   1.944  25.676  0.00  0.00    -0.000 A 
ATOM     31  C   UNL     1      -5.661   2.718  25.413  0.00  0.00    -0.000 A 
ATOM     32  C   UNL     1      -5.057   2.890  24.877  0.00  0.00    -0.000 A 
ATOM     33  C   UNL     1      -4.564   2.288  24.604  0.00  0.00    -0.003 A 
ENDBRANCH  27  28
ENDBRANCH  26  27
ENDBRANCH   2  24
ENDBRANCH   3   2
TORSDOF 7
ENDMDL
