MODEL 1
REMARK VINA RESULT:     -10.5      0.000      0.000
REMARK  Name = 
REMARK  9 active torsions:
REMARK  status: ('A' for Active; 'I' for Inactive)
REMARK    1  A    between atoms: C_2  and  C_3
REMARK    2  A    between atoms: C_3  and  N_4
REMARK    3  A    between atoms: N_7  and  C_8
REMARK    4  A    between atoms: C_10  and  C_16
REMARK    5  A    between atoms: N_18  and  C_19
REMARK    6  A    between atoms: C_19  and  C_20
REMARK    7  A    between atoms: C_19  and  C_29
REMARK    8  A    between atoms: C_20  and  C_21
REMARK    9  A    between atoms: C_24  and  O_25
REMARK                            x       y       z     vdW  Elec       q    Type
REMARK                         _______ _______ _______ _____ _____    ______ ____
ROOT
ATOM     16  C   UNL     1      -3.351   3.256  24.869  0.00  0.00    +0.261 C 
ATOM     17  O   UNL     1      -3.379   3.941  24.410  0.00  0.00    -0.269 OA
ATOM     18  N   UNL     1      -2.629   2.987  25.162  0.00  0.00    -0.194 NA
ENDROOT
BRANCH  16  10
ATOM      8  C   UNL     1      -4.862   1.681  24.865  0.00  0.00    +0.152 C 
ATOM      9  C   UNL     1      -4.169   2.096  24.700  0.00  0.00    -0.002 C 
ATOM     10  C   UNL     1      -4.044   2.841  25.034  0.00  0.00    +0.033 C 
ATOM     11  C   UNL     1      -4.612   3.169  25.533  0.00  0.00    +0.066 C 
ATOM     12  C   UNL     1      -5.306   2.753  25.699  0.00  0.00    +0.189 C 
ATOM     13  O   UNL     1      -5.874   3.081  26.198  0.00  0.00    -0.220 OA
ATOM     14  C   UNL     1      -5.430   2.009  25.365  0.00  0.00    +0.206 C 
ATOM     15  O   UNL     1      -6.124   1.594  25.531  0.00  0.00    -0.218 OA
BRANCH   8   7
ATOM      4  N   UNL     1      -4.595  -0.426  24.365  0.00  0.00    -0.187 NA
ATOM      5  C   UNL     1      -4.469   0.317  24.698  0.00  0.00    +0.340 C 
ATOM      6  O   UNL     1      -3.826   0.441  25.199  0.00  0.00    -0.249 OA
ATOM      7  N   UNL     1      -4.987   0.937  24.532  0.00  0.00    -0.182 NA
BRANCH   4   3
ATOM      3  C   UNL     1      -4.077  -1.047  24.531  0.00  0.00    +0.117 C 
BRANCH   3   2
ATOM      1  C   UNL     1      -3.727  -2.419  24.338  0.00  0.00    +0.002 C 
ATOM      2  C   UNL     1      -4.083  -1.727  24.065  0.00  0.00    +0.023 C 
ENDBRANCH   3   2
ENDBRANCH   4   3
ENDBRANCH   8   7
ENDBRANCH  16  10
BRANCH  18  19
ATOM     19  C   UNL     1      -1.935   3.402  24.997  0.00  0.00    +0.179 C 
BRANCH  19  29
ATOM     29  C   UNL     1      -1.703   4.027  25.484  0.00  0.00    +0.281 C 
ATOM     30  N   UNL     1      -1.446   4.737  25.149  0.00  0.00    -0.086 NA
ATOM     31  O   UNL     1      -1.728   3.942  26.304  0.00  0.00    -0.270 OA
ENDBRANCH  19  29
BRANCH  19  20
ATOM     20  C   UNL     1      -1.474   3.193  24.346  0.00  0.00    +0.057 C 
BRANCH  20  21
ATOM     21  C   UNL     1      -1.085   2.466  24.331  0.00  0.00    -0.020 A 
ATOM     22  C   UNL     1      -0.603   2.242  24.962  0.00  0.00    -0.001 A 
ATOM     23  C   UNL     1      -0.215   1.514  24.946  0.00  0.00    +0.037 A 
ATOM     24  C   UNL     1      -0.309   1.010  24.301  0.00  0.00    +0.139 A 
ATOM     27  C   UNL     1      -0.791   1.234  23.670  0.00  0.00    +0.037 A 
ATOM     28  C   UNL     1      -1.180   1.961  23.684  0.00  0.00    -0.001 A 
BRANCH  24  25
ATOM     25  O   UNL     1       0.080   0.282  24.285  0.00  0.00    -0.471 OA
ATOM     26  C   UNL     1      -0.357  -0.418  24.301  0.00  0.00    +0.252 C 
ENDBRANCH  24  25
ENDBRANCH  20  21
ENDBRANCH  19  20
ENDBRANCH  18  19
TORSDOF 9
ENDMDL
MODEL 2
REMARK VINA RESULT:     -10.5      1.282      3.887
REMARK  Name = 
REMARK  9 active torsions:
REMARK  status: ('A' for Active; 'I' for Inactive)
REMARK    1  A    between atoms: C_2  and  C_3
REMARK    2  A    between atoms: C_3  and  N_4
REMARK    3  A    between atoms: N_7  and  C_8
REMARK    4  A    between atoms: C_10  and  C_16
REMARK    5  A    between atoms: N_18  and  C_19
REMARK    6  A    between atoms: C_19  and  C_20
REMARK    7  A    between atoms: C_19  and  C_29
REMARK    8  A    between atoms: C_20  and  C_21
REMARK    9  A    between atoms: C_24  and  O_25
REMARK                            x       y       z     vdW  Elec       q    Type
REMARK                         _______ _______ _______ _____ _____    ______ ____
ROOT
ATOM     16  C   UNL     1      -4.122   0.166  25.175  0.00  0.00    +0.261 C 
ATOM     17  O   UNL     1      -4.367  -0.254  25.841  0.00  0.00    -0.269 OA
ATOM     18  N   UNL     1      -3.574  -0.167  24.656  0.00  0.00    -0.194 NA
ENDROOT
BRANCH  16  10
ATOM      8  C   UNL     1      -4.218   2.284  24.657  0.00  0.00    +0.152 C 
ATOM      9  C   UNL     1      -3.917   1.531  24.805  0.00  0.00    -0.002 C 
ATOM     10  C   UNL     1      -4.423   0.919  25.027  0.00  0.00    +0.033 C 
ATOM     11  C   UNL     1      -5.233   1.061  25.102  0.00  0.00    +0.066 C 
ATOM     12  C   UNL     1      -5.535   1.815  24.954  0.00  0.00    +0.189 C 
ATOM     13  O   UNL     1      -6.343   1.957  25.029  0.00  0.00    -0.220 OA
ATOM     14  C   UNL     1      -5.028   2.426  24.732  0.00  0.00    +0.206 C 
ATOM     15  O   UNL     1      -5.330   3.180  24.584  0.00  0.00    -0.218 OA
BRANCH   8   7
ATOM      4  N   UNL     1      -2.635   3.784  24.739  0.00  0.00    -0.187 NA
ATOM      5  C   UNL     1      -3.141   3.172  24.961  0.00  0.00    +0.340 C 
ATOM      6  O   UNL     1      -3.076   2.836  25.712  0.00  0.00    -0.249 OA
ATOM      7  N   UNL     1      -3.712   2.896  24.434  0.00  0.00    -0.182 NA
BRANCH   4   3
ATOM      3  C   UNL     1      -2.064   4.060  25.266  0.00  0.00    +0.117 C 
BRANCH   3   2
ATOM      1  C   UNL     1      -0.909   4.862  25.008  0.00  0.00    +0.002 C 
ATOM      2  C   UNL     1      -1.719   4.801  25.151  0.00  0.00    +0.023 C 
ENDBRANCH   3   2
ENDBRANCH   4   3
ENDBRANCH   8   7
ENDBRANCH  16  10
BRANCH  18  19
ATOM     19  C   UNL     1      -3.272  -0.921  24.803  0.00  0.00    +0.179 C 
BRANCH  19  29
ATOM     29  C   UNL     1      -3.636  -1.583  24.471  0.00  0.00    +0.281 C 
ATOM     30  N   UNL     1      -3.779  -2.251  24.936  0.00  0.00    -0.086 NA
ATOM     31  O   UNL     1      -3.857  -1.578  23.677  0.00  0.00    -0.270 OA
ENDBRANCH  19  29
BRANCH  19  20
ATOM     20  C   UNL     1      -2.606  -1.013  25.282  0.00  0.00    +0.057 C 
BRANCH  20  21
ATOM     21  C   UNL     1      -1.851  -0.925  24.960  0.00  0.00    -0.020 A 
ATOM     22  C   UNL     1      -1.465  -0.197  25.007  0.00  0.00    -0.001 A 
ATOM     23  C   UNL     1      -0.710  -0.111  24.686  0.00  0.00    +0.037 A 
ATOM     24  C   UNL     1      -0.342  -0.750  24.318  0.00  0.00    +0.139 A 
ATOM     27  C   UNL     1      -0.728  -1.477  24.271  0.00  0.00    +0.037 A 
ATOM     28  C   UNL     1      -1.483  -1.565  24.592  0.00  0.00    -0.001 A 
BRANCH  24  25
ATOM     25  O   UNL     1       0.413  -0.663  23.996  0.00  0.00    -0.471 OA
ATOM     26  C   UNL     1       0.524  -0.197  23.324  0.00  0.00    +0.252 C 
ENDBRANCH  24  25
ENDBRANCH  20  21
ENDBRANCH  19  20
ENDBRANCH  18  19
TORSDOF 9
ENDMDL
MODEL 3
REMARK VINA RESULT:     -10.1      1.231      3.943
REMARK  Name = 
REMARK  9 active torsions:
REMARK  status: ('A' for Active; 'I' for Inactive)
REMARK    1  A    between atoms: C_2  and  C_3
REMARK    2  A    between atoms: C_3  and  N_4
REMARK    3  A    between atoms: N_7  and  C_8
REMARK    4  A    between atoms: C_10  and  C_16
REMARK    5  A    between atoms: N_18  and  C_19
REMARK    6  A    between atoms: C_19  and  C_20
REMARK    7  A    between atoms: C_19  and  C_29
REMARK    8  A    between atoms: C_20  and  C_21
REMARK    9  A    between atoms: C_24  and  O_25
REMARK                            x       y       z     vdW  Elec       q    Type
REMARK                         _______ _______ _______ _____ _____    ______ ____
ROOT
ATOM     16  C   UNL     1      -3.740   2.549  24.563  0.00  0.00    +0.261 C 
ATOM     17  O   UNL     1      -4.230   2.811  23.953  0.00  0.00    -0.269 OA
ATOM     18  N   UNL     1      -3.974   1.913  25.034  0.00  0.00    -0.194 NA
ENDROOT
BRANCH  16  10
ATOM      8  C   UNL     1      -1.611   3.016  24.473  0.00  0.00    +0.152 C 
ATOM      9  C   UNL     1      -2.333   2.644  24.334  0.00  0.00    -0.002 C 
ATOM     10  C   UNL     1      -3.018   2.921  24.701  0.00  0.00    +0.033 C 
ATOM     11  C   UNL     1      -2.980   3.571  25.208  0.00  0.00    +0.066 C 
ATOM     12  C   UNL     1      -2.256   3.944  25.347  0.00  0.00    +0.189 C 
ATOM     13  O   UNL     1      -2.218   4.594  25.852  0.00  0.00    -0.220 OA
ATOM     14  C   UNL     1      -1.572   3.666  24.979  0.00  0.00    +0.206 C 
ATOM     15  O   UNL     1      -0.849   4.039  25.118  0.00  0.00    -0.218 OA
BRANCH   8   7
ATOM      4  N   UNL     1      -0.014   1.675  23.830  0.00  0.00    -0.187 NA
ATOM      5  C   UNL     1      -0.698   1.951  24.197  0.00  0.00    +0.340 C 
ATOM      6  O   UNL     1      -1.156   1.440  24.655  0.00  0.00    -0.249 OA
ATOM      7  N   UNL     1      -0.925   2.738  24.106  0.00  0.00    -0.182 NA
BRANCH   4   3
ATOM      3  C   UNL     1       0.214   0.887  23.920  0.00  0.00    +0.117 C 
BRANCH   3   2
ATOM      1  C   UNL     1       0.833  -0.150  23.156  0.00  0.00    +0.002 C 
ATOM      2  C   UNL     1       0.867   0.595  23.508  0.00  0.00    +0.023 C 
ENDBRANCH   3   2
ENDBRANCH   4   3
ENDBRANCH   8   7
ENDBRANCH  16  10
BRANCH  18  19
ATOM     19  C   UNL     1      -4.697   1.540  24.896  0.00  0.00    +0.179 C 
BRANCH  19  29
ATOM     29  C   UNL     1      -5.381   1.820  25.262  0.00  0.00    +0.281 C 
ATOM     30  N   UNL     1      -6.081   1.892  24.828  0.00  0.00    -0.086 NA
ATOM     31  O   UNL     1      -5.367   2.027  26.060  0.00  0.00    -0.270 OA
ENDBRANCH  19  29
BRANCH  19  20
ATOM     20  C   UNL     1      -4.735   0.888  24.392  0.00  0.00    +0.057 C 
BRANCH  20  21
ATOM     21  C   UNL     1      -4.399   0.170  24.619  0.00  0.00    -0.020 A 
ATOM     22  C   UNL     1      -4.298  -0.004  25.419  0.00  0.00    -0.001 A 
ATOM     23  C   UNL     1      -3.962  -0.723  25.645  0.00  0.00    +0.037 A 
ATOM     24  C   UNL     1      -3.726  -1.267  25.072  0.00  0.00    +0.139 A 
ATOM     27  C   UNL     1      -3.827  -1.093  24.272  0.00  0.00    +0.037 A 
ATOM     28  C   UNL     1      -4.163  -0.374  24.045  0.00  0.00    -0.001 A 
BRANCH  24  25
ATOM     25  O   UNL     1      -3.389  -1.985  25.298  0.00  0.00    -0.471 OA
ATOM     26  C   UNL     1      -3.347  -2.608  24.758  0.00  0.00    +0.252 C 
ENDBRANCH  24  25
ENDBRANCH  20  21
ENDBRANCH  19  20
ENDBRANCH  18  19
TORSDOF 9
ENDMDL
MODEL 4
REMARK VINA RESULT:     -10.0      1.209      3.833
REMARK  Name = 
REMARK  9 active torsions:
REMARK  status: ('A' for Active; 'I' for Inactive)
REMARK    1  A    between atoms: C_2  and  C_3
REMARK    2  A    between atoms: C_3  and  N_4
REMARK    3  A    between atoms: N_7  and  C_8
REMARK    4  A    between atoms: C_10  and  C_16
REMARK    5  A    between atoms: N_18  and  C_19
REMARK    6  A    between atoms: C_19  and  C_20
REMARK    7  A    between atoms: C_19  and  C_29
REMARK    8  A    between atoms: C_20  and  C_21
REMARK    9  A    between atoms: C_24  and  O_25
REMARK                            x       y       z     vdW  Elec       q    Type
REMARK                         _______ _______ _______ _____ _____    ______ ____
ROOT
ATOM     16  C   UNL     1      -1.302   2.472  24.475  0.00  0.00    +0.261 C 
ATOM     17  O   UNL     1      -1.002   3.098  24.028  0.00  0.00    -0.269 OA
ATOM     18  N   UNL     1      -1.934   2.600  24.989  0.00  0.00    -0.194 NA
ENDROOT
BRANCH  16  10
ATOM      8  C   UNL     1      -1.022   0.317  24.672  0.00  0.00    +0.152 C 
ATOM      9  C   UNL     1      -1.353   1.069  24.739  0.00  0.00    -0.002 C 
ATOM     10  C   UNL     1      -0.970   1.720  24.408  0.00  0.00    +0.033 C 
ATOM     11  C   UNL     1      -0.255   1.619  24.010  0.00  0.00    +0.066 C 
ATOM     12  C   UNL     1       0.078   0.866  23.943  0.00  0.00    +0.189 C 
ATOM     13  O   UNL     1       0.792   0.765  23.545  0.00  0.00    -0.220 OA
ATOM     14  C   UNL     1      -0.306   0.216  24.274  0.00  0.00    +0.206 C 
ATOM     15  O   UNL     1       0.026  -0.537  24.207  0.00  0.00    -0.218 OA
BRANCH   8   7
ATOM      4  N   UNL     1      -2.485  -1.269  24.997  0.00  0.00    -0.187 NA
ATOM      5  C   UNL     1      -2.102  -0.618  24.666  0.00  0.00    +0.340 C 
ATOM      6  O   UNL     1      -2.417  -0.250  23.999  0.00  0.00    -0.249 OA
ATOM      7  N   UNL     1      -1.405  -0.335  25.003  0.00  0.00    -0.182 NA
BRANCH   4   3
ATOM      3  C   UNL     1      -3.183  -1.554  24.661  0.00  0.00    +0.117 C 
BRANCH   3   2
ATOM      1  C   UNL     1      -3.846  -2.792  24.400  0.00  0.00    +0.002 C 
ATOM      2  C   UNL     1      -3.517  -2.257  24.934  0.00  0.00    +0.023 C 
ENDBRANCH   3   2
ENDBRANCH   4   3
ENDBRANCH   8   7
ENDBRANCH  16  10
BRANCH  18  19
ATOM     19  C   UNL     1      -2.267   3.353  25.056  0.00  0.00    +0.179 C 
BRANCH  19  29
ATOM     29  C   UNL     1      -1.954   3.894  25.594  0.00  0.00    +0.281 C 
ATOM     30  N   UNL     1      -1.780   4.663  25.351  0.00  0.00    -0.086 NA
ATOM     31  O   UNL     1      -1.815   3.667  26.375  0.00  0.00    -0.270 OA
ENDBRANCH  19  29
BRANCH  19  20
ATOM     20  C   UNL     1      -2.911   3.563  24.585  0.00  0.00    +0.057 C 
BRANCH  20  21
ATOM     21  C   UNL     1      -3.664   3.280  24.766  0.00  0.00    -0.020 A 
ATOM     22  C   UNL     1      -4.032   3.505  25.469  0.00  0.00    -0.001 A 
ATOM     23  C   UNL     1      -4.786   3.221  25.649  0.00  0.00    +0.037 A 
ATOM     24  C   UNL     1      -5.171   2.713  25.126  0.00  0.00    +0.139 A 
ATOM     27  C   UNL     1      -4.803   2.488  24.423  0.00  0.00    +0.037 A 
ATOM     28  C   UNL     1      -4.050   2.771  24.242  0.00  0.00    -0.001 A 
BRANCH  24  25
ATOM     25  O   UNL     1      -5.925   2.429  25.306  0.00  0.00    -0.471 OA
ATOM     26  C   UNL     1      -6.028   1.639  25.519  0.00  0.00    +0.252 C 
ENDBRANCH  24  25
ENDBRANCH  20  21
ENDBRANCH  19  20
ENDBRANCH  18  19
TORSDOF 9
ENDMDL
MODEL 5
REMARK VINA RESULT:      -9.9      1.604      3.923
REMARK  Name = 
REMARK  9 active torsions:
REMARK  status: ('A' for Active; 'I' for Inactive)
REMARK    1  A    between atoms: C_2  and  C_3
REMARK    2  A    between atoms: C_3  and  N_4
REMARK    3  A    between atoms: N_7  and  C_8
REMARK    4  A    between atoms: C_10  and  C_16
REMARK    5  A    between atoms: N_18  and  C_19
REMARK    6  A    between atoms: C_19  and  C_20
REMARK    7  A    between atoms: C_19  and  C_29
REMARK    8  A    between atoms: C_20  and  C_21
REMARK    9  A    between atoms: C_24  and  O_25
REMARK                            x       y       z     vdW  Elec       q    Type
REMARK                         _______ _______ _______ _____ _____    ______ ____
ROOT
ATOM     16  C   UNL     1      -0.654   2.116  25.083  0.00  0.00    +0.261 C 
ATOM     17  O   UNL     1       0.095   1.977  25.402  0.00  0.00    -0.269 OA
ATOM     18  N   UNL     1      -1.045   1.516  24.674  0.00  0.00    -0.194 NA
ENDROOT
BRANCH  16  10
ATOM      8  C   UNL     1      -2.131   3.648  25.567  0.00  0.00    +0.152 C 
ATOM      9  C   UNL     1      -1.775   2.910  25.477  0.00  0.00    -0.002 C 
ATOM     10  C   UNL     1      -1.010   2.854  25.173  0.00  0.00    +0.033 C 
ATOM     11  C   UNL     1      -0.601   3.538  24.959  0.00  0.00    +0.066 C 
ATOM     12  C   UNL     1      -0.958   4.278  25.048  0.00  0.00    +0.189 C 
ATOM     13  O   UNL     1      -0.550   4.961  24.834  0.00  0.00    -0.220 OA
ATOM     14  C   UNL     1      -1.722   4.332  25.353  0.00  0.00    +0.206 C 
ATOM     15  O   UNL     1      -2.079   5.071  25.442  0.00  0.00    -0.218 OA
BRANCH   8   7
ATOM      4  N   UNL     1      -4.295   3.440  25.757  0.00  0.00    -0.187 NA
ATOM      5  C   UNL     1      -3.531   3.384  25.453  0.00  0.00    +0.340 C 
ATOM      6  O   UNL     1      -3.401   3.009  24.730  0.00  0.00    -0.249 OA
ATOM      7  N   UNL     1      -2.896   3.703  25.871  0.00  0.00    -0.182 NA
BRANCH   4   3
ATOM      3  C   UNL     1      -4.931   3.120  25.339  0.00  0.00    +0.117 C 
BRANCH   3   2
ATOM      1  C   UNL     1      -6.103   2.323  25.516  0.00  0.00    +0.002 C 
ATOM      2  C   UNL     1      -5.648   2.978  25.722  0.00  0.00    +0.023 C 
ENDBRANCH   3   2
ENDBRANCH   4   3
ENDBRANCH   8   7
ENDBRANCH  16  10
BRANCH  18  19
ATOM     19  C   UNL     1      -0.689   0.777  24.584  0.00  0.00    +0.179 C 
BRANCH  19  29
ATOM     29  C   UNL     1      -0.265   0.605  23.897  0.00  0.00    +0.281 C 
ATOM     30  N   UNL     1       0.501   0.303  23.951  0.00  0.00    -0.086 NA
ATOM     31  O   UNL     1      -0.607   0.734  23.158  0.00  0.00    -0.270 OA
ENDBRANCH  19  29
BRANCH  19  20
ATOM     20  C   UNL     1      -0.756   0.211  25.180  0.00  0.00    +0.057 C 
BRANCH  20  21
ATOM     21  C   UNL     1      -1.364  -0.346  25.154  0.00  0.00    -0.020 A 
ATOM     22  C   UNL     1      -1.205  -1.119  24.911  0.00  0.00    -0.001 A 
ATOM     23  C   UNL     1      -1.814  -1.675  24.885  0.00  0.00    +0.037 A 
ATOM     24  C   UNL     1      -2.580  -1.460  25.102  0.00  0.00    +0.139 A 
ATOM     27  C   UNL     1      -2.738  -0.688  25.345  0.00  0.00    +0.037 A 
ATOM     28  C   UNL     1      -2.130  -0.131  25.371  0.00  0.00    -0.001 A 
BRANCH  24  25
ATOM     25  O   UNL     1      -3.188  -2.017  25.076  0.00  0.00    -0.471 OA
ATOM     26  C   UNL     1      -3.587  -2.159  24.368  0.00  0.00    +0.252 C 
ENDBRANCH  24  25
ENDBRANCH  20  21
ENDBRANCH  19  20
ENDBRANCH  18  19
TORSDOF 9
ENDMDL
MODEL 6
REMARK VINA RESULT:      -9.7      1.590      4.120
REMARK  Name = 
REMARK  9 active torsions:
REMARK  status: ('A' for Active; 'I' for Inactive)
REMARK    1  A    between atoms: C_2  and  C_3
REMARK    2  A    between atoms: C_3  and  N_4
REMARK    3  A    between atoms: N_7  and  C_8
REMARK    4  A    between atoms: C_10  and  C_16
REMARK    5  A    between atoms: N_18  and  C_19
REMARK    6  A    between atoms: C_19  and  C_20
REMARK    7  A    between atoms: C_19  and  C_29
REMARK    8  A    between atoms: C_20  and  C_21
REMARK    9  A    between atoms: C_24  and  O_25
REMARK                            x       y       z     vdW  Elec       q    Type
REMARK                         _______ _______ _______ _____ _____    ______ ____
ROOT
ATOM     16  C   UNL     1      -4.142   0.524  24.737  0.00  0.00    +0.261 C 
ATOM     17  O   UNL     1      -4.640   0.459  24.083  0.00  0.00    -0.269 OA
ATOM     18  N   UNL     1      -4.161   1.204  25.204  0.00  0.00    -0.194 NA
ENDROOT
BRANCH  16  10
ATOM      8  C   UNL     1      -2.293  -0.586  25.074  0.00  0.00    +0.152 C 
ATOM      9  C   UNL     1      -2.810   0.028  24.886  0.00  0.00    -0.002 C 
ATOM     10  C   UNL     1      -3.625  -0.091  24.926  0.00  0.00    +0.033 C 
ATOM     11  C   UNL     1      -3.924  -0.825  25.156  0.00  0.00    +0.066 C 
ATOM     12  C   UNL     1      -3.407  -1.440  25.345  0.00  0.00    +0.189 C 
ATOM     13  O   UNL     1      -3.705  -2.173  25.574  0.00  0.00    -0.220 OA
ATOM     14  C   UNL     1      -2.592  -1.320  25.304  0.00  0.00    +0.206 C 
ATOM     15  O   UNL     1      -2.075  -1.936  25.493  0.00  0.00    -0.218 OA
BRANCH   8   7
ATOM      4  N   UNL     1      -0.314  -0.116  24.284  0.00  0.00    -0.187 NA
ATOM      5  C   UNL     1      -1.129  -0.234  24.324  0.00  0.00    +0.340 C 
ATOM      6  O   UNL     1      -1.596  -0.119  23.654  0.00  0.00    -0.249 OA
ATOM      7  N   UNL     1      -1.478  -0.468  25.034  0.00  0.00    -0.182 NA
BRANCH   4   3
ATOM      3  C   UNL     1       0.035   0.118  23.574  0.00  0.00    +0.117 C 
BRANCH   3   2
ATOM      1  C   UNL     1       1.269   0.103  22.854  0.00  0.00    +0.002 C 
ATOM      2  C   UNL     1       0.846   0.268  23.541  0.00  0.00    +0.023 C 
ENDBRANCH   3   2
ENDBRANCH   4   3
ENDBRANCH   8   7
ENDBRANCH  16  10
BRANCH  18  19
ATOM     19  C   UNL     1      -4.678   1.819  25.015  0.00  0.00    +0.179 C 
BRANCH  19  29
ATOM     29  C   UNL     1      -5.452   1.809  25.301  0.00  0.00    +0.281 C 
ATOM     30  N   UNL     1      -6.083   1.948  24.786  0.00  0.00    -0.086 NA
ATOM     31  O   UNL     1      -5.595   1.661  26.099  0.00  0.00    -0.270 OA
ENDBRANCH  19  29
BRANCH  19  20
ATOM     20  C   UNL     1      -4.421   2.444  24.541  0.00  0.00    +0.057 C 
BRANCH  20  21
ATOM     21  C   UNL     1      -3.871   2.985  24.833  0.00  0.00    -0.020 A 
ATOM     22  C   UNL     1      -3.162   3.110  24.431  0.00  0.00    -0.001 A 
ATOM     23  C   UNL     1      -2.612   3.652  24.725  0.00  0.00    +0.037 A 
ATOM     24  C   UNL     1      -2.771   4.067  25.419  0.00  0.00    +0.139 A 
ATOM     27  C   UNL     1      -3.481   3.941  25.821  0.00  0.00    +0.037 A 
ATOM     28  C   UNL     1      -4.031   3.400  25.529  0.00  0.00    -0.001 A 
BRANCH  24  25
ATOM     25  O   UNL     1      -2.222   4.608  25.712  0.00  0.00    -0.471 OA
ATOM     26  C   UNL     1      -1.592   4.853  25.239  0.00  0.00    +0.252 C 
ENDBRANCH  24  25
ENDBRANCH  20  21
ENDBRANCH  19  20
ENDBRANCH  18  19
TORSDOF 9
ENDMDL
MODEL 7
REMARK VINA RESULT:      -9.7      1.346      5.297
REMARK  Name = 
REMARK  9 active torsions:
REMARK  status: ('A' for Active; 'I' for Inactive)
REMARK    1  A    between atoms: C_2  and  C_3
REMARK    2  A    between atoms: C_3  and  N_4
REMARK    3  A    between atoms: N_7  and  C_8
REMARK    4  A    between atoms: C_10  and  C_16
REMARK    5  A    between atoms: N_18  and  C_19
REMARK    6  A    between atoms: C_19  and  C_20
REMARK    7  A    between atoms: C_19  and  C_29
REMARK    8  A    between atoms: C_20  and  C_21
REMARK    9  A    between atoms: C_24  and  O_25
REMARK                            x       y       z     vdW  Elec       q    Type
REMARK                         _______ _______ _______ _____ _____    ______ ____
ROOT
ATOM     16  C   UNL     1      -2.119  -0.158  24.400  0.00  0.00    +0.261 C 
ATOM     17  O   UNL     1      -2.270  -0.823  23.936  0.00  0.00    -0.269 OA
ATOM     18  N   UNL     1      -2.699   0.128  24.912  0.00  0.00    -0.194 NA
ENDROOT
BRANCH  16  10
ATOM      8  C   UNL     1      -0.552   1.339  24.658  0.00  0.00    +0.152 C 
ATOM      9  C   UNL     1      -1.282   0.960  24.705  0.00  0.00    -0.002 C 
ATOM     10  C   UNL     1      -1.388   0.221  24.353  0.00  0.00    +0.033 C 
ATOM     11  C   UNL     1      -0.762  -0.138  23.953  0.00  0.00    +0.066 C 
ATOM     12  C   UNL     1      -0.030   0.242  23.905  0.00  0.00    +0.189 C 
ATOM     13  O   UNL     1       0.595  -0.117  23.506  0.00  0.00    -0.220 OA
ATOM     14  C   UNL     1       0.074   0.980  24.258  0.00  0.00    +0.206 C 
ATOM     15  O   UNL     1       0.806   1.359  24.210  0.00  0.00    -0.218 OA
BRANCH   8   7
ATOM      4  N   UNL     1      -0.712   3.480  25.049  0.00  0.00    -0.187 NA
ATOM      5  C   UNL     1      -0.819   2.742  24.696  0.00  0.00    +0.340 C 
ATOM      6  O   UNL     1      -1.299   2.669  24.029  0.00  0.00    -0.249 OA
ATOM      7  N   UNL     1      -0.445   2.078  25.010  0.00  0.00    -0.182 NA
BRANCH   4   3
ATOM      3  C   UNL     1      -1.086   4.146  24.735  0.00  0.00    +0.117 C 
BRANCH   3   2
ATOM      1  C   UNL     1      -1.584   5.434  25.102  0.00  0.00    +0.002 C 
ATOM      2  C   UNL     1      -0.967   4.887  25.078  0.00  0.00    +0.023 C 
ENDBRANCH   3   2
ENDBRANCH   4   3
ENDBRANCH   8   7
ENDBRANCH  16  10
BRANCH  18  19
ATOM     19  C   UNL     1      -3.431  -0.251  24.960  0.00  0.00    +0.179 C 
BRANCH  19  29
ATOM     29  C   UNL     1      -3.529  -0.895  25.467  0.00  0.00    +0.281 C 
ATOM     30  N   UNL     1      -3.872  -1.591  25.188  0.00  0.00    -0.086 NA
ATOM     31  O   UNL     1      -3.284  -0.842  26.253  0.00  0.00    -0.270 OA
ENDBRANCH  19  29
BRANCH  19  20
ATOM     20  C   UNL     1      -4.063   0.013  24.501  0.00  0.00    +0.057 C 
BRANCH  20  21
ATOM     21  C   UNL     1      -4.457   0.709  24.701  0.00  0.00    -0.020 A 
ATOM     22  C   UNL     1      -4.342   1.392  24.253  0.00  0.00    -0.001 A 
ATOM     23  C   UNL     1      -4.736   2.088  24.455  0.00  0.00    +0.037 A 
ATOM     24  C   UNL     1      -5.245   2.102  25.104  0.00  0.00    +0.139 A 
ATOM     27  C   UNL     1      -5.360   1.419  25.552  0.00  0.00    +0.037 A 
ATOM     28  C   UNL     1      -4.966   0.722  25.351  0.00  0.00    -0.001 A 
BRANCH  24  25
ATOM     25  O   UNL     1      -5.639   2.798  25.305  0.00  0.00    -0.471 OA
ATOM     26  C   UNL     1      -5.219   3.432  25.624  0.00  0.00    +0.252 C 
ENDBRANCH  24  25
ENDBRANCH  20  21
ENDBRANCH  19  20
ENDBRANCH  18  19
TORSDOF 9
ENDMDL
