MODEL 1
REMARK VINA RESULT:     -12.2      0.000      0.000
REMARK  Name = 
REMARK  9 active torsions:
REMARK  status: ('A' for Active; 'I' for Inactive)
REMARK    1  A    between atoms: O_2  and  C_3
REMARK    2  A    between atoms: C_3  and  C_4
REMARK    3  A    between atoms: C_4  and  O_5
REMARK    4  A    between atoms: O_5  and  C_6
REMARK    5  A    between atoms: C_8  and  C_12
REMARK    6  A    between atoms: C_15  and  C_17
REMARK    7  A    between atoms: N_21  and  C_22
REMARK    8  A    between atoms: C_22  and  C_23
REMARK    9  A    between atoms: C_26  and  C_29
REMARK                            x       y       z     vdW  Elec       q    Type
REMARK                         _______ _______ _______ _____ _____    ______ ____
ROOT
ATOM     12  C   UNL     1      -3.164   3.347  24.701  0.00  0.00    +0.221 A 
ATOM     13  N   UNL     1      -3.643   3.517  24.050  0.00  0.00    -0.054 NA
ATOM     14  O   UNL     1      -4.300   3.019  24.080  0.00  0.00    -0.336 OA
ATOM     15  C   UNL     1      -4.227   2.541  24.748  0.00  0.00    +0.251 A 
ATOM     16  N   UNL     1      -3.525   2.743  25.132  0.00  0.00    -0.188 NA
ENDROOT
BRANCH  12   8
ATOM      6  C   UNL     1      -1.044   3.637  25.132  0.00  0.00    +0.142 A 
ATOM      7  C   UNL     1      -1.759   3.268  24.946  0.00  0.00    +0.059 A 
ATOM      8  C   UNL     1      -2.450   3.715  24.887  0.00  0.00    +0.123 A 
ATOM      9  N   UNL     1      -2.427   4.529  25.015  0.00  0.00    -0.240 NA
ATOM     10  C   UNL     1      -1.713   4.898  25.201  0.00  0.00    +0.102 A 
ATOM     11  C   UNL     1      -1.021   4.452  25.260  0.00  0.00    +0.058 A 
BRANCH   6   5
ATOM      5  O   UNL     1      -0.353   3.191  25.191  0.00  0.00    -0.473 OA
BRANCH   5   4
ATOM      4  C   UNL     1      -0.109   2.721  24.558  0.00  0.00    +0.237 C 
BRANCH   4   3
ATOM      3  C   UNL     1       0.400   2.084  24.690  0.00  0.00    +0.189 C 
BRANCH   3   2
ATOM      1  C   UNL     1       0.943   1.089  23.821  0.00  0.00    +0.174 C 
ATOM      2  O   UNL     1       0.940   1.862  24.108  0.00  0.00    -0.347 OA
ENDBRANCH   3   2
ENDBRANCH   4   3
ENDBRANCH   5   4
ENDBRANCH   6   5
ENDBRANCH  12   8
BRANCH  15  17
ATOM     17  C   UNL     1      -4.762   1.962  24.990  0.00  0.00    +0.138 C 
ATOM     18  C   UNL     1      -5.489   2.096  25.359  0.00  0.00    +0.027 C 
ATOM     19  C   UNL     1      -5.841   1.363  25.503  0.00  0.00    +0.019 C 
ATOM     20  C   UNL     1      -5.332   0.777  25.224  0.00  0.00    +0.073 C 
ATOM     21  N   UNL     1      -4.666   1.147  24.907  0.00  0.00    -0.263 NA
BRANCH  21  22
ATOM     22  C   UNL     1      -4.017   0.767  24.567  0.00  0.00    +0.099 C 
BRANCH  22  23
ATOM     23  C   UNL     1      -3.961  -0.055  24.590  0.00  0.00    -0.006 A 
ATOM     24  C   UNL     1      -3.628  -0.428  25.247  0.00  0.00    -0.003 A 
ATOM     25  C   UNL     1      -3.572  -1.250  25.270  0.00  0.00    +0.004 A 
ATOM     26  C   UNL     1      -3.849  -1.701  24.637  0.00  0.00    +0.071 A 
ATOM     27  C   UNL     1      -4.182  -1.329  23.980  0.00  0.00    +0.004 A 
ATOM     28  C   UNL     1      -4.238  -0.506  23.957  0.00  0.00    -0.003 A 
BRANCH  26  29
ATOM     29  C   UNL     1      -3.792  -2.524  24.660  0.00  0.00    +0.419 C 
ATOM     30  F   UNL     1      -3.736  -3.346  24.684  0.00  0.00    -0.166 F 
ATOM     31  F   UNL     1      -4.026  -2.562  23.870  0.00  0.00    -0.166 F 
ATOM     32  F   UNL     1      -3.559  -2.486  25.450  0.00  0.00    -0.166 F 
ENDBRANCH  26  29
ENDBRANCH  22  23
ENDBRANCH  21  22
ENDBRANCH  15  17
TORSDOF 9
ENDMDL
MODEL 2
REMARK VINA RESULT:     -12.0      1.642      3.523
REMARK  Name = 
REMARK  9 active torsions:
REMARK  status: ('A' for Active; 'I' for Inactive)
REMARK    1  A    between atoms: O_2  and  C_3
REMARK    2  A    between atoms: C_3  and  C_4
REMARK    3  A    between atoms: C_4  and  O_5
REMARK    4  A    between atoms: O_5  and  C_6
REMARK    5  A    between atoms: C_8  and  C_12
REMARK    6  A    between atoms: C_15  and  C_17
REMARK    7  A    between atoms: N_21  and  C_22
REMARK    8  A    between atoms: C_22  and  C_23
REMARK    9  A    between atoms: C_26  and  C_29
REMARK                            x       y       z     vdW  Elec       q    Type
REMARK                         _______ _______ _______ _____ _____    ______ ____
ROOT
ATOM     12  C   UNL     1      -0.841   2.532  25.299  0.00  0.00    +0.221 A 
ATOM     13  N   UNL     1      -0.330   2.233  25.875  0.00  0.00    -0.054 NA
ATOM     14  O   UNL     1      -0.068   1.492  25.624  0.00  0.00    -0.336 OA
ATOM     15  C   UNL     1      -0.416   1.333  24.893  0.00  0.00    +0.251 A 
ATOM     16  N   UNL     1      -0.894   1.975  24.693  0.00  0.00    -0.188 NA
ENDROOT
BRANCH  12   8
ATOM      6  C   UNL     1      -2.397   4.027  25.626  0.00  0.00    +0.142 A 
ATOM      7  C   UNL     1      -2.008   3.300  25.599  0.00  0.00    +0.059 A 
ATOM      8  C   UNL     1      -1.230   3.259  25.326  0.00  0.00    +0.123 A 
ATOM      9  N   UNL     1      -0.841   3.943  25.082  0.00  0.00    -0.240 NA
ATOM     10  C   UNL     1      -1.230   4.670  25.109  0.00  0.00    +0.102 A 
ATOM     11  C   UNL     1      -2.008   4.713  25.380  0.00  0.00    +0.058 A 
BRANCH   6   5
ATOM      5  O   UNL     1      -3.174   4.070  25.897  0.00  0.00    -0.473 OA
BRANCH   5   4
ATOM      4  C   UNL     1      -3.787   3.745  25.450  0.00  0.00    +0.237 C 
BRANCH   4   3
ATOM      3  C   UNL     1      -4.536   3.654  25.782  0.00  0.00    +0.189 C 
BRANCH   3   2
ATOM      1  C   UNL     1      -5.705   2.851  25.605  0.00  0.00    +0.174 C 
ATOM      2  O   UNL     1      -5.167   3.403  25.313  0.00  0.00    -0.347 OA
ENDBRANCH   3   2
ENDBRANCH   4   3
ENDBRANCH   5   4
ENDBRANCH   6   5
ENDBRANCH  12   8
BRANCH  15  17
ATOM     17  C   UNL     1      -0.307   0.651  24.442  0.00  0.00    +0.138 C 
ATOM     18  C   UNL     1       0.223   0.565  23.815  0.00  0.00    +0.027 C 
ATOM     19  C   UNL     1       0.150  -0.204  23.523  0.00  0.00    +0.019 C 
ATOM     20  C   UNL     1      -0.425  -0.592  23.969  0.00  0.00    +0.073 C 
ATOM     21  N   UNL     1      -0.707  -0.063  24.537  0.00  0.00    -0.263 NA
BRANCH  21  22
ATOM     22  C   UNL     1      -1.288  -0.223  25.101  0.00  0.00    +0.099 C 
BRANCH  22  23
ATOM     23  C   UNL     1      -1.830  -0.831  24.975  0.00  0.00    -0.006 A 
ATOM     24  C   UNL     1      -1.611  -1.614  25.116  0.00  0.00    -0.003 A 
ATOM     25  C   UNL     1      -2.153  -2.223  24.990  0.00  0.00    +0.004 A 
ATOM     26  C   UNL     1      -2.913  -2.050  24.722  0.00  0.00    +0.071 A 
ATOM     27  C   UNL     1      -3.133  -1.267  24.581  0.00  0.00    +0.004 A 
ATOM     28  C   UNL     1      -2.590  -0.658  24.707  0.00  0.00    -0.003 A 
BRANCH  26  29
ATOM     29  C   UNL     1      -3.456  -2.659  24.596  0.00  0.00    +0.419 C 
ATOM     30  F   UNL     1      -3.998  -3.268  24.470  0.00  0.00    -0.166 F 
ATOM     31  F   UNL     1      -3.319  -2.612  23.783  0.00  0.00    -0.166 F 
ATOM     32  F   UNL     1      -3.592  -2.706  25.408  0.00  0.00    -0.166 F 
ENDBRANCH  26  29
ENDBRANCH  22  23
ENDBRANCH  21  22
ENDBRANCH  15  17
TORSDOF 9
ENDMDL
MODEL 3
REMARK VINA RESULT:     -11.4      2.858      4.816
REMARK  Name = 
REMARK  9 active torsions:
REMARK  status: ('A' for Active; 'I' for Inactive)
REMARK    1  A    between atoms: O_2  and  C_3
REMARK    2  A    between atoms: C_3  and  C_4
REMARK    3  A    between atoms: C_4  and  O_5
REMARK    4  A    between atoms: O_5  and  C_6
REMARK    5  A    between atoms: C_8  and  C_12
REMARK    6  A    between atoms: C_15  and  C_17
REMARK    7  A    between atoms: N_21  and  C_22
REMARK    8  A    between atoms: C_22  and  C_23
REMARK    9  A    between atoms: C_26  and  C_29
REMARK                            x       y       z     vdW  Elec       q    Type
REMARK                         _______ _______ _______ _____ _____    ______ ____
ROOT
ATOM     12  C   UNL     1      -4.081  -0.245  24.767  0.00  0.00    +0.221 A 
ATOM     13  N   UNL     1      -4.640  -0.140  24.169  0.00  0.00    -0.054 NA
ATOM     14  O   UNL     1      -4.989   0.601  24.274  0.00  0.00    -0.336 OA
ATOM     15  C   UNL     1      -4.646   0.952  24.937  0.00  0.00    +0.251 A 
ATOM     16  N   UNL     1      -4.085   0.430  25.241  0.00  0.00    -0.188 NA
ENDROOT
BRANCH  12   8
ATOM      6  C   UNL     1      -2.303  -1.487  25.011  0.00  0.00    +0.142 A 
ATOM      7  C   UNL     1      -2.782  -0.824  24.907  0.00  0.00    +0.059 A 
ATOM      8  C   UNL     1      -3.602  -0.909  24.871  0.00  0.00    +0.123 A 
ATOM      9  N   UNL     1      -3.943  -1.656  24.941  0.00  0.00    -0.240 NA
ATOM     10  C   UNL     1      -3.464  -2.320  25.045  0.00  0.00    +0.102 A 
ATOM     11  C   UNL     1      -2.645  -2.236  25.081  0.00  0.00    +0.058 A 
BRANCH   6   5
ATOM      5  O   UNL     1      -1.483  -1.404  25.047  0.00  0.00    -0.473 OA
BRANCH   5   4
ATOM      4  C   UNL     1      -1.054  -1.251  24.359  0.00  0.00    +0.237 C 
BRANCH   4   3
ATOM      3  C   UNL     1      -0.301  -0.917  24.410  0.00  0.00    +0.189 C 
BRANCH   3   2
ATOM      1  C   UNL     1       0.560  -0.164  23.553  0.00  0.00    +0.174 C 
ATOM      2  O   UNL     1       0.175  -0.870  23.737  0.00  0.00    -0.347 OA
ENDBRANCH   3   2
ENDBRANCH   4   3
ENDBRANCH   5   4
ENDBRANCH   6   5
ENDBRANCH  12   8
BRANCH  15  17
ATOM     17  C   UNL     1      -4.832   1.696  25.242  0.00  0.00    +0.138 C 
ATOM     18  C   UNL     1      -5.482   1.877  25.717  0.00  0.00    +0.027 C 
ATOM     19  C   UNL     1      -5.452   2.682  25.894  0.00  0.00    +0.019 C 
ATOM     20  C   UNL     1      -4.784   2.999  25.529  0.00  0.00    +0.073 C 
ATOM     21  N   UNL     1      -4.400   2.389  25.126  0.00  0.00    -0.263 NA
BRANCH  21  22
ATOM     22  C   UNL     1      -3.707   2.461  24.685  0.00  0.00    +0.099 C 
BRANCH  22  23
ATOM     23  C   UNL     1      -3.192   3.089  24.825  0.00  0.00    -0.006 A 
ATOM     24  C   UNL     1      -2.566   2.999  25.355  0.00  0.00    -0.003 A 
ATOM     25  C   UNL     1      -2.050   3.627  25.496  0.00  0.00    +0.004 A 
ATOM     26  C   UNL     1      -2.160   4.346  25.107  0.00  0.00    +0.071 A 
ATOM     27  C   UNL     1      -2.786   4.437  24.577  0.00  0.00    +0.004 A 
ATOM     28  C   UNL     1      -3.302   3.808  24.437  0.00  0.00    -0.003 A 
BRANCH  26  29
ATOM     29  C   UNL     1      -1.644   4.974  25.248  0.00  0.00    +0.419 C 
ATOM     30  F   UNL     1      -1.129   5.602  25.389  0.00  0.00    -0.166 F 
ATOM     31  F   UNL     1      -1.094   4.638  24.733  0.00  0.00    -0.166 F 
ATOM     32  F   UNL     1      -2.194   5.310  25.763  0.00  0.00    -0.166 F 
ENDBRANCH  26  29
ENDBRANCH  22  23
ENDBRANCH  21  22
ENDBRANCH  15  17
TORSDOF 9
ENDMDL
MODEL 4
REMARK VINA RESULT:     -11.1      2.850      4.915
REMARK  Name = 
REMARK  9 active torsions:
REMARK  status: ('A' for Active; 'I' for Inactive)
REMARK    1  A    between atoms: O_2  and  C_3
REMARK    2  A    between atoms: C_3  and  C_4
REMARK    3  A    between atoms: C_4  and  O_5
REMARK    4  A    between atoms: O_5  and  C_6
REMARK    5  A    between atoms: C_8  and  C_12
REMARK    6  A    between atoms: C_15  and  C_17
REMARK    7  A    between atoms: N_21  and  C_22
REMARK    8  A    between atoms: C_22  and  C_23
REMARK    9  A    between atoms: C_26  and  C_29
REMARK                            x       y       z     vdW  Elec       q    Type
REMARK                         _______ _______ _______ _____ _____    ______ ____
ROOT
ATOM     12  C   UNL     1      -0.158   1.716  24.804  0.00  0.00    +0.221 A 
ATOM     13  N   UNL     1       0.207   1.940  25.510  0.00  0.00    -0.054 NA
ATOM     14  O   UNL     1      -0.059   2.697  25.705  0.00  0.00    -0.336 OA
ATOM     15  C   UNL     1      -0.587   2.941  25.119  0.00  0.00    +0.251 A 
ATOM     16  N   UNL     1      -0.648   2.334  24.563  0.00  0.00    -0.188 NA
ENDROOT
BRANCH  12   8
ATOM      6  C   UNL     1      -0.296  -0.403  24.303  0.00  0.00    +0.142 A 
ATOM      7  C   UNL     1      -0.404   0.313  24.698  0.00  0.00    +0.059 A 
ATOM      8  C   UNL     1      -0.050   1.000  24.409  0.00  0.00    +0.123 A 
ATOM      9  N   UNL     1       0.410   0.971  23.725  0.00  0.00    -0.240 NA
ATOM     10  C   UNL     1       0.517   0.255  23.330  0.00  0.00    +0.102 A 
ATOM     11  C   UNL     1       0.164  -0.433  23.619  0.00  0.00    +0.058 A 
BRANCH   6   5
ATOM      5  O   UNL     1      -0.649  -1.091  24.592  0.00  0.00    -0.473 OA
BRANCH   5   4
ATOM      4  C   UNL     1      -1.422  -1.281  24.375  0.00  0.00    +0.237 C 
BRANCH   4   3
ATOM      3  C   UNL     1      -1.795  -1.936  24.710  0.00  0.00    +0.189 C 
BRANCH   3   2
ATOM      1  C   UNL     1      -3.115  -2.485  24.716  0.00  0.00    +0.174 C 
ATOM      2  O   UNL     1      -2.418  -2.303  24.313  0.00  0.00    -0.347 OA
ENDBRANCH   3   2
ENDBRANCH   4   3
ENDBRANCH   5   4
ENDBRANCH   6   5
ENDBRANCH  12   8
BRANCH  15  17
ATOM     17  C   UNL     1      -0.984   3.663  25.095  0.00  0.00    +0.138 C 
ATOM     18  C   UNL     1      -0.664   4.384  24.853  0.00  0.00    +0.027 C 
ATOM     19  C   UNL     1      -1.253   4.959  24.916  0.00  0.00    +0.019 C 
ATOM     20  C   UNL     1      -1.937   4.593  25.197  0.00  0.00    +0.073 C 
ATOM     21  N   UNL     1      -1.770   3.792  25.307  0.00  0.00    -0.263 NA
BRANCH  21  22
ATOM     22  C   UNL     1      -2.298   3.221  25.582  0.00  0.00    +0.099 C 
BRANCH  22  23
ATOM     23  C   UNL     1      -3.109   3.367  25.565  0.00  0.00    -0.006 A 
ATOM     24  C   UNL     1      -3.558   3.131  24.914  0.00  0.00    -0.003 A 
ATOM     25  C   UNL     1      -4.370   3.277  24.897  0.00  0.00    +0.004 A 
ATOM     26  C   UNL     1      -4.733   3.658  25.532  0.00  0.00    +0.071 A 
ATOM     27  C   UNL     1      -4.285   3.894  26.184  0.00  0.00    +0.004 A 
ATOM     28  C   UNL     1      -3.473   3.748  26.200  0.00  0.00    -0.003 A 
BRANCH  26  29
ATOM     29  C   UNL     1      -5.546   3.805  25.516  0.00  0.00    +0.419 C 
ATOM     30  F   UNL     1      -6.357   3.951  25.499  0.00  0.00    -0.166 F 
ATOM     31  F   UNL     1      -5.693   2.999  25.616  0.00  0.00    -0.166 F 
ATOM     32  F   UNL     1      -5.398   4.610  25.415  0.00  0.00    -0.166 F 
ENDBRANCH  26  29
ENDBRANCH  22  23
ENDBRANCH  21  22
ENDBRANCH  15  17
TORSDOF 9
ENDMDL
MODEL 5
REMARK VINA RESULT:     -11.0      3.031      5.890
REMARK  Name = 
REMARK  9 active torsions:
REMARK  status: ('A' for Active; 'I' for Inactive)
REMARK    1  A    between atoms: O_2  and  C_3
REMARK    2  A    between atoms: C_3  and  C_4
REMARK    3  A    between atoms: C_4  and  O_5
REMARK    4  A    between atoms: O_5  and  C_6
REMARK    5  A    between atoms: C_8  and  C_12
REMARK    6  A    between atoms: C_15  and  C_17
REMARK    7  A    between atoms: N_21  and  C_22
REMARK    8  A    between atoms: C_22  and  C_23
REMARK    9  A    between atoms: C_26  and  C_29
REMARK                            x       y       z     vdW  Elec       q    Type
REMARK                         _______ _______ _______ _____ _____    ______ ____
ROOT
ATOM     12  C   UNL     1      -1.856  -0.640  24.739  0.00  0.00    +0.221 A 
ATOM     13  N   UNL     1      -1.279  -0.950  25.242  0.00  0.00    -0.054 NA
ATOM     14  O   UNL     1      -0.600  -0.487  25.167  0.00  0.00    -0.336 OA
ATOM     15  C   UNL     1      -0.757   0.109  24.617  0.00  0.00    +0.251 A 
ATOM     16  N   UNL     1      -1.533   0.014  24.353  0.00  0.00    -0.188 NA
ENDROOT
BRANCH  12   8
ATOM      6  C   UNL     1      -4.035  -0.746  24.710  0.00  0.00    +0.142 A 
ATOM      7  C   UNL     1      -3.271  -0.453  24.809  0.00  0.00    +0.059 A 
ATOM      8  C   UNL     1      -2.621  -0.933  24.640  0.00  0.00    +0.123 A 
ATOM      9  N   UNL     1      -2.735  -1.704  24.372  0.00  0.00    -0.240 NA
ATOM     10  C   UNL     1      -3.500  -1.997  24.273  0.00  0.00    +0.102 A 
ATOM     11  C   UNL     1      -4.150  -1.518  24.442  0.00  0.00    +0.058 A 
BRANCH   6   5
ATOM      5  O   UNL     1      -4.686  -0.267  24.878  0.00  0.00    -0.473 OA
BRANCH   5   4
ATOM      4  C   UNL     1      -4.645   0.546  24.748  0.00  0.00    +0.237 C 
BRANCH   4   3
ATOM      3  C   UNL     1      -5.231   1.042  25.051  0.00  0.00    +0.189 C 
BRANCH   3   2
ATOM      1  C   UNL     1      -5.569   2.417  25.248  0.00  0.00    +0.174 C 
ATOM      2  O   UNL     1      -5.319   1.806  24.753  0.00  0.00    -0.347 OA
ENDBRANCH   3   2
ENDBRANCH   4   3
ENDBRANCH   5   4
ENDBRANCH   6   5
ENDBRANCH  12   8
BRANCH  15  17
ATOM     17  C   UNL     1      -0.231   0.695  24.375  0.00  0.00    +0.138 C 
ATOM     18  C   UNL     1       0.373   0.606  23.820  0.00  0.00    +0.027 C 
ATOM     19  C   UNL     1       0.762   1.331  23.746  0.00  0.00    +0.019 C 
ATOM     20  C   UNL     1       0.398   1.867  24.256  0.00  0.00    +0.073 C 
ATOM     21  N   UNL     1      -0.215   1.475  24.644  0.00  0.00    -0.263 NA
BRANCH  21  22
ATOM     22  C   UNL     1      -0.724   1.805  25.204  0.00  0.00    +0.099 C 
BRANCH  22  23
ATOM     23  C   UNL     1      -0.873   2.616  25.198  0.00  0.00    -0.006 A 
ATOM     24  C   UNL     1      -0.393   3.127  25.634  0.00  0.00    -0.003 A 
ATOM     25  C   UNL     1      -0.543   3.938  25.629  0.00  0.00    +0.004 A 
ATOM     26  C   UNL     1      -1.172   4.239  25.188  0.00  0.00    +0.071 A 
ATOM     27  C   UNL     1      -1.652   3.728  24.752  0.00  0.00    +0.004 A 
ATOM     28  C   UNL     1      -1.502   2.917  24.758  0.00  0.00    -0.003 A 
BRANCH  26  29
ATOM     29  C   UNL     1      -1.321   5.050  25.183  0.00  0.00    +0.419 C 
ATOM     30  F   UNL     1      -1.471   5.861  25.177  0.00  0.00    -0.166 F 
ATOM     31  F   UNL     1      -0.671   5.167  24.688  0.00  0.00    -0.166 F 
ATOM     32  F   UNL     1      -1.971   4.934  25.677  0.00  0.00    -0.166 F 
ENDBRANCH  26  29
ENDBRANCH  22  23
ENDBRANCH  21  22
ENDBRANCH  15  17
TORSDOF 9
ENDMDL
