MODEL 1
REMARK VINA RESULT:     -14.7      0.000      0.000
REMARK  Name = 
REMARK  4 active torsions:
REMARK  status: ('A' for Active; 'I' for Inactive)
REMARK    1  A    between atoms: C_2  and  C_3
REMARK    2  A    between atoms: C_6  and  C_7
REMARK    3  A    between atoms: C_7  and  N_8
REMARK    4  A    between atoms: C_17  and  C_22
REMARK                            x       y       z     vdW  Elec       q    Type
REMARK                         _______ _______ _______ _____ _____    ______ ____
ROOT
ATOM      8  N   UNL     1      -3.304   2.550  24.744  0.00  0.00    -0.266 NA
ATOM      9  C   UNL     1      -3.414   3.375  24.818  0.00  0.00    +0.074 C 
ATOM     10  C   UNL     1      -4.361   3.392  25.099  0.00  0.00    +0.039 C 
ATOM     11  C   UNL     1      -5.120   3.574  25.333  0.00  0.00    +0.011 C 
ATOM     12  C   UNL     1      -4.745   2.998  25.193  0.00  0.00    +0.054 C 
ATOM     13  C   UNL     1      -3.829   2.998  24.922  0.00  0.00    +0.078 C 
ATOM     14  C   UNL     1      -4.813   2.082  25.166  0.00  0.00    +0.041 A 
ATOM     15  C   UNL     1      -5.358   1.476  25.297  0.00  0.00    +0.013 A 
ATOM     16  C   UNL     1      -5.133   0.690  25.190  0.00  0.00    +0.006 A 
ATOM     17  C   UNL     1      -4.364   0.508  24.954  0.00  0.00    +0.056 A 
ATOM     18  C   UNL     1      -3.819   1.114  24.823  0.00  0.00    +0.261 A 
ATOM     19  O   UNL     1      -3.050   0.933  24.587  0.00  0.00    -0.267 OA
ATOM     20  N   UNL     1      -4.044   1.900  24.930  0.00  0.00    -0.299 N 
ATOM     21  C   UNL     1      -4.423   2.434  25.069  0.00  0.00    +0.110 C 
ENDROOT
BRANCH  17  22
ATOM     22  C   UNL     1      -4.140  -0.278  24.848  0.00  0.00    +0.005 A 
ATOM     23  C   UNL     1      -3.792  -0.695  25.469  0.00  0.00    +0.001 A 
ATOM     24  C   UNL     1      -3.568  -1.482  25.364  0.00  0.00    +0.011 A 
ATOM     25  C   UNL     1      -3.692  -1.852  24.637  0.00  0.00    +0.058 A 
ATOM     26 CL   UNL     1      -3.468  -2.640  24.532  0.00  0.00    -0.082 Cl
ATOM     27  C   UNL     1      -4.040  -1.436  24.016  0.00  0.00    +0.011 A 
ATOM     28  C   UNL     1      -4.264  -0.648  24.121  0.00  0.00    +0.001 A 
ENDBRANCH  17  22
BRANCH   8   7
ATOM      7  C   UNL     1      -2.921   1.835  24.594  0.00  0.00    +0.138 C 
BRANCH   7   6
ATOM      3  C   UNL     1      -0.789   1.824  24.487  0.00  0.00    +0.156 A 
ATOM      4  C   UNL     1      -0.988   1.822  23.687  0.00  0.00    +0.038 A 
ATOM      5  C   UNL     1      -1.811   1.826  23.629  0.00  0.00    +0.037 A 
ATOM      6  C   UNL     1      -2.120   1.830  24.395  0.00  0.00    +0.139 A 
ATOM     29  O   UNL     1      -1.488   1.828  24.925  0.00  0.00    -0.458 OA
BRANCH   3   2
ATOM      1  O   UNL     1       0.624   1.916  24.295  0.00  0.00    -0.212 OA
ATOM      2  C   UNL     1      -0.023   1.821  24.796  0.00  0.00    +0.246 C 
ENDBRANCH   3   2
ENDBRANCH   7   6
ENDBRANCH   8   7
TORSDOF 4
ENDMDL
MODEL 2
REMARK VINA RESULT:     -13.5      1.466      3.340
REMARK  Name = 
REMARK  4 active torsions:
REMARK  status: ('A' for Active; 'I' for Inactive)
REMARK    1  A    between atoms: C_2  and  C_3
REMARK    2  A    between atoms: C_6  and  C_7
REMARK    3  A    between atoms: C_7  and  N_8
REMARK    4  A    between atoms: C_17  and  C_22
REMARK                            x       y       z     vdW  Elec       q    Type
REMARK                         _______ _______ _______ _____ _____    ______ ____
ROOT
ATOM      8  N   UNL     1      -4.642   1.525  25.048  0.00  0.00    -0.266 NA
ATOM      9  C   UNL     1      -5.466   1.594  25.169  0.00  0.00    +0.074 C 
ATOM     10  C   UNL     1      -5.526   2.564  25.349  0.00  0.00    +0.039 C 
ATOM     11  C   UNL     1      -5.742   3.332  25.514  0.00  0.00    +0.011 C 
ATOM     12  C   UNL     1      -5.152   2.977  25.374  0.00  0.00    +0.054 C 
ATOM     13  C   UNL     1      -5.111   2.039  25.201  0.00  0.00    +0.078 C 
ATOM     14  C   UNL     1      -4.246   3.095  25.275  0.00  0.00    +0.041 A 
ATOM     15  C   UNL     1      -3.670   3.685  25.303  0.00  0.00    +0.013 A 
ATOM     16  C   UNL     1      -2.880   3.496  25.165  0.00  0.00    +0.006 A 
ATOM     17  C   UNL     1      -2.664   2.717  24.998  0.00  0.00    +0.056 A 
ATOM     18  C   UNL     1      -3.240   2.127  24.970  0.00  0.00    +0.261 A 
ATOM     19  O   UNL     1      -3.025   1.348  24.803  0.00  0.00    -0.267 OA
ATOM     20  N   UNL     1      -4.031   2.316  25.108  0.00  0.00    -0.299 N 
ATOM     21  C   UNL     1      -4.578   2.677  25.244  0.00  0.00    +0.110 C 
ENDROOT
BRANCH  17  22
ATOM     22  C   UNL     1      -1.874   2.528  24.860  0.00  0.00    +0.005 A 
ATOM     23  C   UNL     1      -1.381   2.331  25.492  0.00  0.00    +0.001 A 
ATOM     24  C   UNL     1      -0.590   2.142  25.355  0.00  0.00    +0.011 A 
ATOM     25  C   UNL     1      -0.291   2.151  24.586  0.00  0.00    +0.058 A 
ATOM     26 CL   UNL     1       0.501   1.963  24.449  0.00  0.00    -0.082 Cl
ATOM     27  C   UNL     1      -0.783   2.349  23.954  0.00  0.00    +0.011 A 
ATOM     28  C   UNL     1      -1.575   2.538  24.092  0.00  0.00    +0.001 A 
ENDBRANCH  17  22
BRANCH   8   7
ATOM      7  C   UNL     1      -3.915   1.169  24.889  0.00  0.00    +0.138 C 
BRANCH   7   6
ATOM      3  C   UNL     1      -3.723  -0.953  25.024  0.00  0.00    +0.156 A 
ATOM      4  C   UNL     1      -3.878  -0.858  24.220  0.00  0.00    +0.038 A 
ATOM      5  C   UNL     1      -3.969  -0.052  24.071  0.00  0.00    +0.037 A 
ATOM      6  C   UNL     1      -3.870   0.352  24.784  0.00  0.00    +0.139 A 
ATOM     29  O   UNL     1      -3.717  -0.205  25.373  0.00  0.00    -0.458 OA
BRANCH   3   2
ATOM      1  O   UNL     1      -3.595  -2.375  24.986  0.00  0.00    -0.212 OA
ATOM      2  C   UNL     1      -3.595  -1.670  25.412  0.00  0.00    +0.246 C 
ENDBRANCH   3   2
ENDBRANCH   7   6
ENDBRANCH   8   7
TORSDOF 4
ENDMDL
MODEL 3
REMARK VINA RESULT:     -13.3      1.918      3.547
REMARK  Name = 
REMARK  4 active torsions:
REMARK  status: ('A' for Active; 'I' for Inactive)
REMARK    1  A    between atoms: C_2  and  C_3
REMARK    2  A    between atoms: C_6  and  C_7
REMARK    3  A    between atoms: C_7  and  N_8
REMARK    4  A    between atoms: C_17  and  C_22
REMARK                            x       y       z     vdW  Elec       q    Type
REMARK                         _______ _______ _______ _____ _____    ______ ____
ROOT
ATOM      8  N   UNL     1      -2.161  -1.053  24.572  0.00  0.00    -0.266 NA
ATOM      9  C   UNL     1      -2.006  -1.872  24.627  0.00  0.00    +0.074 C 
ATOM     10  C   UNL     1      -2.932  -2.217  24.621  0.00  0.00    +0.039 C 
ATOM     11  C   UNL     1      -3.620  -2.653  24.628  0.00  0.00    +0.011 C 
ATOM     12  C   UNL     1      -3.434  -1.977  24.592  0.00  0.00    +0.054 C 
ATOM     13  C   UNL     1      -2.534  -1.659  24.598  0.00  0.00    +0.078 C 
ATOM     14  C   UNL     1      -3.794  -1.133  24.530  0.00  0.00    +0.041 A 
ATOM     15  C   UNL     1      -4.522  -0.749  24.485  0.00  0.00    +0.013 A 
ATOM     16  C   UNL     1      -4.552   0.073  24.434  0.00  0.00    +0.006 A 
ATOM     17  C   UNL     1      -3.853   0.512  24.427  0.00  0.00    +0.056 A 
ATOM     18  C   UNL     1      -3.125   0.128  24.472  0.00  0.00    +0.261 A 
ATOM     19  O   UNL     1      -2.426   0.567  24.465  0.00  0.00    -0.267 OA
ATOM     20  N   UNL     1      -3.095  -0.695  24.523  0.00  0.00    -0.299 N 
ATOM     21  C   UNL     1      -3.298  -1.332  24.556  0.00  0.00    +0.110 C 
ENDROOT
BRANCH  17  22
ATOM     22  C   UNL     1      -3.884   1.335  24.376  0.00  0.00    +0.005 A 
ATOM     23  C   UNL     1      -3.989   1.786  25.058  0.00  0.00    +0.001 A 
ATOM     24  C   UNL     1      -4.020   2.609  25.007  0.00  0.00    +0.011 A 
ATOM     25  C   UNL     1      -3.946   2.980  24.274  0.00  0.00    +0.058 A 
ATOM     26 CL   UNL     1      -3.976   3.804  24.223  0.00  0.00    -0.082 Cl
ATOM     27  C   UNL     1      -3.840   2.529  23.592  0.00  0.00    +0.011 A 
ATOM     28  C   UNL     1      -3.810   1.705  23.643  0.00  0.00    +0.001 A 
ENDBRANCH  17  22
BRANCH   8   7
ATOM      7  C   UNL     1      -2.012  -0.242  24.526  0.00  0.00    +0.138 C 
BRANCH   7   6
ATOM      3  C   UNL     1      -0.053   0.365  23.935  0.00  0.00    +0.156 A 
ATOM      4  C   UNL     1      -0.035   0.536  24.741  0.00  0.00    +0.038 A 
ATOM      5  C   UNL     1      -0.767   0.330  25.062  0.00  0.00    +0.037 A 
ATOM      6  C   UNL     1      -1.237   0.030  24.452  0.00  0.00    +0.139 A 
ATOM     29  O   UNL     1      -0.795   0.052  23.755  0.00  0.00    -0.458 OA
BRANCH   3   2
ATOM      1  O   UNL     1       0.902  -0.156  23.009  0.00  0.00    -0.212 OA
ATOM      2  C   UNL     1       0.565   0.485  23.400  0.00  0.00    +0.246 C 
ENDBRANCH   3   2
ENDBRANCH   7   6
ENDBRANCH   8   7
TORSDOF 4
ENDMDL
MODEL 4
REMARK VINA RESULT:     -13.3      1.854      4.200
REMARK  Name = 
REMARK  4 active torsions:
REMARK  status: ('A' for Active; 'I' for Inactive)
REMARK    1  A    between atoms: C_2  and  C_3
REMARK    2  A    between atoms: C_6  and  C_7
REMARK    3  A    between atoms: C_7  and  N_8
REMARK    4  A    between atoms: C_17  and  C_22
REMARK                            x       y       z     vdW  Elec       q    Type
REMARK                         _______ _______ _______ _____ _____    ______ ____
ROOT
ATOM      8  N   UNL     1      -3.900  -0.476  24.467  0.00  0.00    -0.266 NA
ATOM      9  C   UNL     1      -4.483  -1.057  24.320  0.00  0.00    +0.074 C 
ATOM     10  C   UNL     1      -3.915  -1.865  24.320  0.00  0.00    +0.039 C 
ATOM     11  C   UNL     1      -3.592  -2.613  24.290  0.00  0.00    +0.011 C 
ATOM     12  C   UNL     1      -3.369  -1.955  24.391  0.00  0.00    +0.054 C 
ATOM     13  C   UNL     1      -3.931  -1.183  24.388  0.00  0.00    +0.078 C 
ATOM     14  C   UNL     1      -2.605  -1.471  24.555  0.00  0.00    +0.041 A 
ATOM     15  C   UNL     1      -1.794  -1.571  24.664  0.00  0.00    +0.013 A 
ATOM     16  C   UNL     1      -1.313  -0.916  24.804  0.00  0.00    +0.006 A 
ATOM     17  C   UNL     1      -1.642  -0.160  24.834  0.00  0.00    +0.056 A 
ATOM     18  C   UNL     1      -2.454  -0.060  24.724  0.00  0.00    +0.261 A 
ATOM     19  O   UNL     1      -2.783   0.696  24.754  0.00  0.00    -0.267 OA
ATOM     20  N   UNL     1      -2.935  -0.715  24.585  0.00  0.00    -0.299 N 
ATOM     21  C   UNL     1      -3.122  -1.351  24.491  0.00  0.00    +0.110 C 
ENDROOT
BRANCH  17  22
ATOM     22  C   UNL     1      -1.160   0.494  24.973  0.00  0.00    +0.005 A 
ATOM     23  C   UNL     1      -0.777   0.865  24.344  0.00  0.00    +0.001 A 
ATOM     24  C   UNL     1      -0.295   1.520  24.482  0.00  0.00    +0.011 A 
ATOM     25  C   UNL     1      -0.196   1.803  25.250  0.00  0.00    +0.058 A 
ATOM     26 CL   UNL     1       0.287   2.459  25.389  0.00  0.00    -0.082 Cl
ATOM     27  C   UNL     1      -0.578   1.433  25.880  0.00  0.00    +0.011 A 
ATOM     28  C   UNL     1      -1.061   0.778  25.741  0.00  0.00    +0.001 A 
ENDBRANCH  17  22
BRANCH   8   7
ATOM      7  C   UNL     1      -3.573   0.271  24.593  0.00  0.00    +0.138 C 
BRANCH   7   6
ATOM      3  C   UNL     1      -4.936   1.833  25.101  0.00  0.00    +0.156 A 
ATOM      4  C   UNL     1      -4.697   2.069  24.348  0.00  0.00    +0.038 A 
ATOM      5  C   UNL     1      -4.157   1.513  24.065  0.00  0.00    +0.037 A 
ATOM      6  C   UNL     1      -4.063   0.932  24.645  0.00  0.00    +0.139 A 
ATOM     29  O   UNL     1      -4.544   1.130  25.285  0.00  0.00    -0.458 OA
BRANCH   3   2
ATOM      1  O   UNL     1      -5.300   2.987  25.860  0.00  0.00    -0.212 OA
ATOM      2  C   UNL     1      -5.473   2.230  25.586  0.00  0.00    +0.246 C 
ENDBRANCH   3   2
ENDBRANCH   7   6
ENDBRANCH   8   7
TORSDOF 4
ENDMDL
MODEL 5
REMARK VINA RESULT:     -13.2      1.588      2.196
REMARK  Name = 
REMARK  4 active torsions:
REMARK  status: ('A' for Active; 'I' for Inactive)
REMARK    1  A    between atoms: C_2  and  C_3
REMARK    2  A    between atoms: C_6  and  C_7
REMARK    3  A    between atoms: C_7  and  N_8
REMARK    4  A    between atoms: C_17  and  C_22
REMARK                            x       y       z     vdW  Elec       q    Type
REMARK                         _______ _______ _______ _____ _____    ______ ____
ROOT
ATOM      8  N   UNL     1      -4.179   2.797  25.211  0.00  0.00    -0.266 NA
ATOM      9  C   UNL     1      -4.904   3.207  25.274  0.00  0.00    +0.074 C 
ATOM     10  C   UNL     1      -5.531   2.464  25.100  0.00  0.00    +0.039 C 
ATOM     11  C   UNL     1      -6.167   1.971  24.977  0.00  0.00    +0.011 C 
ATOM     12  C   UNL     1      -5.467   1.921  24.988  0.00  0.00    +0.054 C 
ATOM     13  C   UNL     1      -4.874   2.650  25.159  0.00  0.00    +0.078 C 
ATOM     14  C   UNL     1      -4.786   1.314  24.883  0.00  0.00    +0.041 A 
ATOM     15  C   UNL     1      -4.659   0.515  24.720  0.00  0.00    +0.013 A 
ATOM     16  C   UNL     1      -3.890   0.219  24.683  0.00  0.00    +0.006 A 
ATOM     17  C   UNL     1      -3.248   0.722  24.808  0.00  0.00    +0.056 A 
ATOM     18  C   UNL     1      -3.374   1.521  24.970  0.00  0.00    +0.261 A 
ATOM     19  O   UNL     1      -2.732   2.023  25.096  0.00  0.00    -0.267 OA
ATOM     20  N   UNL     1      -4.144   1.817  25.008  0.00  0.00    -0.299 N 
ATOM     21  C   UNL     1      -4.812   1.837  24.991  0.00  0.00    +0.110 C 
ENDROOT
BRANCH  17  22
ATOM     22  C   UNL     1      -2.479   0.425  24.770  0.00  0.00    +0.005 A 
ATOM     23  C   UNL     1      -2.143   0.066  25.433  0.00  0.00    +0.001 A 
ATOM     24  C   UNL     1      -1.375  -0.231  25.396  0.00  0.00    +0.011 A 
ATOM     25  C   UNL     1      -0.942  -0.169  24.696  0.00  0.00    +0.058 A 
ATOM     26 CL   UNL     1      -0.172  -0.466  24.659  0.00  0.00    -0.082 Cl
ATOM     27  C   UNL     1      -1.277   0.190  24.033  0.00  0.00    +0.011 A 
ATOM     28  C   UNL     1      -2.047   0.487  24.071  0.00  0.00    +0.001 A 
ENDBRANCH  17  22
BRANCH   8   7
ATOM      7  C   UNL     1      -3.363   2.670  25.211  0.00  0.00    +0.138 C 
BRANCH   7   6
ATOM      3  C   UNL     1      -2.029   4.336  25.177  0.00  0.00    +0.156 A 
ATOM      4  C   UNL     1      -2.084   4.193  25.987  0.00  0.00    +0.038 A 
ATOM      5  C   UNL     1      -2.591   3.552  26.099  0.00  0.00    +0.037 A 
ATOM      6  C   UNL     1      -2.849   3.298  25.356  0.00  0.00    +0.139 A 
ATOM     29  O   UNL     1      -2.501   3.783  24.787  0.00  0.00    -0.458 OA
BRANCH   3   2
ATOM      1  O   UNL     1      -0.768   4.969  24.954  0.00  0.00    -0.212 OA
ATOM      2  C   UNL     1      -1.579   4.928  24.819  0.00  0.00    +0.246 C 
ENDBRANCH   3   2
ENDBRANCH   7   6
ENDBRANCH   8   7
TORSDOF 4
ENDMDL
MODEL 6
REMARK VINA RESULT:     -13.1      1.456      3.109
REMARK  Name = 
REMARK  4 active torsions:
REMARK  status: ('A' for Active; 'I' for Inactive)
REMARK    1  A    between atoms: C_2  and  C_3
REMARK    2  A    between atoms: C_6  and  C_7
REMARK    3  A    between atoms: C_7  and  N_8
REMARK    4  A    between atoms: C_17  and  C_22
REMARK                            x       y       z     vdW  Elec       q    Type
REMARK                         _______ _______ _______ _____ _____    ______ ____
ROOT
ATOM      8  N   UNL     1      -2.151   2.666  25.318  0.00  0.00    -0.266 NA
ATOM      9  C   UNL     1      -1.662   3.304  25.546  0.00  0.00    +0.074 C 
ATOM     10  C   UNL     1      -0.818   2.815  25.707  0.00  0.00    +0.039 C 
ATOM     11  C   UNL     1      -0.062   2.567  25.880  0.00  0.00    +0.011 C 
ATOM     12  C   UNL     1      -0.667   2.280  25.671  0.00  0.00    +0.054 C 
ATOM     13  C   UNL     1      -1.475   2.766  25.519  0.00  0.00    +0.078 C 
ATOM     14  C   UNL     1      -1.043   1.471  25.449  0.00  0.00    +0.041 A 
ATOM     15  C   UNL     1      -0.851   0.671  25.386  0.00  0.00    +0.013 A 
ATOM     16  C   UNL     1      -1.424   0.127  25.149  0.00  0.00    +0.006 A 
ATOM     17  C   UNL     1      -2.189   0.383  24.975  0.00  0.00    +0.056 A 
ATOM     18  C   UNL     1      -2.381   1.182  25.038  0.00  0.00    +0.261 A 
ATOM     19  O   UNL     1      -3.146   1.438  24.864  0.00  0.00    -0.267 OA
ATOM     20  N   UNL     1      -1.808   1.726  25.275  0.00  0.00    -0.299 N 
ATOM     21  C   UNL     1      -1.219   1.975  25.474  0.00  0.00    +0.110 C 
ENDROOT
BRANCH  17  22
ATOM     22  C   UNL     1      -2.761  -0.162  24.737  0.00  0.00    +0.005 A 
ATOM     23  C   UNL     1      -3.182  -0.590  25.303  0.00  0.00    +0.001 A 
ATOM     24  C   UNL     1      -3.755  -1.134  25.067  0.00  0.00    +0.011 A 
ATOM     25  C   UNL     1      -3.905  -1.252  24.264  0.00  0.00    +0.058 A 
ATOM     26 CL   UNL     1      -4.478  -1.797  24.027  0.00  0.00    -0.082 Cl
ATOM     27  C   UNL     1      -3.484  -0.825  23.698  0.00  0.00    +0.011 A 
ATOM     28  C   UNL     1      -2.911  -0.279  23.935  0.00  0.00    +0.001 A 
ENDBRANCH  17  22
BRANCH   8   7
ATOM      7  C   UNL     1      -2.830   2.267  25.072  0.00  0.00    +0.138 C 
BRANCH   7   6
ATOM      3  C   UNL     1      -4.746   3.191  25.252  0.00  0.00    +0.156 A 
ATOM      4  C   UNL     1      -4.532   3.416  24.488  0.00  0.00    +0.038 A 
ATOM      5  C   UNL     1      -3.789   3.097  24.327  0.00  0.00    +0.037 A 
ATOM      6  C   UNL     1      -3.542   2.675  24.993  0.00  0.00    +0.139 A 
ATOM     29  O   UNL     1      -4.134   2.733  25.564  0.00  0.00    -0.458 OA
BRANCH   3   2
ATOM      1  O   UNL     1      -5.682   4.179  25.687  0.00  0.00    -0.212 OA
ATOM      2  C   UNL     1      -5.448   3.390  25.637  0.00  0.00    +0.246 C 
ENDBRANCH   3   2
ENDBRANCH   7   6
ENDBRANCH   8   7
TORSDOF 4
ENDMDL
MODEL 7
REMARK VINA RESULT:     -13.1      1.789      3.508
REMARK  Name = 
REMARK  4 active torsions:
REMARK  status: ('A' for Active; 'I' for Inactive)
REMARK    1  A    between atoms: C_2  and  C_3
REMARK    2  A    between atoms: C_6  and  C_7
REMARK    3  A    between atoms: C_7  and  N_8
REMARK    4  A    between atoms: C_17  and  C_22
REMARK                            x       y       z     vdW  Elec       q    Type
REMARK                         _______ _______ _______ _____ _____    ______ ____
ROOT
ATOM      8  N   UNL     1      -2.564   3.447  24.965  0.00  0.00    -0.266 NA
ATOM      9  C   UNL     1      -2.681   4.275  24.977  0.00  0.00    +0.074 C 
ATOM     10  C   UNL     1      -1.750   4.572  25.121  0.00  0.00    +0.039 C 
ATOM     11  C   UNL     1      -1.050   4.972  25.236  0.00  0.00    +0.011 C 
ATOM     12  C   UNL     1      -1.263   4.306  25.183  0.00  0.00    +0.054 C 
ATOM     13  C   UNL     1      -2.168   4.035  25.043  0.00  0.00    +0.078 C 
ATOM     14  C   UNL     1      -0.946   3.444  25.199  0.00  0.00    +0.041 A 
ATOM     15  C   UNL     1      -0.242   3.022  25.287  0.00  0.00    +0.013 A 
ATOM     16  C   UNL     1      -0.250   2.197  25.258  0.00  0.00    +0.006 A 
ATOM     17  C   UNL     1      -0.961   1.795  25.141  0.00  0.00    +0.056 A 
ATOM     18  C   UNL     1      -1.664   2.217  25.054  0.00  0.00    +0.261 A 
ATOM     19  O   UNL     1      -2.375   1.814  24.937  0.00  0.00    -0.267 OA
ATOM     20  N   UNL     1      -1.656   3.041  25.083  0.00  0.00    -0.299 N 
ATOM     21  C   UNL     1      -1.427   3.667  25.137  0.00  0.00    +0.110 C 
ENDROOT
BRANCH  17  22
ATOM     22  C   UNL     1      -0.967   0.971  25.112  0.00  0.00    +0.005 A 
ATOM     23  C   UNL     1      -0.810   0.582  24.401  0.00  0.00    +0.001 A 
ATOM     24  C   UNL     1      -0.816  -0.242  24.372  0.00  0.00    +0.011 A 
ATOM     25  C   UNL     1      -0.980  -0.678  25.052  0.00  0.00    +0.058 A 
ATOM     26 CL   UNL     1      -0.986  -1.503  25.023  0.00  0.00    -0.082 Cl
ATOM     27  C   UNL     1      -1.137  -0.290  25.763  0.00  0.00    +0.011 A 
ATOM     28  C   UNL     1      -1.131   0.535  25.793  0.00  0.00    +0.001 A 
ENDBRANCH  17  22
BRANCH   8   7
ATOM      7  C   UNL     1      -2.748   2.645  24.911  0.00  0.00    +0.138 C 
BRANCH   7   6
ATOM      3  C   UNL     1      -4.792   2.047  25.053  0.00  0.00    +0.156 A 
ATOM      4  C   UNL     1      -4.680   2.038  24.236  0.00  0.00    +0.038 A 
ATOM      5  C   UNL     1      -3.901   2.261  24.083  0.00  0.00    +0.037 A 
ATOM      6  C   UNL     1      -3.531   2.408  24.807  0.00  0.00    +0.139 A 
ATOM     29  O   UNL     1      -4.082   2.275  25.406  0.00  0.00    -0.458 OA
BRANCH   3   2
ATOM      1  O   UNL     1      -6.219   1.972  25.076  0.00  0.00    -0.212 OA
ATOM      2  C   UNL     1      -5.492   1.859  25.448  0.00  0.00    +0.246 C 
ENDBRANCH   3   2
ENDBRANCH   7   6
ENDBRANCH   8   7
TORSDOF 4
ENDMDL
MODEL 8
REMARK VINA RESULT:     -12.9      1.980      3.164
REMARK  Name = 
REMARK  4 active torsions:
REMARK  status: ('A' for Active; 'I' for Inactive)
REMARK    1  A    between atoms: C_2  and  C_3
REMARK    2  A    between atoms: C_6  and  C_7
REMARK    3  A    between atoms: C_7  and  N_8
REMARK    4  A    between atoms: C_17  and  C_22
REMARK                            x       y       z     vdW  Elec       q    Type
REMARK                         _______ _______ _______ _____ _____    ______ ____
ROOT
ATOM      8  N   UNL     1      -1.349   2.783  25.005  0.00  0.00    -0.266 NA
ATOM      9  C   UNL     1      -0.579   3.107  25.000  0.00  0.00    +0.074 C 
ATOM     10  C   UNL     1      -0.803   4.068  25.053  0.00  0.00    +0.039 C 
ATOM     11  C   UNL     1      -0.820   4.882  25.093  0.00  0.00    +0.011 C 
ATOM     12  C   UNL     1      -1.282   4.353  25.080  0.00  0.00    +0.054 C 
ATOM     13  C   UNL     1      -1.049   3.429  25.028  0.00  0.00    +0.078 C 
ATOM     14  C   UNL     1      -2.185   4.185  25.096  0.00  0.00    +0.041 A 
ATOM     15  C   UNL     1      -2.909   4.579  25.134  0.00  0.00    +0.013 A 
ATOM     16  C   UNL     1      -3.613   4.148  25.132  0.00  0.00    +0.006 A 
ATOM     17  C   UNL     1      -3.592   3.324  25.091  0.00  0.00    +0.056 A 
ATOM     18  C   UNL     1      -2.868   2.931  25.053  0.00  0.00    +0.261 A 
ATOM     19  O   UNL     1      -2.848   2.107  25.012  0.00  0.00    -0.267 OA
ATOM     20  N   UNL     1      -2.165   3.361  25.055  0.00  0.00    -0.299 N 
ATOM     21  C   UNL     1      -1.745   3.883  25.069  0.00  0.00    +0.110 C 
ENDROOT
BRANCH  17  22
ATOM     22  C   UNL     1      -4.296   2.894  25.089  0.00  0.00    +0.005 A 
ATOM     23  C   UNL     1      -4.604   2.612  24.378  0.00  0.00    +0.001 A 
ATOM     24  C   UNL     1      -5.308   2.182  24.375  0.00  0.00    +0.011 A 
ATOM     25  C   UNL     1      -5.704   2.034  25.083  0.00  0.00    +0.058 A 
ATOM     26 CL   UNL     1      -6.409   1.604  25.080  0.00  0.00    -0.082 Cl
ATOM     27  C   UNL     1      -5.397   2.316  25.795  0.00  0.00    +0.011 A 
ATOM     28  C   UNL     1      -4.692   2.746  25.798  0.00  0.00    +0.001 A 
ENDBRANCH  17  22
BRANCH   8   7
ATOM      7  C   UNL     1      -1.943   2.210  24.992  0.00  0.00    +0.138 C 
BRANCH   7   6
ATOM      3  C   UNL     1      -1.429   0.167  25.332  0.00  0.00    +0.156 A 
ATOM      4  C   UNL     1      -1.445   0.191  24.508  0.00  0.00    +0.038 A 
ATOM      5  C   UNL     1      -1.640   0.960  24.280  0.00  0.00    +0.037 A 
ATOM      6  C   UNL     1      -1.744   1.411  24.964  0.00  0.00    +0.139 A 
ATOM     29  O   UNL     1      -1.613   0.920  25.615  0.00  0.00    -0.458 OA
BRANCH   3   2
ATOM      1  O   UNL     1      -0.768  -1.089  25.498  0.00  0.00    -0.212 OA
ATOM      2  C   UNL     1      -1.258  -0.496  25.794  0.00  0.00    +0.246 C 
ENDBRANCH   3   2
ENDBRANCH   7   6
ENDBRANCH   8   7
TORSDOF 4
ENDMDL
