MODEL 1
REMARK VINA RESULT:     -12.0      0.000      0.000
REMARK  Name = 
REMARK  6 active torsions:
REMARK  status: ('A' for Active; 'I' for Inactive)
REMARK    1  A    between atoms: O_2  and  C_3
REMARK    2  A    between atoms: C_3  and  C_5
REMARK    3  A    between atoms: C_12  and  C_14
REMARK    4  A    between atoms: N_17  and  C_18
REMARK    5  A    between atoms: C_18  and  C_19
REMARK    6  A    between atoms: C_21  and  O_22
REMARK                            x       y       z     vdW  Elec       q    Type
REMARK                         _______ _______ _______ _____ _____    ______ ____
ROOT
ATOM     14  C   UNL     1      -4.286   0.935  24.647  0.00  0.00    +0.094 C 
ATOM     15  C   UNL     1      -4.978   1.207  25.004  0.00  0.00    +0.028 C 
ATOM     16  C   UNL     1      -4.980   2.031  24.964  0.00  0.00    +0.073 C 
ATOM     17  N   UNL     1      -4.288   2.269  24.582  0.00  0.00    -0.268 NA
ATOM     27  C   UNL     1      -3.859   1.592  24.386  0.00  0.00    +0.082 C 
ENDROOT
BRANCH  14  12
ATOM      5  C   UNL     1      -2.783  -1.577  24.712  0.00  0.00    +0.112 A 
ATOM      6  C   UNL     1      -2.952  -2.347  24.470  0.00  0.00    +0.010 A 
ATOM      7  C   UNL     1      -3.682  -2.521  24.128  0.00  0.00    +0.002 A 
ATOM      8  C   UNL     1      -4.243  -1.925  24.027  0.00  0.00    +0.022 A 
ATOM      9  C   UNL     1      -4.075  -1.154  24.269  0.00  0.00    +0.119 A 
ATOM     10  C   UNL     1      -3.345  -0.980  24.612  0.00  0.00    +0.171 A 
ATOM     11  O   UNL     1      -3.334  -0.176  24.795  0.00  0.00    -0.438 OA
ATOM     12  C   UNL     1      -4.059   0.146  24.566  0.00  0.00    +0.207 A 
ATOM     13  N   UNL     1      -4.516  -0.458  24.241  0.00  0.00    -0.212 NA
BRANCH   5   3
ATOM      3  C   UNL     1      -2.054  -1.403  25.055  0.00  0.00    +0.344 C 
ATOM      4  O   UNL     1      -1.992  -1.316  25.873  0.00  0.00    -0.245 OA
BRANCH   3   2
ATOM      1  C   UNL     1      -0.640  -1.234  24.926  0.00  0.00    +0.256 C 
ATOM      2  O   UNL     1      -1.385  -1.315  24.580  0.00  0.00    -0.441 OA
ENDBRANCH   3   2
ENDBRANCH   5   3
ENDBRANCH  14  12
BRANCH  17  18
ATOM     18  C   UNL     1      -4.065   3.047  24.423  0.00  0.00    +0.099 C 
BRANCH  18  19
ATOM     19  C   UNL     1      -3.533   3.433  24.921  0.00  0.00    -0.003 A 
ATOM     20  C   UNL     1      -2.742   3.511  24.699  0.00  0.00    +0.034 A 
ATOM     21  C   UNL     1      -2.209   3.897  25.197  0.00  0.00    +0.138 A 
ATOM     24  C   UNL     1      -2.468   4.206  25.917  0.00  0.00    +0.037 A 
ATOM     25  C   UNL     1      -3.259   4.128  26.139  0.00  0.00    +0.003 A 
ATOM     26  C   UNL     1      -3.791   3.742  25.641  0.00  0.00    -0.003 A 
BRANCH  21  22
ATOM     22  O   UNL     1      -1.418   3.975  24.974  0.00  0.00    -0.471 OA
ATOM     23  C   UNL     1      -1.046   4.709  25.024  0.00  0.00    +0.252 C 
ENDBRANCH  21  22
ENDBRANCH  18  19
ENDBRANCH  17  18
TORSDOF 6
ENDMDL
MODEL 2
REMARK VINA RESULT:     -11.6      1.271      4.762
REMARK  Name = 
REMARK  6 active torsions:
REMARK  status: ('A' for Active; 'I' for Inactive)
REMARK    1  A    between atoms: O_2  and  C_3
REMARK    2  A    between atoms: C_3  and  C_5
REMARK    3  A    between atoms: C_12  and  C_14
REMARK    4  A    between atoms: N_17  and  C_18
REMARK    5  A    between atoms: C_18  and  C_19
REMARK    6  A    between atoms: C_21  and  O_22
REMARK                            x       y       z     vdW  Elec       q    Type
REMARK                         _______ _______ _______ _____ _____    ______ ____
ROOT
ATOM     14  C   UNL     1      -3.480   1.799  24.852  0.00  0.00    +0.094 C 
ATOM     15  C   UNL     1      -4.133   1.803  24.349  0.00  0.00    +0.028 C 
ATOM     16  C   UNL     1      -4.538   1.090  24.450  0.00  0.00    +0.073 C 
ATOM     17  N   UNL     1      -4.134   0.647  25.017  0.00  0.00    -0.268 NA
ATOM     27  C   UNL     1      -3.481   1.085  25.266  0.00  0.00    +0.082 C 
ENDROOT
BRANCH  14  12
ATOM      5  C   UNL     1      -0.977   3.300  25.087  0.00  0.00    +0.112 A 
ATOM      6  C   UNL     1      -0.800   4.101  25.169  0.00  0.00    +0.010 A 
ATOM      7  C   UNL     1      -1.409   4.658  25.198  0.00  0.00    +0.002 A 
ATOM      8  C   UNL     1      -2.194   4.413  25.145  0.00  0.00    +0.022 A 
ATOM      9  C   UNL     1      -2.372   3.611  25.064  0.00  0.00    +0.119 A 
ATOM     10  C   UNL     1      -1.764   3.055  25.034  0.00  0.00    +0.171 A 
ATOM     11  O   UNL     1      -2.104   2.308  24.952  0.00  0.00    -0.438 OA
ATOM     12  C   UNL     1      -2.924   2.403  24.930  0.00  0.00    +0.207 A 
ATOM     13  N   UNL     1      -3.089   3.209  24.999  0.00  0.00    -0.212 NA
BRANCH   5   3
ATOM      3  C   UNL     1      -0.369   2.744  25.058  0.00  0.00    +0.344 C 
ATOM      4  O   UNL     1      -0.081   2.411  25.756  0.00  0.00    -0.245 OA
BRANCH   3   2
ATOM      1  C   UNL     1       0.580   1.987  24.304  0.00  0.00    +0.256 C 
ATOM      2  O   UNL     1      -0.048   2.521  24.331  0.00  0.00    -0.441 OA
ENDBRANCH   3   2
ENDBRANCH   5   3
ENDBRANCH  14  12
BRANCH  17  18
ATOM     18  C   UNL     1      -4.347  -0.103  25.287  0.00  0.00    +0.099 C 
BRANCH  18  19
ATOM     19  C   UNL     1      -4.068  -0.776  24.901  0.00  0.00    -0.003 A 
ATOM     20  C   UNL     1      -3.395  -1.162  25.179  0.00  0.00    +0.034 A 
ATOM     21  C   UNL     1      -3.115  -1.836  24.792  0.00  0.00    +0.138 A 
ATOM     24  C   UNL     1      -3.510  -2.122  24.127  0.00  0.00    +0.037 A 
ATOM     25  C   UNL     1      -4.183  -1.735  23.848  0.00  0.00    +0.003 A 
ATOM     26  C   UNL     1      -4.462  -1.063  24.235  0.00  0.00    -0.003 A 
BRANCH  21  22
ATOM     22  O   UNL     1      -2.441  -2.222  25.071  0.00  0.00    -0.471 OA
ATOM     23  C   UNL     1      -1.782  -2.306  24.583  0.00  0.00    +0.252 C 
ENDBRANCH  21  22
ENDBRANCH  18  19
ENDBRANCH  17  18
TORSDOF 6
ENDMDL
MODEL 3
REMARK VINA RESULT:     -11.4      1.022      4.794
REMARK  Name = 
REMARK  6 active torsions:
REMARK  status: ('A' for Active; 'I' for Inactive)
REMARK    1  A    between atoms: O_2  and  C_3
REMARK    2  A    between atoms: C_3  and  C_5
REMARK    3  A    between atoms: C_12  and  C_14
REMARK    4  A    between atoms: N_17  and  C_18
REMARK    5  A    between atoms: C_18  and  C_19
REMARK    6  A    between atoms: C_21  and  O_22
REMARK                            x       y       z     vdW  Elec       q    Type
REMARK                         _______ _______ _______ _____ _____    ______ ____
ROOT
ATOM     14  C   UNL     1      -4.345   0.347  24.887  0.00  0.00    +0.094 C 
ATOM     15  C   UNL     1      -4.535  -0.082  24.209  0.00  0.00    +0.028 C 
ATOM     16  C   UNL     1      -4.253  -0.852  24.307  0.00  0.00    +0.073 C 
ATOM     17  N   UNL     1      -3.888  -0.898  25.045  0.00  0.00    -0.268 NA
ATOM     27  C   UNL     1      -3.945  -0.157  25.405  0.00  0.00    +0.082 C 
ENDROOT
BRANCH  14  12
ATOM      5  C   UNL     1      -4.167   3.252  25.201  0.00  0.00    +0.112 A 
ATOM      6  C   UNL     1      -4.714   3.838  25.398  0.00  0.00    +0.010 A 
ATOM      7  C   UNL     1      -5.498   3.634  25.553  0.00  0.00    +0.002 A 
ATOM      8  C   UNL     1      -5.736   2.846  25.512  0.00  0.00    +0.022 A 
ATOM      9  C   UNL     1      -5.189   2.260  25.315  0.00  0.00    +0.119 A 
ATOM     10  C   UNL     1      -4.405   2.463  25.159  0.00  0.00    +0.171 A 
ATOM     11  O   UNL     1      -3.993   1.772  24.980  0.00  0.00    -0.438 OA
ATOM     12  C   UNL     1      -4.524   1.140  25.025  0.00  0.00    +0.207 A 
ATOM     13  N   UNL     1      -5.262   1.443  25.232  0.00  0.00    -0.212 NA
BRANCH   5   3
ATOM      3  C   UNL     1      -3.384   3.455  25.045  0.00  0.00    +0.344 C 
ATOM      4  O   UNL     1      -3.129   3.551  24.265  0.00  0.00    -0.245 OA
BRANCH   3   2
ATOM      1  C   UNL     1      -2.121   3.918  25.530  0.00  0.00    +0.256 C 
ATOM      2  O   UNL     1      -2.854   3.563  25.668  0.00  0.00    -0.441 OA
ENDBRANCH   3   2
ENDBRANCH   5   3
ENDBRANCH  14  12
BRANCH  17  18
ATOM     18  C   UNL     1      -3.530  -1.567  25.368  0.00  0.00    +0.099 C 
BRANCH  18  19
ATOM     19  C   UNL     1      -2.809  -1.834  25.069  0.00  0.00    -0.003 A 
ATOM     20  C   UNL     1      -2.112  -1.437  25.258  0.00  0.00    +0.034 A 
ATOM     21  C   UNL     1      -1.390  -1.704  24.959  0.00  0.00    +0.138 A 
ATOM     24  C   UNL     1      -1.368  -2.369  24.471  0.00  0.00    +0.037 A 
ATOM     25  C   UNL     1      -2.065  -2.766  24.282  0.00  0.00    +0.003 A 
ATOM     26  C   UNL     1      -2.786  -2.499  24.581  0.00  0.00    -0.003 A 
BRANCH  21  22
ATOM     22  O   UNL     1      -0.692  -1.306  25.149  0.00  0.00    -0.471 OA
ATOM     23  C   UNL     1      -0.292  -0.877  24.569  0.00  0.00    +0.252 C 
ENDBRANCH  21  22
ENDBRANCH  18  19
ENDBRANCH  17  18
TORSDOF 6
ENDMDL
MODEL 4
REMARK VINA RESULT:     -11.2      1.744      5.457
REMARK  Name = 
REMARK  6 active torsions:
REMARK  status: ('A' for Active; 'I' for Inactive)
REMARK    1  A    between atoms: O_2  and  C_3
REMARK    2  A    between atoms: C_3  and  C_5
REMARK    3  A    between atoms: C_12  and  C_14
REMARK    4  A    between atoms: N_17  and  C_18
REMARK    5  A    between atoms: C_18  and  C_19
REMARK    6  A    between atoms: C_21  and  O_22
REMARK                            x       y       z     vdW  Elec       q    Type
REMARK                         _______ _______ _______ _____ _____    ______ ____
ROOT
ATOM     14  C   UNL     1      -1.153   1.327  24.841  0.00  0.00    +0.094 C 
ATOM     15  C   UNL     1      -0.834   0.934  24.190  0.00  0.00    +0.028 C 
ATOM     16  C   UNL     1      -0.855   0.124  24.346  0.00  0.00    +0.073 C 
ATOM     17  N   UNL     1      -1.188   0.016  25.093  0.00  0.00    -0.268 NA
ATOM     27  C   UNL     1      -1.372   0.760  25.399  0.00  0.00    +0.082 C 
ENDROOT
BRANCH  14  12
ATOM      5  C   UNL     1      -2.231   4.003  25.342  0.00  0.00    +0.112 A 
ATOM      6  C   UNL     1      -1.912   4.762  25.296  0.00  0.00    +0.010 A 
ATOM      7  C   UNL     1      -1.127   4.867  25.067  0.00  0.00    +0.002 A 
ATOM      8  C   UNL     1      -0.660   4.212  24.883  0.00  0.00    +0.022 A 
ATOM      9  C   UNL     1      -0.978   3.452  24.929  0.00  0.00    +0.119 A 
ATOM     10  C   UNL     1      -1.764   3.347  25.158  0.00  0.00    +0.171 A 
ATOM     11  O   UNL     1      -1.925   2.539  25.153  0.00  0.00    -0.438 OA
ATOM     12  C   UNL     1      -1.239   2.144  24.921  0.00  0.00    +0.207 A 
ATOM     13  N   UNL     1      -0.654   2.708  24.782  0.00  0.00    -0.212 NA
BRANCH   5   3
ATOM      3  C   UNL     1      -3.016   3.898  25.571  0.00  0.00    +0.344 C 
ATOM      4  O   UNL     1      -3.208   3.835  26.371  0.00  0.00    -0.245 OA
BRANCH   3   2
ATOM      1  C   UNL     1      -4.401   3.812  25.231  0.00  0.00    +0.256 C 
ATOM      2  O   UNL     1      -3.610   3.856  25.001  0.00  0.00    -0.441 OA
ENDBRANCH   3   2
ENDBRANCH   5   3
ENDBRANCH  14  12
BRANCH  17  18
ATOM     18  C   UNL     1      -1.314  -0.708  25.468  0.00  0.00    +0.099 C 
BRANCH  18  19
ATOM     19  C   UNL     1      -2.053  -1.070  25.427  0.00  0.00    -0.003 A 
ATOM     20  C   UNL     1      -2.203  -1.639  24.848  0.00  0.00    +0.034 A 
ATOM     21  C   UNL     1      -2.943  -2.002  24.807  0.00  0.00    +0.138 A 
ATOM     24  C   UNL     1      -3.534  -1.795  25.346  0.00  0.00    +0.037 A 
ATOM     25  C   UNL     1      -3.384  -1.226  25.924  0.00  0.00    +0.003 A 
ATOM     26  C   UNL     1      -2.645  -0.864  25.965  0.00  0.00    -0.003 A 
BRANCH  21  22
ATOM     22  O   UNL     1      -3.093  -2.571  24.228  0.00  0.00    -0.471 OA
ATOM     23  C   UNL     1      -3.853  -2.654  23.919  0.00  0.00    +0.252 C 
ENDBRANCH  21  22
ENDBRANCH  18  19
ENDBRANCH  17  18
TORSDOF 6
ENDMDL
MODEL 5
REMARK VINA RESULT:     -11.1      1.734      2.851
REMARK  Name = 
REMARK  6 active torsions:
REMARK  status: ('A' for Active; 'I' for Inactive)
REMARK    1  A    between atoms: O_2  and  C_3
REMARK    2  A    between atoms: C_3  and  C_5
REMARK    3  A    between atoms: C_12  and  C_14
REMARK    4  A    between atoms: N_17  and  C_18
REMARK    5  A    between atoms: C_18  and  C_19
REMARK    6  A    between atoms: C_21  and  O_22
REMARK                            x       y       z     vdW  Elec       q    Type
REMARK                         _______ _______ _______ _____ _____    ______ ____
ROOT
ATOM     14  C   UNL     1      -0.746   0.806  24.908  0.00  0.00    +0.094 C 
ATOM     15  C   UNL     1      -0.210   1.128  24.371  0.00  0.00    +0.028 C 
ATOM     16  C   UNL     1      -0.001   1.881  24.637  0.00  0.00    +0.073 C 
ATOM     17  N   UNL     1      -0.409   2.024  25.340  0.00  0.00    -0.268 NA
ATOM     27  C   UNL     1      -0.870   1.360  25.508  0.00  0.00    +0.082 C 
ENDROOT
BRANCH  14  12
ATOM      5  C   UNL     1      -2.688  -1.383  24.811  0.00  0.00    +0.112 A 
ATOM      6  C   UNL     1      -2.620  -2.200  24.727  0.00  0.00    +0.010 A 
ATOM      7  C   UNL     1      -1.875  -2.546  24.647  0.00  0.00    +0.002 A 
ATOM      8  C   UNL     1      -1.199  -2.075  24.653  0.00  0.00    +0.022 A 
ATOM      9  C   UNL     1      -1.266  -1.257  24.737  0.00  0.00    +0.119 A 
ATOM     10  C   UNL     1      -2.011  -0.911  24.816  0.00  0.00    +0.171 A 
ATOM     11  O   UNL     1      -1.907  -0.096  24.890  0.00  0.00    -0.438 OA
ATOM     12  C   UNL     1      -1.097   0.061  24.856  0.00  0.00    +0.207 A 
ATOM     13  N   UNL     1      -0.702  -0.656  24.762  0.00  0.00    -0.212 NA
BRANCH   5   3
ATOM      3  C   UNL     1      -3.432  -1.037  24.890  0.00  0.00    +0.344 C 
ATOM      4  O   UNL     1      -3.749  -0.907  25.641  0.00  0.00    -0.245 OA
BRANCH   3   2
ATOM      1  C   UNL     1      -4.624  -0.517  24.296  0.00  0.00    +0.256 C 
ATOM      2  O   UNL     1      -3.860  -0.821  24.219  0.00  0.00    -0.441 OA
ENDBRANCH   3   2
ENDBRANCH   5   3
ENDBRANCH  14  12
BRANCH  17  18
ATOM     18  C   UNL     1      -0.365   2.711  25.795  0.00  0.00    +0.099 C 
BRANCH  18  19
ATOM     19  C   UNL     1      -0.861   3.348  25.630  0.00  0.00    -0.003 A 
ATOM     20  C   UNL     1      -1.609   3.388  25.975  0.00  0.00    +0.034 A 
ATOM     21  C   UNL     1      -2.107   4.026  25.810  0.00  0.00    +0.138 A 
ATOM     24  C   UNL     1      -1.855   4.623  25.300  0.00  0.00    +0.037 A 
ATOM     25  C   UNL     1      -1.106   4.583  24.955  0.00  0.00    +0.003 A 
ATOM     26  C   UNL     1      -0.610   3.946  25.120  0.00  0.00    -0.003 A 
BRANCH  21  22
ATOM     22  O   UNL     1      -2.855   4.066  26.155  0.00  0.00    -0.471 OA
ATOM     23  C   UNL     1      -3.524   3.877  25.712  0.00  0.00    +0.252 C 
ENDBRANCH  21  22
ENDBRANCH  18  19
ENDBRANCH  17  18
TORSDOF 6
ENDMDL
MODEL 6
REMARK VINA RESULT:     -10.5      1.638      2.586
REMARK  Name = 
REMARK  6 active torsions:
REMARK  status: ('A' for Active; 'I' for Inactive)
REMARK    1  A    between atoms: O_2  and  C_3
REMARK    2  A    between atoms: C_3  and  C_5
REMARK    3  A    between atoms: C_12  and  C_14
REMARK    4  A    between atoms: N_17  and  C_18
REMARK    5  A    between atoms: C_18  and  C_19
REMARK    6  A    between atoms: C_21  and  O_22
REMARK                            x       y       z     vdW  Elec       q    Type
REMARK                         _______ _______ _______ _____ _____    ______ ____
ROOT
ATOM     14  C   UNL     1      -1.326   1.030  25.156  0.00  0.00    +0.094 C 
ATOM     15  C   UNL     1      -0.805   1.415  25.666  0.00  0.00    +0.028 C 
ATOM     16  C   UNL     1      -0.925   2.228  25.587  0.00  0.00    +0.073 C 
ATOM     17  N   UNL     1      -1.521   2.345  25.029  0.00  0.00    -0.268 NA
ATOM     27  C   UNL     1      -1.769   1.604  24.762  0.00  0.00    +0.082 C 
ENDROOT
BRANCH  14  12
ATOM      5  C   UNL     1      -2.377  -1.678  24.784  0.00  0.00    +0.112 A 
ATOM      6  C   UNL     1      -2.024  -2.420  24.717  0.00  0.00    +0.010 A 
ATOM      7  C   UNL     1      -1.203  -2.492  24.753  0.00  0.00    +0.002 A 
ATOM      8  C   UNL     1      -0.735  -1.822  24.856  0.00  0.00    +0.022 A 
ATOM      9  C   UNL     1      -1.087  -1.078  24.924  0.00  0.00    +0.119 A 
ATOM     10  C   UNL     1      -1.908  -1.006  24.888  0.00  0.00    +0.171 A 
ATOM     11  O   UNL     1      -2.098  -0.208  24.970  0.00  0.00    -0.438 OA
ATOM     12  C   UNL     1      -1.393   0.213  25.058  0.00  0.00    +0.207 A 
ATOM     13  N   UNL     1      -0.769  -0.325  25.029  0.00  0.00    -0.212 NA
BRANCH   5   3
ATOM      3  C   UNL     1      -3.197  -1.606  24.748  0.00  0.00    +0.344 C 
ATOM      4  O   UNL     1      -3.641  -1.590  25.444  0.00  0.00    -0.245 OA
BRANCH   3   2
ATOM      1  C   UNL     1      -4.393  -1.649  23.966  0.00  0.00    +0.256 C 
ATOM      2  O   UNL     1      -3.575  -1.550  24.017  0.00  0.00    -0.441 OA
ENDBRANCH   3   2
ENDBRANCH   5   3
ENDBRANCH  14  12
BRANCH  17  18
ATOM     18  C   UNL     1      -1.817   3.073  24.780  0.00  0.00    +0.099 C 
BRANCH  18  19
ATOM     19  C   UNL     1      -2.460   3.412  25.170  0.00  0.00    -0.003 A 
ATOM     20  C   UNL     1      -3.225   3.285  24.892  0.00  0.00    +0.034 A 
ATOM     21  C   UNL     1      -3.869   3.625  25.282  0.00  0.00    +0.138 A 
ATOM     24  C   UNL     1      -3.745   4.092  25.951  0.00  0.00    +0.037 A 
ATOM     25  C   UNL     1      -2.979   4.219  26.229  0.00  0.00    +0.003 A 
ATOM     26  C   UNL     1      -2.336   3.880  25.839  0.00  0.00    -0.003 A 
BRANCH  21  22
ATOM     22  O   UNL     1      -4.635   3.497  25.003  0.00  0.00    -0.471 OA
ATOM     23  C   UNL     1      -5.195   3.136  25.488  0.00  0.00    +0.252 C 
ENDBRANCH  21  22
ENDBRANCH  18  19
ENDBRANCH  17  18
TORSDOF 6
ENDMDL
