MODEL 1
REMARK VINA RESULT:      -9.8      0.000      0.000
REMARK  Name = 
REMARK  5 active torsions:
REMARK  status: ('A' for Active; 'I' for Inactive)
REMARK    1  A    between atoms: C_2  and  N_4
REMARK    2  A    between atoms: C_5  and  C_6
REMARK    3  A    between atoms: C_8  and  C_13
REMARK    4  A    between atoms: C_16  and  N_17
REMARK    5  A    between atoms: C_18  and  C_20
REMARK                            x       y       z     vdW  Elec       q    Type
REMARK                         _______ _______ _______ _____ _____    ______ ____
ROOT
ATOM     13  C   UNL     1      -3.295   0.411  24.219  0.00  0.00    +0.006 A 
ATOM     14  C   UNL     1      -3.652   0.917  24.763  0.00  0.00    -0.001 A 
ATOM     15  C   UNL     1      -3.404   1.701  24.824  0.00  0.00    +0.016 A 
ATOM     16  C   UNL     1      -2.797   1.980  24.339  0.00  0.00    +0.074 A 
ATOM     26  C   UNL     1      -2.439   1.474  23.794  0.00  0.00    +0.016 A 
ATOM     27  C   UNL     1      -2.688   0.690  23.734  0.00  0.00    -0.001 A 
ENDROOT
BRANCH  13   8
ATOM      4  N   UNL     1      -3.362  -1.756  24.474  0.00  0.00    -0.275 N 
ATOM      5  C   UNL     1      -3.114  -0.972  24.534  0.00  0.00    +0.139 C 
ATOM      8  C   UNL     1      -3.543  -0.373  24.159  0.00  0.00    +0.159 C 
ATOM      9  O   UNL     1      -4.218  -0.561  23.724  0.00  0.00    -0.341 OA
ATOM     10  C   UNL     1      -4.466  -1.345  23.664  0.00  0.00    +0.227 C 
ATOM     11  C   UNL     1      -4.037  -1.943  24.039  0.00  0.00    +0.256 C 
ATOM     12  O   UNL     1      -4.285  -2.728  23.979  0.00  0.00    -0.272 OA
BRANCH   4   2
ATOM      1  C   UNL     1      -2.251  -2.654  24.498  0.00  0.00    +0.022 C 
ATOM      2  C   UNL     1      -2.934  -2.353  24.849  0.00  0.00    +0.076 C 
ATOM      3  C   UNL     1      -3.188  -2.650  25.575  0.00  0.00    +0.022 C 
ENDBRANCH   4   2
BRANCH   5   6
ATOM      6  C   UNL     1      -2.439  -0.784  24.969  0.00  0.00    +0.205 C 
ATOM      7  O   UNL     1      -2.443  -0.855  25.790  0.00  0.00    -0.218 OA
ENDBRANCH   5   6
ENDBRANCH  13   8
BRANCH  16  17
ATOM     17  N   UNL     1      -2.548   2.764  24.398  0.00  0.00    -0.174 NA
ATOM     18  C   UNL     1      -1.961   2.970  24.941  0.00  0.00    +0.288 C 
ATOM     19  O   UNL     1      -1.624   2.392  25.423  0.00  0.00    -0.266 OA
BRANCH  18  20
ATOM     20  C   UNL     1      -1.712   3.754  25.001  0.00  0.00    +0.156 A 
ATOM     21  C   UNL     1      -2.203   4.317  25.352  0.00  0.00    +0.123 A 
ATOM     22  N   UNL     1      -1.954   5.101  25.411  0.00  0.00    -0.239 NA
ATOM     23  C   UNL     1      -1.216   5.323  25.120  0.00  0.00    +0.120 A 
ATOM     24  C   UNL     1      -0.725   4.761  24.769  0.00  0.00    +0.120 A 
ATOM     25  N   UNL     1      -0.974   3.976  24.710  0.00  0.00    -0.236 NA
ENDBRANCH  18  20
ENDBRANCH  16  17
TORSDOF 5
ENDMDL
MODEL 2
REMARK VINA RESULT:      -8.8      2.698      4.222
REMARK  Name = 
REMARK  5 active torsions:
REMARK  status: ('A' for Active; 'I' for Inactive)
REMARK    1  A    between atoms: C_2  and  N_4
REMARK    2  A    between atoms: C_5  and  C_6
REMARK    3  A    between atoms: C_8  and  C_13
REMARK    4  A    between atoms: C_16  and  N_17
REMARK    5  A    between atoms: C_18  and  C_20
REMARK                            x       y       z     vdW  Elec       q    Type
REMARK                         _______ _______ _______ _____ _____    ______ ____
ROOT
ATOM     13  C   UNL     1      -3.087   2.527  24.595  0.00  0.00    +0.006 A 
ATOM     14  C   UNL     1      -3.014   2.324  23.800  0.00  0.00    -0.001 A 
ATOM     15  C   UNL     1      -2.296   2.039  23.510  0.00  0.00    +0.016 A 
ATOM     16  C   UNL     1      -1.651   1.957  24.017  0.00  0.00    +0.074 A 
ATOM     26  C   UNL     1      -1.724   2.159  24.814  0.00  0.00    +0.016 A 
ATOM     27  C   UNL     1      -2.442   2.444  25.103  0.00  0.00    -0.001 A 
ENDROOT
BRANCH  13   8
ATOM      4  N   UNL     1      -5.160   2.580  25.279  0.00  0.00    -0.275 N 
ATOM      5  C   UNL     1      -4.442   2.296  24.990  0.00  0.00    +0.139 C 
ATOM      8  C   UNL     1      -3.806   2.812  24.885  0.00  0.00    +0.159 C 
ATOM      9  O   UNL     1      -3.888   3.611  25.070  0.00  0.00    -0.341 OA
ATOM     10  C   UNL     1      -4.606   3.895  25.360  0.00  0.00    +0.227 C 
ATOM     11  C   UNL     1      -5.242   3.379  25.464  0.00  0.00    +0.256 C 
ATOM     12  O   UNL     1      -5.960   3.664  25.754  0.00  0.00    -0.272 OA
BRANCH   4   2
ATOM      1  C   UNL     1      -5.966   1.767  26.134  0.00  0.00    +0.022 C 
ATOM      2  C   UNL     1      -5.795   2.064  25.384  0.00  0.00    +0.076 C 
ATOM      3  C   UNL     1      -6.261   1.846  24.739  0.00  0.00    +0.022 C 
ENDBRANCH   4   2
BRANCH   5   6
ATOM      6  C   UNL     1      -4.359   1.496  24.805  0.00  0.00    +0.205 C 
ATOM      7  O   UNL     1      -4.348   0.932  25.406  0.00  0.00    -0.218 OA
ENDBRANCH   5   6
ENDBRANCH  13   8
BRANCH  16  17
ATOM     17  N   UNL     1      -0.932   1.672  23.729  0.00  0.00    -0.174 NA
ATOM     18  C   UNL     1      -0.677   0.914  23.935  0.00  0.00    +0.288 C 
ATOM     19  O   UNL     1      -1.140   0.443  24.429  0.00  0.00    -0.266 OA
BRANCH  18  20
ATOM     20  C   UNL     1       0.042   0.629  23.647  0.00  0.00    +0.156 A 
ATOM     21  C   UNL     1       0.076  -0.112  23.285  0.00  0.00    +0.123 A 
ATOM     22  N   UNL     1       0.794  -0.397  22.997  0.00  0.00    -0.239 NA
ATOM     23  C   UNL     1       1.477   0.058  23.069  0.00  0.00    +0.120 A 
ATOM     24  C   UNL     1       1.444   0.799  23.431  0.00  0.00    +0.120 A 
ATOM     25  N   UNL     1       0.725   1.084  23.719  0.00  0.00    -0.236 NA
ENDBRANCH  18  20
ENDBRANCH  16  17
TORSDOF 5
ENDMDL
MODEL 3
REMARK VINA RESULT:      -8.7      1.145      5.559
REMARK  Name = 
REMARK  5 active torsions:
REMARK  status: ('A' for Active; 'I' for Inactive)
REMARK    1  A    between atoms: C_2  and  N_4
REMARK    2  A    between atoms: C_5  and  C_6
REMARK    3  A    between atoms: C_8  and  C_13
REMARK    4  A    between atoms: C_16  and  N_17
REMARK    5  A    between atoms: C_18  and  C_20
REMARK                            x       y       z     vdW  Elec       q    Type
REMARK                         _______ _______ _______ _____ _____    ______ ____
ROOT
ATOM     13  C   UNL     1      -1.681   1.875  24.597  0.00  0.00    +0.006 A 
ATOM     14  C   UNL     1      -2.030   1.644  23.887  0.00  0.00    -0.001 A 
ATOM     15  C   UNL     1      -2.286   0.866  23.786  0.00  0.00    +0.016 A 
ATOM     16  C   UNL     1      -2.191   0.318  24.396  0.00  0.00    +0.074 A 
ATOM     26  C   UNL     1      -1.842   0.549  25.107  0.00  0.00    +0.016 A 
ATOM     27  C   UNL     1      -1.587   1.327  25.208  0.00  0.00    -0.001 A 
ENDROOT
BRANCH  13   8
ATOM      4  N   UNL     1      -1.681   3.992  25.128  0.00  0.00    -0.275 N 
ATOM      5  C   UNL     1      -1.936   3.215  25.026  0.00  0.00    +0.139 C 
ATOM      8  C   UNL     1      -1.426   2.653  24.699  0.00  0.00    +0.159 C 
ATOM      9  O   UNL     1      -0.663   2.870  24.474  0.00  0.00    -0.341 OA
ATOM     10  C   UNL     1      -0.409   3.647  24.576  0.00  0.00    +0.227 C 
ATOM     11  C   UNL     1      -0.918   4.209  24.903  0.00  0.00    +0.256 C 
ATOM     12  O   UNL     1      -0.663   4.987  25.004  0.00  0.00    -0.272 OA
BRANCH   4   2
ATOM      1  C   UNL     1      -2.403   4.504  26.250  0.00  0.00    +0.022 C 
ATOM      2  C   UNL     1      -2.190   4.553  25.454  0.00  0.00    +0.076 C 
ATOM      3  C   UNL     1      -2.487   5.164  24.986  0.00  0.00    +0.022 C 
ENDBRANCH   4   2
BRANCH   5   6
ATOM      6  C   UNL     1      -2.699   2.997  25.251  0.00  0.00    +0.205 C 
ATOM      7  O   UNL     1      -3.350   3.275  24.827  0.00  0.00    -0.218 OA
ENDBRANCH   5   6
ENDBRANCH  13   8
BRANCH  16  17
ATOM     17  N   UNL     1      -2.446  -0.460  24.296  0.00  0.00    -0.174 NA
ATOM     18  C   UNL     1      -3.205  -0.679  24.534  0.00  0.00    +0.288 C 
ATOM     19  O   UNL     1      -3.709  -0.120  24.873  0.00  0.00    -0.266 OA
BRANCH  18  20
ATOM     20  C   UNL     1      -3.460  -1.457  24.434  0.00  0.00    +0.156 A 
ATOM     21  C   UNL     1      -4.081  -1.624  23.916  0.00  0.00    +0.123 A 
ATOM     22  N   UNL     1      -4.336  -2.402  23.816  0.00  0.00    -0.239 NA
ATOM     23  C   UNL     1      -3.971  -3.012  24.232  0.00  0.00    +0.120 A 
ATOM     24  C   UNL     1      -3.350  -2.846  24.750  0.00  0.00    +0.120 A 
ATOM     25  N   UNL     1      -3.095  -2.067  24.851  0.00  0.00    -0.236 NA
ENDBRANCH  18  20
ENDBRANCH  16  17
TORSDOF 5
ENDMDL
MODEL 4
REMARK VINA RESULT:      -8.4      2.098      2.544
REMARK  Name = 
REMARK  5 active torsions:
REMARK  status: ('A' for Active; 'I' for Inactive)
REMARK    1  A    between atoms: C_2  and  N_4
REMARK    2  A    between atoms: C_5  and  C_6
REMARK    3  A    between atoms: C_8  and  C_13
REMARK    4  A    between atoms: C_16  and  N_17
REMARK    5  A    between atoms: C_18  and  C_20
REMARK                            x       y       z     vdW  Elec       q    Type
REMARK                         _______ _______ _______ _____ _____    ______ ____
ROOT
ATOM     13  C   UNL     1      -3.437  -0.362  24.669  0.00  0.00    +0.006 A 
ATOM     14  C   UNL     1      -3.881  -0.259  25.356  0.00  0.00    -0.001 A 
ATOM     15  C   UNL     1      -4.344   0.418  25.452  0.00  0.00    +0.016 A 
ATOM     16  C   UNL     1      -4.362   0.992  24.859  0.00  0.00    +0.074 A 
ATOM     26  C   UNL     1      -3.917   0.889  24.171  0.00  0.00    +0.016 A 
ATOM     27  C   UNL     1      -3.455   0.212  24.077  0.00  0.00    -0.001 A 
ENDROOT
BRANCH  13   8
ATOM      4  N   UNL     1      -1.698  -1.679  24.610  0.00  0.00    -0.275 N 
ATOM      5  C   UNL     1      -2.160  -1.004  24.705  0.00  0.00    +0.139 C 
ATOM      8  C   UNL     1      -2.975  -1.039  24.573  0.00  0.00    +0.159 C 
ATOM      9  O   UNL     1      -3.325  -1.749  24.346  0.00  0.00    -0.341 OA
ATOM     10  C   UNL     1      -2.863  -2.425  24.251  0.00  0.00    +0.227 C 
ATOM     11  C   UNL     1      -2.048  -2.390  24.383  0.00  0.00    +0.256 C 
ATOM     12  O   UNL     1      -1.586  -3.067  24.287  0.00  0.00    -0.272 OA
BRANCH   4   2
ATOM      1  C   UNL     1      -0.383  -1.351  24.156  0.00  0.00    +0.022 C 
ATOM      2  C   UNL     1      -0.884  -1.644  24.742  0.00  0.00    +0.076 C 
ATOM      3  C   UNL     1      -0.571  -1.902  25.460  0.00  0.00    +0.022 C 
ENDBRANCH   4   2
BRANCH   5   6
ATOM      6  C   UNL     1      -1.810  -0.292  24.933  0.00  0.00    +0.205 C 
ATOM      7  O   UNL     1      -1.518  -0.202  25.698  0.00  0.00    -0.218 OA
ENDBRANCH   5   6
ENDBRANCH  13   8
BRANCH  16  17
ATOM     17  N   UNL     1      -4.823   1.669  24.954  0.00  0.00    -0.174 NA
ATOM     18  C   UNL     1      -4.489   2.355  25.268  0.00  0.00    +0.288 C 
ATOM     19  O   UNL     1      -3.694   2.364  25.488  0.00  0.00    -0.266 OA
BRANCH  18  20
ATOM     20  C   UNL     1      -4.951   3.032  25.363  0.00  0.00    +0.156 A 
ATOM     21  C   UNL     1      -5.690   2.979  25.727  0.00  0.00    +0.123 A 
ATOM     22  N   UNL     1      -6.152   3.656  25.821  0.00  0.00    -0.239 NA
ATOM     23  C   UNL     1      -5.876   4.384  25.553  0.00  0.00    +0.120 A 
ATOM     24  C   UNL     1      -5.137   4.438  25.189  0.00  0.00    +0.120 A 
ATOM     25  N   UNL     1      -4.675   3.760  25.094  0.00  0.00    -0.236 NA
ENDBRANCH  18  20
ENDBRANCH  16  17
TORSDOF 5
ENDMDL
