MODEL 1
REMARK VINA RESULT:     -10.1      0.000      0.000
REMARK  Name = 
REMARK  6 active torsions:
REMARK  status: ('A' for Active; 'I' for Inactive)
REMARK    1  A    between atoms: C_3  and  C_4
REMARK    2  A    between atoms: C_4  and  N_5
REMARK    3  A    between atoms: N_5  and  S_6
REMARK    4  A    between atoms: S_6  and  C_9
REMARK    5  A    between atoms: C_17  and  N_18
REMARK    6  A    between atoms: N_18  and  C_19
REMARK                            x       y       z     vdW  Elec       q    Type
REMARK                         _______ _______ _______ _____ _____    ______ ____
ROOT
ATOM      1  O   UNL     1      -1.130   1.567  25.606  0.00  0.00    -0.219 OA
ATOM      2  C   UNL     1      -1.791   1.980  25.335  0.00  0.00    +0.199 C 
ATOM      3  C   UNL     1      -2.459   1.647  24.983  0.00  0.00    +0.166 C 
ATOM     15  O   UNL     1      -2.980   2.258  24.798  0.00  0.00    -0.350 OA
ATOM     16  C   UNL     1      -2.635   2.969  25.035  0.00  0.00    +0.162 C 
ATOM     17  C   UNL     1      -1.899   2.796  25.366  0.00  0.00    +0.135 C 
ENDROOT
BRANCH   3   4
ATOM      4  C   UNL     1      -2.583   0.843  24.843  0.00  0.00    +0.148 C 
BRANCH   4   5
ATOM      5  N   UNL     1      -3.352   0.551  24.773  0.00  0.00    -0.075 NA
BRANCH   5   6
ATOM      6  S   UNL     1      -3.478  -0.256  24.665  0.00  0.00    +0.077 S 
ATOM      7  O   UNL     1      -3.833  -0.301  25.409  0.00  0.00    -0.152 OA
ATOM      8  O   UNL     1      -3.124  -0.212  23.922  0.00  0.00    -0.152 OA
BRANCH   6   9
ATOM      9  C   UNL     1      -3.605  -1.065  24.557  0.00  0.00    +0.124 A 
ATOM     10  C   UNL     1      -4.106  -1.328  23.958  0.00  0.00    +0.020 A 
ATOM     11  C   UNL     1      -4.232  -2.137  23.852  0.00  0.00    +0.001 A 
ATOM     12  C   UNL     1      -3.857  -2.682  24.344  0.00  0.00    +0.000 A 
ATOM     13  C   UNL     1      -3.355  -2.418  24.944  0.00  0.00    +0.001 A 
ATOM     14  C   UNL     1      -3.229  -1.610  25.051  0.00  0.00    +0.020 A 
ENDBRANCH   6   9
ENDBRANCH   5   6
ENDBRANCH   4   5
ENDBRANCH   3   4
BRANCH  17  18
ATOM     18  N   UNL     1      -1.366   3.345  25.675  0.00  0.00    -0.216 NA
BRANCH  18  19
ATOM     19  C   UNL     1      -1.337   4.110  25.367  0.00  0.00    +0.073 C 
ATOM     20  C   UNL     1      -0.829   4.515  24.858  0.00  0.00    +0.017 C 
ATOM     21  C   UNL     1      -1.296   5.191  24.930  0.00  0.00    +0.003 C 
ATOM     22  C   UNL     1      -1.803   4.787  25.438  0.00  0.00    +0.017 C 
ENDBRANCH  18  19
ENDBRANCH  17  18
TORSDOF 6
ENDMDL
MODEL 2
REMARK VINA RESULT:      -9.8      1.192      5.267
REMARK  Name = 
REMARK  6 active torsions:
REMARK  status: ('A' for Active; 'I' for Inactive)
REMARK    1  A    between atoms: C_3  and  C_4
REMARK    2  A    between atoms: C_4  and  N_5
REMARK    3  A    between atoms: N_5  and  S_6
REMARK    4  A    between atoms: S_6  and  C_9
REMARK    5  A    between atoms: C_17  and  N_18
REMARK    6  A    between atoms: N_18  and  C_19
REMARK                            x       y       z     vdW  Elec       q    Type
REMARK                         _______ _______ _______ _____ _____    ______ ____
ROOT
ATOM      1  O   UNL     1      -4.246   0.959  24.883  0.00  0.00    -0.219 OA
ATOM      2  C   UNL     1      -3.524   0.560  24.861  0.00  0.00    +0.199 C 
ATOM      3  C   UNL     1      -2.777   0.910  24.827  0.00  0.00    +0.166 C 
ATOM     15  O   UNL     1      -2.214   0.308  24.814  0.00  0.00    -0.350 OA
ATOM     16  C   UNL     1      -2.612  -0.414  24.840  0.00  0.00    +0.162 C 
ATOM     17  C   UNL     1      -3.422  -0.258  24.869  0.00  0.00    +0.135 C 
ENDROOT
BRANCH   3   4
ATOM      4  C   UNL     1      -2.623   1.721  24.810  0.00  0.00    +0.148 C 
BRANCH   4   5
ATOM      5  N   UNL     1      -1.856   1.997  24.944  0.00  0.00    -0.075 NA
BRANCH   5   6
ATOM      6  S   UNL     1      -1.711   2.807  24.980  0.00  0.00    +0.077 S 
ATOM      7  O   UNL     1      -1.682   2.765  25.804  0.00  0.00    -0.152 OA
ATOM      8  O   UNL     1      -1.739   2.850  24.158  0.00  0.00    -0.152 OA
BRANCH   6   9
ATOM      9  C   UNL     1      -1.565   3.619  25.018  0.00  0.00    +0.124 A 
ATOM     10  C   UNL     1      -2.145   4.130  25.303  0.00  0.00    +0.020 A 
ATOM     11  C   UNL     1      -1.998   4.941  25.341  0.00  0.00    +0.001 A 
ATOM     12  C   UNL     1      -1.271   5.241  25.092  0.00  0.00    +0.000 A 
ATOM     13  C   UNL     1      -0.690   4.729  24.806  0.00  0.00    +0.001 A 
ATOM     14  C   UNL     1      -0.837   3.919  24.769  0.00  0.00    +0.020 A 
ENDBRANCH   6   9
ENDBRANCH   5   6
ENDBRANCH   4   5
ENDBRANCH   3   4
BRANCH  17  18
ATOM     18  N   UNL     1      -4.023  -0.822  24.900  0.00  0.00    -0.216 NA
BRANCH  18  19
ATOM     19  C   UNL     1      -3.882  -1.589  24.632  0.00  0.00    +0.073 C 
ATOM     20  C   UNL     1      -3.535  -2.266  24.953  0.00  0.00    +0.017 C 
ATOM     21  C   UNL     1      -3.683  -2.675  24.253  0.00  0.00    +0.003 C 
ATOM     22  C   UNL     1      -4.030  -2.000  23.932  0.00  0.00    +0.017 C 
ENDBRANCH  18  19
ENDBRANCH  17  18
TORSDOF 6
ENDMDL
