MODEL 1
REMARK VINA RESULT:     -14.7      0.000      0.000
REMARK  Name = 
REMARK  2 active torsions:
REMARK  status: ('A' for Active; 'I' for Inactive)
REMARK    1  A    between atoms: C_2  and  N_4
REMARK    2  A    between atoms: C_16  and  C_17
REMARK                            x       y       z     vdW  Elec       q    Type
REMARK                         _______ _______ _______ _____ _____    ______ ____
ROOT
ATOM      4  N   UNL     1      -3.062   0.709  24.486  0.00  0.00    -0.190 NA
ATOM      5  C   UNL     1      -2.614   1.373  24.290  0.00  0.00    +0.323 C 
ATOM      6  O   UNL     1      -1.823   1.288  24.074  0.00  0.00    -0.251 OA
ATOM      7  N   UNL     1      -2.958   2.123  24.309  0.00  0.00    -0.262 N 
ATOM      8  C   UNL     1      -3.021   2.954  24.240  0.00  0.00    +0.097 C 
ATOM      9  C   UNL     1      -3.968   3.070  24.497  0.00  0.00    +0.043 C 
ATOM     10  C   UNL     1      -4.717   3.330  24.683  0.00  0.00    +0.011 C 
ATOM     11  C   UNL     1      -4.374   2.719  24.649  0.00  0.00    +0.058 C 
ATOM     12  C   UNL     1      -3.458   2.623  24.399  0.00  0.00    +0.101 C 
ATOM     13  C   UNL     1      -4.494   1.817  24.777  0.00  0.00    +0.041 A 
ATOM     14  C   UNL     1      -5.074   1.273  24.999  0.00  0.00    +0.013 A 
ATOM     15  C   UNL     1      -4.893   0.469  25.031  0.00  0.00    +0.006 A 
ATOM     16  C   UNL     1      -4.133   0.208  24.843  0.00  0.00    +0.058 A 
ATOM     23  C   UNL     1      -3.554   0.752  24.621  0.00  0.00    +0.261 A 
ATOM     24  O   UNL     1      -3.075   0.084  24.555  0.00  0.00    -0.267 OA
ATOM     25  N   UNL     1      -3.735   1.556  24.589  0.00  0.00    -0.299 N 
ATOM     26  C   UNL     1      -4.084   2.126  24.629  0.00  0.00    +0.110 C 
ENDROOT
BRANCH  16  17
ATOM     17  C   UNL     1      -3.954  -0.596  24.875  0.00  0.00    +0.024 A 
ATOM     18  C   UNL     1      -4.085  -1.075  24.216  0.00  0.00    +0.003 A 
ATOM     19  C   UNL     1      -3.905  -1.879  24.248  0.00  0.00    +0.021 A 
ATOM     20  C   UNL     1      -3.595  -2.205  24.939  0.00  0.00    +0.099 A 
ATOM     21  N   UNL     1      -3.463  -1.727  25.599  0.00  0.00    -0.242 NA
ATOM     22  C   UNL     1      -3.643  -0.922  25.567  0.00  0.00    +0.099 A 
ENDBRANCH  16  17
BRANCH   4   2
ATOM      1  C   UNL     1      -2.020  -0.186  24.881  0.00  0.00    +0.023 C 
ATOM      2  C   UNL     1      -2.718  -0.041  24.467  0.00  0.00    +0.097 C 
ATOM      3  C   UNL     1      -2.652  -0.834  24.249  0.00  0.00    +0.023 C 
ENDBRANCH   4   2
TORSDOF 2
ENDMDL
MODEL 2
REMARK VINA RESULT:     -14.7      0.997      3.428
REMARK  Name = 
REMARK  2 active torsions:
REMARK  status: ('A' for Active; 'I' for Inactive)
REMARK    1  A    between atoms: C_2  and  N_4
REMARK    2  A    between atoms: C_16  and  C_17
REMARK                            x       y       z     vdW  Elec       q    Type
REMARK                         _______ _______ _______ _____ _____    ______ ____
ROOT
ATOM      4  N   UNL     1      -2.332  -0.117  24.489  0.00  0.00    -0.190 NA
ATOM      5  C   UNL     1      -1.791  -0.727  24.621  0.00  0.00    +0.323 C 
ATOM      6  O   UNL     1      -0.993  -0.554  24.736  0.00  0.00    -0.251 OA
ATOM      7  N   UNL     1      -2.050  -1.511  24.639  0.00  0.00    -0.262 N 
ATOM      8  C   UNL     1      -2.011  -2.342  24.707  0.00  0.00    +0.097 C 
ATOM      9  C   UNL     1      -2.965  -2.564  24.571  0.00  0.00    +0.043 C 
ATOM     10  C   UNL     1      -3.698  -2.907  24.480  0.00  0.00    +0.011 C 
ATOM     11  C   UNL     1      -3.423  -2.261  24.475  0.00  0.00    +0.058 C 
ATOM     12  C   UNL     1      -2.498  -2.063  24.608  0.00  0.00    +0.101 C 
ATOM     13  C   UNL     1      -3.658  -1.379  24.372  0.00  0.00    +0.041 A 
ATOM     14  C   UNL     1      -4.317  -0.903  24.231  0.00  0.00    +0.013 A 
ATOM     15  C   UNL     1      -4.232  -0.084  24.183  0.00  0.00    +0.006 A 
ATOM     16  C   UNL     1      -3.488   0.260  24.276  0.00  0.00    +0.058 A 
ATOM     23  C   UNL     1      -2.829  -0.215  24.417  0.00  0.00    +0.261 A 
ATOM     24  O   UNL     1      -2.422   0.502  24.428  0.00  0.00    -0.267 OA
ATOM     25  N   UNL     1      -2.914  -1.035  24.465  0.00  0.00    -0.299 N 
ATOM     26  C   UNL     1      -3.200  -1.639  24.464  0.00  0.00    +0.110 C 
ENDROOT
BRANCH  16  17
ATOM     17  C   UNL     1      -3.404   1.079  24.228  0.00  0.00    +0.024 A 
ATOM     18  C   UNL     1      -3.254   1.435  23.499  0.00  0.00    +0.003 A 
ATOM     19  C   UNL     1      -3.170   2.255  23.450  0.00  0.00    +0.021 A 
ATOM     20  C   UNL     1      -3.236   2.717  24.130  0.00  0.00    +0.099 A 
ATOM     21  N   UNL     1      -3.385   2.361  24.859  0.00  0.00    -0.242 NA
ATOM     22  C   UNL     1      -3.470   1.541  24.908  0.00  0.00    +0.099 A 
ENDBRANCH  16  17
BRANCH   4   2
ATOM      1  C   UNL     1      -1.640   0.972  25.103  0.00  0.00    +0.023 C 
ATOM      2  C   UNL     1      -2.073   0.666  24.472  0.00  0.00    +0.097 C 
ATOM      3  C   UNL     1      -1.979   1.421  24.153  0.00  0.00    +0.023 C 
ENDBRANCH   4   2
TORSDOF 2
ENDMDL
MODEL 3
REMARK VINA RESULT:     -14.1      1.586      3.672
REMARK  Name = 
REMARK  2 active torsions:
REMARK  status: ('A' for Active; 'I' for Inactive)
REMARK    1  A    between atoms: C_2  and  N_4
REMARK    2  A    between atoms: C_16  and  C_17
REMARK                            x       y       z     vdW  Elec       q    Type
REMARK                         _______ _______ _______ _____ _____    ______ ____
ROOT
ATOM      4  N   UNL     1      -2.691   0.083  24.404  0.00  0.00    -0.190 NA
ATOM      5  C   UNL     1      -3.474  -0.034  24.171  0.00  0.00    +0.323 C 
ATOM      6  O   UNL     1      -3.939   0.610  23.949  0.00  0.00    -0.251 OA
ATOM      7  N   UNL     1      -3.793  -0.795  24.161  0.00  0.00    -0.262 N 
ATOM      8  C   UNL     1      -4.357  -1.403  24.056  0.00  0.00    +0.097 C 
ATOM      9  C   UNL     1      -3.811  -2.183  24.320  0.00  0.00    +0.043 C 
ATOM     10  C   UNL     1      -3.503  -2.914  24.503  0.00  0.00    +0.011 C 
ATOM     11  C   UNL     1      -3.285  -2.247  24.493  0.00  0.00    +0.058 C 
ATOM     12  C   UNL     1      -3.825  -1.503  24.235  0.00  0.00    +0.101 C 
ATOM     13  C   UNL     1      -2.547  -1.727  24.663  0.00  0.00    +0.041 A 
ATOM     14  C   UNL     1      -1.764  -1.789  24.917  0.00  0.00    +0.013 A 
ATOM     15  C   UNL     1      -1.298  -1.112  24.983  0.00  0.00    +0.006 A 
ATOM     16  C   UNL     1      -1.613  -0.373  24.797  0.00  0.00    +0.058 A 
ATOM     23  C   UNL     1      -2.396  -0.311  24.543  0.00  0.00    +0.261 A 
ATOM     24  O   UNL     1      -2.227   0.495  24.501  0.00  0.00    -0.267 OA
ATOM     25  N   UNL     1      -2.862  -0.988  24.477  0.00  0.00    -0.299 N 
ATOM     26  C   UNL     1      -3.045  -1.632  24.495  0.00  0.00    +0.110 C 
ENDROOT
BRANCH  16  17
ATOM     17  C   UNL     1      -1.146   0.303  24.863  0.00  0.00    +0.024 A 
ATOM     18  C   UNL     1      -1.124   0.720  25.575  0.00  0.00    +0.003 A 
ATOM     19  C   UNL     1      -0.657   1.397  25.643  0.00  0.00    +0.021 A 
ATOM     20  C   UNL     1      -0.212   1.656  24.999  0.00  0.00    +0.099 A 
ATOM     21  N   UNL     1      -0.233   1.239  24.287  0.00  0.00    -0.242 NA
ATOM     22  C   UNL     1      -0.700   0.562  24.220  0.00  0.00    +0.099 A 
ENDBRANCH  16  17
BRANCH   4   2
ATOM      1  C   UNL     1      -2.407   1.315  23.737  0.00  0.00    +0.023 C 
ATOM      2  C   UNL     1      -2.373   0.844  24.413  0.00  0.00    +0.097 C 
ATOM      3  C   UNL     1      -1.992   1.496  24.744  0.00  0.00    +0.023 C 
ENDBRANCH   4   2
TORSDOF 2
ENDMDL
MODEL 4
REMARK VINA RESULT:     -14.1      2.014      3.276
REMARK  Name = 
REMARK  2 active torsions:
REMARK  status: ('A' for Active; 'I' for Inactive)
REMARK    1  A    between atoms: C_2  and  N_4
REMARK    2  A    between atoms: C_16  and  C_17
REMARK                            x       y       z     vdW  Elec       q    Type
REMARK                         _______ _______ _______ _____ _____    ______ ____
ROOT
ATOM      4  N   UNL     1      -2.973   3.151  25.390  0.00  0.00    -0.190 NA
ATOM      5  C   UNL     1      -3.588   3.605  25.702  0.00  0.00    +0.323 C 
ATOM      6  O   UNL     1      -3.420   4.303  26.109  0.00  0.00    -0.251 OA
ATOM      7  N   UNL     1      -4.371   3.361  25.608  0.00  0.00    -0.262 N 
ATOM      8  C   UNL     1      -5.204   3.373  25.670  0.00  0.00    +0.097 C 
ATOM      9  C   UNL     1      -5.418   2.539  25.186  0.00  0.00    +0.043 C 
ATOM     10  C   UNL     1      -5.756   1.894  24.822  0.00  0.00    +0.011 C 
ATOM     11  C   UNL     1      -5.112   2.149  24.932  0.00  0.00    +0.058 C 
ATOM     12  C   UNL     1      -4.921   2.957  25.403  0.00  0.00    +0.101 C 
ATOM     13  C   UNL     1      -4.227   1.967  24.765  0.00  0.00    +0.041 A 
ATOM     14  C   UNL     1      -3.746   1.406  24.398  0.00  0.00    +0.013 A 
ATOM     15  C   UNL     1      -2.927   1.501  24.400  0.00  0.00    +0.006 A 
ATOM     16  C   UNL     1      -2.588   2.156  24.770  0.00  0.00    +0.058 A 
ATOM     23  C   UNL     1      -3.068   2.717  25.137  0.00  0.00    +0.261 A 
ATOM     24  O   UNL     1      -2.353   3.088  25.312  0.00  0.00    -0.267 OA
ATOM     25  N   UNL     1      -3.888   2.623  25.134  0.00  0.00    -0.299 N 
ATOM     26  C   UNL     1      -4.491   2.358  25.016  0.00  0.00    +0.110 C 
ENDROOT
BRANCH  16  17
ATOM     17  C   UNL     1      -1.768   2.250  24.772  0.00  0.00    +0.024 A 
ATOM     18  C   UNL     1      -1.318   1.921  25.380  0.00  0.00    +0.003 A 
ATOM     19  C   UNL     1      -0.498   2.014  25.383  0.00  0.00    +0.021 A 
ATOM     20  C   UNL     1      -0.129   2.436  24.778  0.00  0.00    +0.099 A 
ATOM     21  N   UNL     1      -0.579   2.765  24.170  0.00  0.00    -0.242 NA
ATOM     22  C   UNL     1      -1.399   2.672  24.167  0.00  0.00    +0.099 A 
ENDBRANCH  16  17
BRANCH   4   2
ATOM      1  C   UNL     1      -1.966   4.157  25.262  0.00  0.00    +0.023 C 
ATOM      2  C   UNL     1      -2.192   3.396  25.485  0.00  0.00    +0.097 C 
ATOM      3  C   UNL     1      -1.399   3.318  25.700  0.00  0.00    +0.023 C 
ENDBRANCH   4   2
TORSDOF 2
ENDMDL
MODEL 5
REMARK VINA RESULT:     -13.7      1.380      2.367
REMARK  Name = 
REMARK  2 active torsions:
REMARK  status: ('A' for Active; 'I' for Inactive)
REMARK    1  A    between atoms: C_2  and  N_4
REMARK    2  A    between atoms: C_16  and  C_17
REMARK                            x       y       z     vdW  Elec       q    Type
REMARK                         _______ _______ _______ _____ _____    ______ ____
ROOT
ATOM      4  N   UNL     1      -3.771   2.124  25.113  0.00  0.00    -0.190 NA
ATOM      5  C   UNL     1      -4.009   2.879  25.347  0.00  0.00    +0.323 C 
ATOM      6  O   UNL     1      -4.807   3.037  25.480  0.00  0.00    -0.251 OA
ATOM      7  N   UNL     1      -3.448   3.476  25.448  0.00  0.00    -0.262 N 
ATOM      8  C   UNL     1      -3.138   4.232  25.620  0.00  0.00    +0.097 C 
ATOM      9  C   UNL     1      -2.178   4.057  25.464  0.00  0.00    +0.043 C 
ATOM     10  C   UNL     1      -1.368   4.075  25.378  0.00  0.00    +0.011 C 
ATOM     11  C   UNL     1      -1.886   3.608  25.308  0.00  0.00    +0.058 C 
ATOM     12  C   UNL     1      -2.810   3.793  25.463  0.00  0.00    +0.101 C 
ATOM     13  C   UNL     1      -2.040   2.729  25.085  0.00  0.00    +0.041 A 
ATOM     14  C   UNL     1      -1.637   2.048  24.852  0.00  0.00    +0.013 A 
ATOM     15  C   UNL     1      -2.055   1.351  24.708  0.00  0.00    +0.006 A 
ATOM     16  C   UNL     1      -2.875   1.336  24.796  0.00  0.00    +0.058 A 
ATOM     23  C   UNL     1      -3.278   2.018  25.028  0.00  0.00    +0.261 A 
ATOM     24  O   UNL     1      -3.946   1.538  24.972  0.00  0.00    -0.267 OA
ATOM     25  N   UNL     1      -2.860   2.714  25.173  0.00  0.00    -0.299 N 
ATOM     26  C   UNL     1      -2.348   3.141  25.232  0.00  0.00    +0.110 C 
ENDROOT
BRANCH  16  17
ATOM     17  C   UNL     1      -3.292   0.639  24.652  0.00  0.00    +0.024 A 
ATOM     18  C   UNL     1      -3.423   0.103  25.265  0.00  0.00    +0.003 A 
ATOM     19  C   UNL     1      -3.840  -0.594  25.122  0.00  0.00    +0.021 A 
ATOM     20  C   UNL     1      -4.125  -0.755  24.365  0.00  0.00    +0.099 A 
ATOM     21  N   UNL     1      -3.994  -0.220  23.751  0.00  0.00    -0.242 NA
ATOM     22  C   UNL     1      -3.577   0.478  23.895  0.00  0.00    +0.099 A 
ENDBRANCH  16  17
BRANCH   4   2
ATOM      1  C   UNL     1      -5.012   1.671  24.569  0.00  0.00    +0.023 C 
ATOM      2  C   UNL     1      -4.331   1.528  25.013  0.00  0.00    +0.097 C 
ATOM      3  C   UNL     1      -4.655   0.775  25.107  0.00  0.00    +0.023 C 
ENDBRANCH   4   2
TORSDOF 2
ENDMDL
MODEL 6
REMARK VINA RESULT:     -13.5      1.389      3.161
REMARK  Name = 
REMARK  2 active torsions:
REMARK  status: ('A' for Active; 'I' for Inactive)
REMARK    1  A    between atoms: C_2  and  N_4
REMARK    2  A    between atoms: C_16  and  C_17
REMARK                            x       y       z     vdW  Elec       q    Type
REMARK                         _______ _______ _______ _____ _____    ______ ____
ROOT
ATOM      4  N   UNL     1      -2.796   1.638  24.910  0.00  0.00    -0.190 NA
ATOM      5  C   UNL     1      -3.200   0.920  24.856  0.00  0.00    +0.323 C 
ATOM      6  O   UNL     1      -2.780   0.214  24.792  0.00  0.00    -0.251 OA
ATOM      7  N   UNL     1      -4.026   0.910  24.866  0.00  0.00    -0.262 N 
ATOM      8  C   UNL     1      -4.801   0.599  24.851  0.00  0.00    +0.097 C 
ATOM      9  C   UNL     1      -5.317   1.438  24.927  0.00  0.00    +0.043 C 
ATOM     10  C   UNL     1      -5.878   2.026  24.983  0.00  0.00    +0.011 C 
ATOM     11  C   UNL     1      -5.178   1.976  24.970  0.00  0.00    +0.058 C 
ATOM     12  C   UNL     1      -4.693   1.157  24.895  0.00  0.00    +0.101 C 
ATOM     13  C   UNL     1      -4.417   2.491  25.002  0.00  0.00    +0.041 A 
ATOM     14  C   UNL     1      -4.179   3.278  25.065  0.00  0.00    +0.013 A 
ATOM     15  C   UNL     1      -3.376   3.467  25.070  0.00  0.00    +0.006 A 
ATOM     16  C   UNL     1      -2.811   2.868  25.012  0.00  0.00    +0.058 A 
ATOM     23  C   UNL     1      -3.049   2.081  24.950  0.00  0.00    +0.261 A 
ATOM     24  O   UNL     1      -2.239   1.929  24.927  0.00  0.00    -0.267 OA
ATOM     25  N   UNL     1      -3.852   1.893  24.945  0.00  0.00    -0.299 N 
ATOM     26  C   UNL     1      -4.517   1.968  24.960  0.00  0.00    +0.110 C 
ENDROOT
BRANCH  16  17
ATOM     17  C   UNL     1      -2.009   3.058  25.017  0.00  0.00    +0.024 A 
ATOM     18  C   UNL     1      -1.604   3.118  25.734  0.00  0.00    +0.003 A 
ATOM     19  C   UNL     1      -0.801   3.307  25.740  0.00  0.00    +0.021 A 
ATOM     20  C   UNL     1      -0.403   3.437  25.029  0.00  0.00    +0.099 A 
ATOM     21  N   UNL     1      -0.807   3.377  24.312  0.00  0.00    -0.242 NA
ATOM     22  C   UNL     1      -1.611   3.188  24.307  0.00  0.00    +0.099 A 
ENDBRANCH  16  17
BRANCH   4   2
ATOM      1  C   UNL     1      -1.561   1.289  24.282  0.00  0.00    +0.023 C 
ATOM      2  C   UNL     1      -1.972   1.649  24.900  0.00  0.00    +0.097 C 
ATOM      3  C   UNL     1      -1.217   1.831  25.180  0.00  0.00    +0.023 C 
ENDBRANCH   4   2
TORSDOF 2
ENDMDL
