MODEL 1
REMARK VINA RESULT:      -5.8      0.000      0.000
REMARK  Name = 
REMARK  6 active torsions:
REMARK  status: ('A' for Active; 'I' for Inactive)
REMARK    1  A    between atoms: N_2  and  C_4
REMARK    2  A    between atoms: C_7  and  C_10
REMARK    3  A    between atoms: N_12  and  C_13
REMARK    4  A    between atoms: C_17  and  N_21
REMARK    5  A    between atoms: C_24  and  C_28
REMARK    6  A    between atoms: C_31  and  N_34
REMARK                            x       y       z     vdW  Elec       q    Type
REMARK                         _______ _______ _______ _____ _____    ______ ____
ROOT
ATOM     13  C   UNL     1      -1.797   1.275  24.872  0.00  0.00    +0.155 C 
ATOM     14  C   UNL     1      -1.359   1.225  25.569  0.00  0.00    +0.166 C 
ATOM     15  O   UNL     1      -0.559   1.211  25.367  0.00  0.00    -0.350 OA
ATOM     16  C   UNL     1      -0.503   1.252  24.545  0.00  0.00    +0.166 C 
ATOM     17  C   UNL     1       0.025   1.269  23.912  0.00  0.00    +0.154 C 
ATOM     18  C   UNL     1      -0.413   1.318  23.215  0.00  0.00    +0.166 C 
ATOM     19  O   UNL     1      -1.212   1.333  23.417  0.00  0.00    -0.350 OA
ATOM     20  C   UNL     1      -1.268   1.292  24.240  0.00  0.00    +0.166 C 
ENDROOT
BRANCH  17  21
ATOM     21  N   UNL     1       0.848   1.240  23.966  0.00  0.00    -0.200 NA
ATOM     22  C   UNL     1       1.278   0.743  23.468  0.00  0.00    +0.237 A 
ATOM     23  N   UNL     1       2.101   0.714  23.522  0.00  0.00    -0.212 NA
ATOM     24  C   UNL     1       2.531   0.217  23.023  0.00  0.00    +0.086 A 
ATOM     25  C   UNL     1       2.138  -0.252  22.470  0.00  0.00    +0.040 A 
ATOM     26  C   UNL     1       1.314  -0.223  22.415  0.00  0.00    +0.103 A 
ATOM     27  N   UNL     1       0.885   0.274  22.914  0.00  0.00    -0.211 NA
BRANCH  24  28
ATOM     28  C   UNL     1       3.353   0.189  23.078  0.00  0.00    +0.018 A 
ATOM     29  C   UNL     1       3.721  -0.459  23.435  0.00  0.00    +0.003 A 
ATOM     30  C   UNL     1       4.543  -0.488  23.489  0.00  0.00    +0.015 A 
ATOM     31  C   UNL     1       4.999   0.130  23.187  0.00  0.00    +0.048 A 
ATOM     32  C   UNL     1       4.631   0.777  22.831  0.00  0.00    +0.015 A 
ATOM     33  C   UNL     1       3.808   0.806  22.776  0.00  0.00    +0.003 A 
BRANCH  31  34
ATOM     34  N   UNL     1       5.821   0.101  23.242  0.00  0.00    -0.304 N 
ATOM     35  C   UNL     1       6.260  -0.274  22.653  0.00  0.00    +0.112 C 
ATOM     36  C   UNL     1       6.205   0.448  23.884  0.00  0.00    +0.112 C 
ENDBRANCH  31  34
ENDBRANCH  24  28
ENDBRANCH  17  21
BRANCH  13  12
ATOM     10  C   UNL     1      -3.041   1.885  25.224  0.00  0.00    +0.265 C 
ATOM     11  O   UNL     1      -2.638   2.438  25.687  0.00  0.00    -0.268 OA
ATOM     12  N   UNL     1      -2.620   1.303  24.817  0.00  0.00    -0.198 NA
BRANCH  10   7
ATOM      4  C   UNL     1      -5.508   1.970  25.061  0.00  0.00    +0.048 A 
ATOM      5  C   UNL     1      -5.072   2.670  25.084  0.00  0.00    +0.015 A 
ATOM      6  C   UNL     1      -4.250   2.641  25.138  0.00  0.00    +0.006 A 
ATOM      7  C   UNL     1      -3.863   1.913  25.170  0.00  0.00    +0.055 A 
ATOM      8  C   UNL     1      -4.299   1.213  25.147  0.00  0.00    +0.006 A 
ATOM      9  C   UNL     1      -5.122   1.242  25.093  0.00  0.00    +0.015 A 
BRANCH   4   2
ATOM      1  C   UNL     1      -6.713   1.661  24.358  0.00  0.00    +0.112 C 
ATOM      2  N   UNL     1      -6.331   1.998  25.007  0.00  0.00    -0.304 N 
ATOM      3  C   UNL     1      -6.772   2.364  25.601  0.00  0.00    +0.112 C 
ENDBRANCH   4   2
ENDBRANCH  10   7
ENDBRANCH  13  12
TORSDOF 6
ENDMDL
MODEL 2
REMARK VINA RESULT:      -5.6      1.013      8.133
REMARK  Name = 
REMARK  6 active torsions:
REMARK  status: ('A' for Active; 'I' for Inactive)
REMARK    1  A    between atoms: N_2  and  C_4
REMARK    2  A    between atoms: C_7  and  C_10
REMARK    3  A    between atoms: N_12  and  C_13
REMARK    4  A    between atoms: C_17  and  N_21
REMARK    5  A    between atoms: C_24  and  C_28
REMARK    6  A    between atoms: C_31  and  N_34
REMARK                            x       y       z     vdW  Elec       q    Type
REMARK                         _______ _______ _______ _____ _____    ______ ____
ROOT
ATOM     13  C   UNL     1       1.335   0.640  23.517  0.00  0.00    +0.155 C 
ATOM     14  C   UNL     1       0.862   0.061  23.169  0.00  0.00    +0.166 C 
ATOM     15  O   UNL     1       0.074   0.275  23.281  0.00  0.00    -0.350 OA
ATOM     16  C   UNL     1       0.059   0.986  23.698  0.00  0.00    +0.166 C 
ATOM     17  C   UNL     1      -0.436   1.559  24.026  0.00  0.00    +0.154 C 
ATOM     18  C   UNL     1       0.037   2.138  24.374  0.00  0.00    +0.166 C 
ATOM     19  O   UNL     1       0.825   1.923  24.261  0.00  0.00    -0.350 OA
ATOM     20  C   UNL     1       0.839   1.211  23.844  0.00  0.00    +0.166 C 
ENDROOT
BRANCH  17  21
ATOM     21  N   UNL     1      -1.262   1.553  24.008  0.00  0.00    -0.200 NA
ATOM     22  C   UNL     1      -1.690   1.956  24.587  0.00  0.00    +0.237 A 
ATOM     23  N   UNL     1      -2.514   1.950  24.570  0.00  0.00    -0.212 NA
ATOM     24  C   UNL     1      -2.942   2.353  25.148  0.00  0.00    +0.086 A 
ATOM     25  C   UNL     1      -2.545   2.763  25.744  0.00  0.00    +0.040 A 
ATOM     26  C   UNL     1      -1.720   2.769  25.762  0.00  0.00    +0.103 A 
ATOM     27  N   UNL     1      -1.293   2.365  25.183  0.00  0.00    -0.211 NA
BRANCH  24  28
ATOM     28  C   UNL     1      -3.767   2.348  25.131  0.00  0.00    +0.018 A 
ATOM     29  C   UNL     1      -4.174   1.629  25.092  0.00  0.00    +0.003 A 
ATOM     30  C   UNL     1      -4.998   1.624  25.075  0.00  0.00    +0.015 A 
ATOM     31  C   UNL     1      -5.417   2.334  25.096  0.00  0.00    +0.048 A 
ATOM     32  C   UNL     1      -5.010   3.051  25.135  0.00  0.00    +0.015 A 
ATOM     33  C   UNL     1      -4.185   3.057  25.152  0.00  0.00    +0.003 A 
BRANCH  31  34
ATOM     34  N   UNL     1      -6.241   2.328  25.079  0.00  0.00    -0.304 N 
ATOM     35  C   UNL     1      -6.639   1.805  24.581  0.00  0.00    +0.112 C 
ATOM     36  C   UNL     1      -6.668   2.846  25.559  0.00  0.00    +0.112 C 
ENDBRANCH  31  34
ENDBRANCH  24  28
ENDBRANCH  17  21
BRANCH  13  12
ATOM     10  C   UNL     1       2.586   0.067  23.128  0.00  0.00    +0.265 C 
ATOM     11  O   UNL     1       2.186  -0.517  22.704  0.00  0.00    -0.268 OA
ATOM     12  N   UNL     1       2.160   0.646  23.534  0.00  0.00    -0.198 NA
BRANCH  10   7
ATOM      4  C   UNL     1       5.060   0.084  23.180  0.00  0.00    +0.048 A 
ATOM      5  C   UNL     1       4.651   0.695  22.805  0.00  0.00    +0.015 A 
ATOM      6  C   UNL     1       3.827   0.689  22.788  0.00  0.00    +0.006 A 
ATOM      7  C   UNL     1       3.410   0.073  23.145  0.00  0.00    +0.055 A 
ATOM      8  C   UNL     1       3.819  -0.537  23.521  0.00  0.00    +0.006 A 
ATOM      9  C   UNL     1       4.644  -0.532  23.538  0.00  0.00    +0.015 A 
BRANCH   4   2
ATOM      1  C   UNL     1       6.282   0.546  23.759  0.00  0.00    +0.112 C 
ATOM      2  N   UNL     1       5.885   0.090  23.198  0.00  0.00    -0.304 N 
ATOM      3  C   UNL     1       6.312  -0.360  22.654  0.00  0.00    +0.112 C 
ENDBRANCH   4   2
ENDBRANCH  10   7
ENDBRANCH  13  12
TORSDOF 6
ENDMDL
MODEL 3
REMARK VINA RESULT:      -2.4     16.798     19.362
REMARK  Name = 
REMARK  6 active torsions:
REMARK  status: ('A' for Active; 'I' for Inactive)
REMARK    1  A    between atoms: N_2  and  C_4
REMARK    2  A    between atoms: C_7  and  C_10
REMARK    3  A    between atoms: N_12  and  C_13
REMARK    4  A    between atoms: C_17  and  N_21
REMARK    5  A    between atoms: C_24  and  C_28
REMARK    6  A    between atoms: C_31  and  N_34
REMARK                            x       y       z     vdW  Elec       q    Type
REMARK                         _______ _______ _______ _____ _____    ______ ____
ROOT
ATOM     13  C   UNL     1      -2.610  -9.656  10.669  0.00  0.00    +0.155 C 
ATOM     14  C   UNL     1      -2.906 -10.248  11.161  0.00  0.00    +0.166 C 
ATOM     15  O   UNL     1      -3.689 -10.391  10.943  0.00  0.00    -0.350 OA
ATOM     16  C   UNL     1      -3.877  -9.888  10.319  0.00  0.00    +0.166 C 
ATOM     17  C   UNL     1      -4.476  -9.664   9.797  0.00  0.00    +0.154 C 
ATOM     18  C   UNL     1      -4.180  -9.071   9.306  0.00  0.00    +0.166 C 
ATOM     19  O   UNL     1      -3.397  -8.928   9.523  0.00  0.00    -0.350 OA
ATOM     20  C   UNL     1      -3.210  -9.433  10.149  0.00  0.00    +0.166 C 
ENDROOT
BRANCH  17  21
ATOM     21  N   UNL     1      -5.238  -9.978   9.772  0.00  0.00    -0.200 NA
ATOM     22  C   UNL     1      -5.882  -9.489   9.608  0.00  0.00    +0.237 A 
ATOM     23  N   UNL     1      -6.644  -9.803   9.583  0.00  0.00    -0.212 NA
ATOM     24  C   UNL     1      -7.287  -9.313   9.418  0.00  0.00    +0.086 A 
ATOM     25  C   UNL     1      -7.168  -8.509   9.279  0.00  0.00    +0.040 A 
ATOM     26  C   UNL     1      -6.405  -8.194   9.304  0.00  0.00    +0.103 A 
ATOM     27  N   UNL     1      -5.763  -8.685   9.469  0.00  0.00    -0.211 NA
BRANCH  24  28
ATOM     28  C   UNL     1      -8.049  -9.627   9.393  0.00  0.00    +0.018 A 
ATOM     29  C   UNL     1      -8.450  -9.795  10.096  0.00  0.00    +0.003 A 
ATOM     30  C   UNL     1      -9.212 -10.109  10.071  0.00  0.00    +0.015 A 
ATOM     31  C   UNL     1      -9.574 -10.256   9.345  0.00  0.00    +0.048 A 
ATOM     32  C   UNL     1      -9.174 -10.088   8.643  0.00  0.00    +0.015 A 
ATOM     33  C   UNL     1      -8.412  -9.774   8.668  0.00  0.00    +0.003 A 
BRANCH  31  34
ATOM     34  N   UNL     1     -10.336 -10.570   9.320  0.00  0.00    -0.304 N 
ATOM     35  C   UNL     1     -10.716 -10.673   8.595  0.00  0.00    +0.112 C 
ATOM     36  C   UNL     1     -10.719 -10.781  10.019  0.00  0.00    +0.112 C 
ENDBRANCH  31  34
ENDBRANCH  24  28
ENDBRANCH  17  21
BRANCH  13  12
ATOM     10  C   UNL     1      -1.478  -9.212  11.421  0.00  0.00    +0.265 C 
ATOM     11  O   UNL     1      -1.871  -9.398  12.122  0.00  0.00    -0.268 OA
ATOM     12  N   UNL     1      -1.847  -9.341  10.694  0.00  0.00    -0.198 NA
BRANCH  10   7
ATOM      4  C   UNL     1       0.809  -8.269  11.497  0.00  0.00    +0.048 A 
ATOM      5  C   UNL     1       0.641  -8.904  10.998  0.00  0.00    +0.015 A 
ATOM      6  C   UNL     1      -0.121  -9.218  10.973  0.00  0.00    +0.006 A 
ATOM      7  C   UNL     1      -0.716  -8.898  11.446  0.00  0.00    +0.055 A 
ATOM      8  C   UNL     1      -0.548  -8.263  11.945  0.00  0.00    +0.006 A 
ATOM      9  C   UNL     1       0.214  -7.948  11.970  0.00  0.00    +0.015 A 
BRANCH   4   2
ATOM      1  C   UNL     1       2.137  -8.198  10.974  0.00  0.00    +0.112 C 
ATOM      2  N   UNL     1       1.571  -7.954  11.522  0.00  0.00    -0.304 N 
ATOM      3  C   UNL     1       1.768  -7.395  12.096  0.00  0.00    +0.112 C 
ENDBRANCH   4   2
ENDBRANCH  10   7
ENDBRANCH  13  12
TORSDOF 6
ENDMDL
MODEL 4
REMARK VINA RESULT:      -2.3     14.946     17.557
REMARK  Name = 
REMARK  6 active torsions:
REMARK  status: ('A' for Active; 'I' for Inactive)
REMARK    1  A    between atoms: N_2  and  C_4
REMARK    2  A    between atoms: C_7  and  C_10
REMARK    3  A    between atoms: N_12  and  C_13
REMARK    4  A    between atoms: C_17  and  N_21
REMARK    5  A    between atoms: C_24  and  C_28
REMARK    6  A    between atoms: C_31  and  N_34
REMARK                            x       y       z     vdW  Elec       q    Type
REMARK                         _______ _______ _______ _____ _____    ______ ____
ROOT
ATOM     13  C   UNL     1      -3.443 -10.318  12.574  0.00  0.00    +0.155 C 
ATOM     14  C   UNL     1      -4.108 -10.329  12.086  0.00  0.00    +0.166 C 
ATOM     15  O   UNL     1      -4.770 -10.461  12.560  0.00  0.00    -0.350 OA
ATOM     16  C   UNL     1      -4.515 -10.532  13.341  0.00  0.00    +0.166 C 
ATOM     17  C   UNL     1      -4.765 -10.657  14.117  0.00  0.00    +0.154 C 
ATOM     18  C   UNL     1      -4.100 -10.646  14.605  0.00  0.00    +0.166 C 
ATOM     19  O   UNL     1      -3.438 -10.514  14.131  0.00  0.00    -0.350 OA
ATOM     20  C   UNL     1      -3.694 -10.443  13.349  0.00  0.00    +0.166 C 
ENDROOT
BRANCH  17  21
ATOM     21  N   UNL     1      -5.544 -10.774  14.362  0.00  0.00    -0.200 NA
ATOM     22  C   UNL     1      -5.848 -10.338  14.994  0.00  0.00    +0.237 A 
ATOM     23  N   UNL     1      -6.627 -10.454  15.239  0.00  0.00    -0.212 NA
ATOM     24  C   UNL     1      -6.930 -10.019  15.871  0.00  0.00    +0.086 A 
ATOM     25  C   UNL     1      -6.454  -9.468  16.258  0.00  0.00    +0.040 A 
ATOM     26  C   UNL     1      -5.674  -9.351  16.013  0.00  0.00    +0.103 A 
ATOM     27  N   UNL     1      -5.372  -9.787  15.381  0.00  0.00    -0.211 NA
BRANCH  24  28
ATOM     28  C   UNL     1      -7.709 -10.135  16.115  0.00  0.00    +0.018 A 
ATOM     29  C   UNL     1      -8.331 -10.015  15.584  0.00  0.00    +0.003 A 
ATOM     30  C   UNL     1      -9.109 -10.131  15.829  0.00  0.00    +0.015 A 
ATOM     31  C   UNL     1      -9.268 -10.366  16.604  0.00  0.00    +0.048 A 
ATOM     32  C   UNL     1      -8.647 -10.486  17.134  0.00  0.00    +0.015 A 
ATOM     33  C   UNL     1      -7.868 -10.370  16.889  0.00  0.00    +0.003 A 
BRANCH  31  34
ATOM     34  N   UNL     1     -10.047 -10.482  16.849  0.00  0.00    -0.304 N 
ATOM     35  C   UNL     1     -10.670 -10.321  16.332  0.00  0.00    +0.112 C 
ATOM     36  C   UNL     1     -10.204 -10.759  17.610  0.00  0.00    +0.112 C 
ENDBRANCH  31  34
ENDBRANCH  24  28
ENDBRANCH  17  21
BRANCH  13  12
ATOM     10  C   UNL     1      -2.495  -9.656  11.734  0.00  0.00    +0.265 C 
ATOM     11  O   UNL     1      -3.107  -9.226  11.384  0.00  0.00    -0.268 OA
ATOM     12  N   UNL     1      -2.664 -10.202  12.329  0.00  0.00    -0.198 NA
BRANCH  10   7
ATOM      4  C   UNL     1      -0.158  -9.307  11.000  0.00  0.00    +0.048 A 
ATOM      5  C   UNL     1      -0.757  -8.815  10.717  0.00  0.00    +0.015 A 
ATOM      6  C   UNL     1      -1.535  -8.931  10.962  0.00  0.00    +0.006 A 
ATOM      7  C   UNL     1      -1.716  -9.540  11.489  0.00  0.00    +0.055 A 
ATOM      8  C   UNL     1      -1.118 -10.032  11.772  0.00  0.00    +0.006 A 
ATOM      9  C   UNL     1      -0.338  -9.916  11.527  0.00  0.00    +0.015 A 
BRANCH   4   2
ATOM      1  C   UNL     1       0.930  -8.427  10.708  0.00  0.00    +0.112 C 
ATOM      2  N   UNL     1       0.622  -9.191  10.755  0.00  0.00    -0.304 N 
ATOM      3  C   UNL     1       1.093  -9.839  10.557  0.00  0.00    +0.112 C 
ENDBRANCH   4   2
ENDBRANCH  10   7
ENDBRANCH  13  12
TORSDOF 6
ENDMDL
