MODEL 1
REMARK VINA RESULT:      -9.2      0.000      0.000
REMARK  Name = 
REMARK  5 active torsions:
REMARK  status: ('A' for Active; 'I' for Inactive)
REMARK    1  A    between atoms: O_2  and  C_3
REMARK    2  A    between atoms: C_6  and  C_11
REMARK    3  A    between atoms: C_8  and  O_9
REMARK    4  A    between atoms: C_16  and  C_18
REMARK    5  A    between atoms: C_21  and  C_23
REMARK                            x       y       z     vdW  Elec       q    Type
REMARK                         _______ _______ _______ _____ _____    ______ ____
ROOT
ATOM     11  C   UNL     1      -3.040   1.995  23.878  0.00  0.00    +0.249 C 
ATOM     12  O   UNL     1      -2.990   2.330  23.125  0.00  0.00    -0.270 OA
ATOM     13  N   UNL     1      -2.460   1.466  24.133  0.00  0.00    -0.276 N 
ATOM     14  C   UNL     1      -2.438   1.090  24.866  0.00  0.00    +0.094 C 
ATOM     15  C   UNL     1      -1.765   0.611  24.886  0.00  0.00    +0.033 C 
ATOM     16  C   UNL     1      -1.374   0.693  24.165  0.00  0.00    +0.100 C 
ATOM     17  C   UNL     1      -1.804   1.221  23.699  0.00  0.00    +0.103 C 
ENDROOT
BRANCH  11   6
ATOM      3  C   UNL     1      -4.928   2.578  25.369  0.00  0.00    +0.172 A 
ATOM      4  C   UNL     1      -4.960   1.892  24.911  0.00  0.00    +0.040 A 
ATOM      5  C   UNL     1      -4.330   1.698  24.414  0.00  0.00    +0.008 A 
ATOM      6  C   UNL     1      -3.669   2.190  24.375  0.00  0.00    +0.057 A 
ATOM      7  C   UNL     1      -3.637   2.875  24.833  0.00  0.00    +0.045 A 
ATOM      8  C   UNL     1      -4.266   3.069  25.330  0.00  0.00    +0.173 A 
BRANCH   3   2
ATOM      1  C   UNL     1      -6.196   2.255  25.943  0.00  0.00    +0.253 C 
ATOM      2  O   UNL     1      -5.556   2.772  25.866  0.00  0.00    -0.468 OA
ENDBRANCH   3   2
BRANCH   8   9
ATOM      9  O   UNL     1      -4.233   3.755  25.788  0.00  0.00    -0.468 OA
ATOM     10  C   UNL     1      -3.503   4.076  25.999  0.00  0.00    +0.253 C 
ENDBRANCH   8   9
ENDBRANCH  11   6
BRANCH  16  18
ATOM     18  C   UNL     1      -0.675   0.313  23.947  0.00  0.00    +0.228 A 
ATOM     19  N   UNL     1      -0.514  -0.492  24.032  0.00  0.00    -0.111 NA
ATOM     20  N   UNL     1       0.246  -0.632  23.743  0.00  0.00    -0.107 NA
ATOM     21  C   UNL     1       0.555   0.086  23.480  0.00  0.00    +0.250 A 
ATOM     22  O   UNL     1      -0.014   0.670  23.606  0.00  0.00    -0.419 OA
BRANCH  21  23
ATOM     23  C   UNL     1       1.303   0.201  23.149  0.00  0.00    +0.055 A 
ATOM     24  C   UNL     1       1.526  -0.225  22.478  0.00  0.00    +0.006 A 
ATOM     25  C   UNL     1       2.273  -0.111  22.147  0.00  0.00    +0.012 A 
ATOM     26  C   UNL     1       2.796   0.429  22.486  0.00  0.00    +0.058 A 
ATOM     27 CL   UNL     1       3.543   0.544  22.155  0.00  0.00    -0.082 Cl
ATOM     28  C   UNL     1       2.572   0.855  23.157  0.00  0.00    +0.012 A 
ATOM     29  C   UNL     1       1.826   0.741  23.488  0.00  0.00    +0.006 A 
ENDBRANCH  21  23
ENDBRANCH  16  18
TORSDOF 5
ENDMDL
MODEL 2
REMARK VINA RESULT:      -8.9      3.219      4.396
REMARK  Name = 
REMARK  5 active torsions:
REMARK  status: ('A' for Active; 'I' for Inactive)
REMARK    1  A    between atoms: O_2  and  C_3
REMARK    2  A    between atoms: C_6  and  C_11
REMARK    3  A    between atoms: C_8  and  O_9
REMARK    4  A    between atoms: C_16  and  C_18
REMARK    5  A    between atoms: C_21  and  C_23
REMARK                            x       y       z     vdW  Elec       q    Type
REMARK                         _______ _______ _______ _____ _____    ______ ____
ROOT
ATOM     11  C   UNL     1      -1.008   2.449  25.765  0.00  0.00    +0.249 C 
ATOM     12  O   UNL     1      -0.542   2.227  26.408  0.00  0.00    -0.270 OA
ATOM     13  N   UNL     1      -1.362   1.872  25.293  0.00  0.00    -0.276 N 
ATOM     14  C   UNL     1      -1.839   2.010  24.635  0.00  0.00    +0.094 C 
ATOM     15  C   UNL     1      -2.073   1.279  24.331  0.00  0.00    +0.033 C 
ATOM     16  C   UNL     1      -1.739   0.690  24.802  0.00  0.00    +0.100 C 
ATOM     17  C   UNL     1      -1.299   1.057  25.397  0.00  0.00    +0.103 C 
ENDROOT
BRANCH  11   6
ATOM      3  C   UNL     1      -1.345   4.847  25.249  0.00  0.00    +0.172 A 
ATOM      4  C   UNL     1      -0.666   4.459  24.985  0.00  0.00    +0.040 A 
ATOM      5  C   UNL     1      -0.553   3.660  25.157  0.00  0.00    +0.008 A 
ATOM      6  C   UNL     1      -1.120   3.249  25.593  0.00  0.00    +0.057 A 
ATOM      7  C   UNL     1      -1.799   3.636  25.856  0.00  0.00    +0.045 A 
ATOM      8  C   UNL     1      -1.911   4.434  25.685  0.00  0.00    +0.173 A 
BRANCH   3   2
ATOM      1  C   UNL     1      -0.915   6.044  24.597  0.00  0.00    +0.253 C 
ATOM      2  O   UNL     1      -1.456   5.645  25.077  0.00  0.00    -0.468 OA
ENDBRANCH   3   2
BRANCH   8   9
ATOM      9  O   UNL     1      -2.591   4.822  25.949  0.00  0.00    -0.468 OA
ATOM     10  C   UNL     1      -3.187   4.396  26.328  0.00  0.00    +0.253 C 
ENDBRANCH   8   9
ENDBRANCH  11   6
BRANCH  16  18
ATOM     18  C   UNL     1      -1.828  -0.123  24.697  0.00  0.00    +0.228 A 
ATOM     19  N   UNL     1      -1.221  -0.683  24.701  0.00  0.00    -0.111 NA
ATOM     20  N   UNL     1      -1.558  -1.425  24.576  0.00  0.00    -0.107 NA
ATOM     21  C   UNL     1      -2.373  -1.326  24.496  0.00  0.00    +0.250 A 
ATOM     22  O   UNL     1      -2.540  -0.521  24.571  0.00  0.00    -0.419 OA
BRANCH  21  23
ATOM     23  C   UNL     1      -2.925  -1.925  24.364  0.00  0.00    +0.055 A 
ATOM     24  C   UNL     1      -2.783  -2.686  24.652  0.00  0.00    +0.006 A 
ATOM     25  C   UNL     1      -3.335  -3.285  24.520  0.00  0.00    +0.012 A 
ATOM     26  C   UNL     1      -4.027  -3.124  24.101  0.00  0.00    +0.058 A 
ATOM     27 CL   UNL     1      -4.578  -3.723  23.970  0.00  0.00    -0.082 Cl
ATOM     28  C   UNL     1      -4.168  -2.363  23.814  0.00  0.00    +0.012 A 
ATOM     29  C   UNL     1      -3.617  -1.764  23.946  0.00  0.00    +0.006 A 
ENDBRANCH  21  23
ENDBRANCH  16  18
TORSDOF 5
ENDMDL
MODEL 3
REMARK VINA RESULT:      -8.8      3.309      5.059
REMARK  Name = 
REMARK  5 active torsions:
REMARK  status: ('A' for Active; 'I' for Inactive)
REMARK    1  A    between atoms: O_2  and  C_3
REMARK    2  A    between atoms: C_6  and  C_11
REMARK    3  A    between atoms: C_8  and  O_9
REMARK    4  A    between atoms: C_16  and  C_18
REMARK    5  A    between atoms: C_21  and  C_23
REMARK                            x       y       z     vdW  Elec       q    Type
REMARK                         _______ _______ _______ _____ _____    ______ ____
ROOT
ATOM     11  C   UNL     1      -3.727  -0.541  25.321  0.00  0.00    +0.249 C 
ATOM     12  O   UNL     1      -3.909  -0.563  26.125  0.00  0.00    -0.270 OA
ATOM     13  N   UNL     1      -3.530   0.175  24.961  0.00  0.00    -0.276 N 
ATOM     14  C   UNL     1      -3.337   0.279  24.166  0.00  0.00    +0.094 C 
ATOM     15  C   UNL     1      -3.180   1.081  24.046  0.00  0.00    +0.033 C 
ATOM     16  C   UNL     1      -3.277   1.470  24.767  0.00  0.00    +0.100 C 
ATOM     17  C   UNL     1      -3.494   0.909  25.332  0.00  0.00    +0.103 C 
ENDROOT
BRANCH  11   6
ATOM      3  C   UNL     1      -3.770  -2.627  23.988  0.00  0.00    +0.172 A 
ATOM      4  C   UNL     1      -4.419  -2.119  23.979  0.00  0.00    +0.040 A 
ATOM      5  C   UNL     1      -4.405  -1.423  24.423  0.00  0.00    +0.008 A 
ATOM      6  C   UNL     1      -3.741  -1.237  24.876  0.00  0.00    +0.057 A 
ATOM      7  C   UNL     1      -3.092  -1.746  24.886  0.00  0.00    +0.045 A 
ATOM      8  C   UNL     1      -3.106  -2.440  24.442  0.00  0.00    +0.173 A 
BRANCH   3   2
ATOM      1  C   UNL     1      -4.491  -3.578  23.202  0.00  0.00    +0.253 C 
ATOM      2  O   UNL     1      -3.784  -3.322  23.544  0.00  0.00    -0.468 OA
ENDBRANCH   3   2
BRANCH   8   9
ATOM      9  O   UNL     1      -2.456  -2.950  24.451  0.00  0.00    -0.468 OA
ATOM     10  C   UNL     1      -1.697  -2.647  24.564  0.00  0.00    +0.253 C 
ENDBRANCH   8   9
ENDBRANCH  11   6
BRANCH  16  18
ATOM     18  C   UNL     1      -3.175   2.278  24.899  0.00  0.00    +0.228 A 
ATOM     19  N   UNL     1      -3.759   2.806  25.147  0.00  0.00    -0.111 NA
ATOM     20  N   UNL     1      -3.417   3.554  25.209  0.00  0.00    -0.107 NA
ATOM     21  C   UNL     1      -2.622   3.488  24.999  0.00  0.00    +0.250 A 
ATOM     22  O   UNL     1      -2.472   2.700  24.807  0.00  0.00    -0.419 OA
BRANCH  21  23
ATOM     23  C   UNL     1      -2.072   4.104  24.982  0.00  0.00    +0.055 A 
ATOM     24  C   UNL     1      -2.325   4.884  25.070  0.00  0.00    +0.006 A 
ATOM     25  C   UNL     1      -1.775   5.500  25.054  0.00  0.00    +0.012 A 
ATOM     26  C   UNL     1      -0.973   5.334  24.950  0.00  0.00    +0.058 A 
ATOM     27 CL   UNL     1      -0.424   5.949  24.934  0.00  0.00    -0.082 Cl
ATOM     28  C   UNL     1      -0.721   4.553  24.863  0.00  0.00    +0.012 A 
ATOM     29  C   UNL     1      -1.270   3.938  24.879  0.00  0.00    +0.006 A 
ENDBRANCH  21  23
ENDBRANCH  16  18
TORSDOF 5
ENDMDL
MODEL 4
REMARK VINA RESULT:      -8.5      1.592      2.715
REMARK  Name = 
REMARK  5 active torsions:
REMARK  status: ('A' for Active; 'I' for Inactive)
REMARK    1  A    between atoms: O_2  and  C_3
REMARK    2  A    between atoms: C_6  and  C_11
REMARK    3  A    between atoms: C_8  and  O_9
REMARK    4  A    between atoms: C_16  and  C_18
REMARK    5  A    between atoms: C_21  and  C_23
REMARK                            x       y       z     vdW  Elec       q    Type
REMARK                         _______ _______ _______ _____ _____    ______ ____
ROOT
ATOM     11  C   UNL     1      -1.221  -0.147  24.640  0.00  0.00    +0.249 C 
ATOM     12  O   UNL     1      -0.993  -0.745  25.161  0.00  0.00    -0.270 OA
ATOM     13  N   UNL     1      -0.702   0.107  24.051  0.00  0.00    -0.276 N 
ATOM     14  C   UNL     1      -0.854   0.696  23.494  0.00  0.00    +0.094 C 
ATOM     15  C   UNL     1      -0.186   0.770  23.014  0.00  0.00    +0.033 C 
ATOM     16  C   UNL     1       0.377   0.226  23.275  0.00  0.00    +0.100 C 
ATOM     17  C   UNL     1       0.057  -0.184  23.916  0.00  0.00    +0.103 C 
ENDROOT
BRANCH  11   6
ATOM      3  C   UNL     1      -3.462   0.884  24.846  0.00  0.00    +0.172 A 
ATOM      4  C   UNL     1      -2.795   1.291  25.111  0.00  0.00    +0.040 A 
ATOM      5  C   UNL     1      -2.047   0.947  25.042  0.00  0.00    +0.008 A 
ATOM      6  C   UNL     1      -1.968   0.196  24.709  0.00  0.00    +0.057 A 
ATOM      7  C   UNL     1      -2.635  -0.210  24.444  0.00  0.00    +0.045 A 
ATOM      8  C   UNL     1      -3.381   0.133  24.513  0.00  0.00    +0.173 A 
BRANCH   3   2
ATOM      1  C   UNL     1      -4.277   2.036  25.072  0.00  0.00    +0.253 C 
ATOM      2  O   UNL     1      -4.208   1.228  24.915  0.00  0.00    -0.468 OA
ENDBRANCH   3   2
BRANCH   8   9
ATOM      9  O   UNL     1      -4.050  -0.274  24.248  0.00  0.00    -0.468 OA
ATOM     10  C   UNL     1      -4.009  -1.086  24.109  0.00  0.00    +0.253 C 
ENDBRANCH   8   9
ENDBRANCH  11   6
BRANCH  16  18
ATOM     18  C   UNL     1       1.127   0.112  22.952  0.00  0.00    +0.228 A 
ATOM     19  N   UNL     1       1.291  -0.179  22.197  0.00  0.00    -0.111 NA
ATOM     20  N   UNL     1       2.110  -0.203  22.105  0.00  0.00    -0.107 NA
ATOM     21  C   UNL     1       2.453   0.074  22.803  0.00  0.00    +0.250 A 
ATOM     22  O   UNL     1       1.845   0.269  23.326  0.00  0.00    -0.419 OA
BRANCH  21  23
ATOM     23  C   UNL     1       3.262   0.145  22.951  0.00  0.00    +0.055 A 
ATOM     24  C   UNL     1       3.674  -0.482  23.295  0.00  0.00    +0.006 A 
ATOM     25  C   UNL     1       4.483  -0.412  23.443  0.00  0.00    +0.012 A 
ATOM     26  C   UNL     1       4.879   0.285  23.248  0.00  0.00    +0.058 A 
ATOM     27 CL   UNL     1       5.687   0.355  23.397  0.00  0.00    -0.082 Cl
ATOM     28  C   UNL     1       4.466   0.911  22.905  0.00  0.00    +0.012 A 
ATOM     29  C   UNL     1       3.658   0.841  22.756  0.00  0.00    +0.006 A 
ENDBRANCH  21  23
ENDBRANCH  16  18
TORSDOF 5
ENDMDL
MODEL 5
REMARK VINA RESULT:      -7.6      2.337      6.419
REMARK  Name = 
REMARK  5 active torsions:
REMARK  status: ('A' for Active; 'I' for Inactive)
REMARK    1  A    between atoms: O_2  and  C_3
REMARK    2  A    between atoms: C_6  and  C_11
REMARK    3  A    between atoms: C_8  and  O_9
REMARK    4  A    between atoms: C_16  and  C_18
REMARK    5  A    between atoms: C_21  and  C_23
REMARK                            x       y       z     vdW  Elec       q    Type
REMARK                         _______ _______ _______ _____ _____    ______ ____
ROOT
ATOM     11  C   UNL     1       0.097   0.259  23.857  0.00  0.00    +0.249 C 
ATOM     12  O   UNL     1      -0.189  -0.461  24.141  0.00  0.00    -0.270 OA
ATOM     13  N   UNL     1      -0.342   0.949  23.964  0.00  0.00    -0.276 N 
ATOM     14  C   UNL     1      -0.127   1.704  23.711  0.00  0.00    +0.094 C 
ATOM     15  C   UNL     1      -0.725   2.227  23.933  0.00  0.00    +0.033 C 
ATOM     16  C   UNL     1      -1.310   1.794  24.323  0.00  0.00    +0.100 C 
ATOM     17  C   UNL     1      -1.073   1.004  24.342  0.00  0.00    +0.103 C 
ENDROOT
BRANCH  11   6
ATOM      3  C   UNL     1       2.276   0.346  22.684  0.00  0.00    +0.172 A 
ATOM      4  C   UNL     1       2.194   0.690  23.430  0.00  0.00    +0.040 A 
ATOM      5  C   UNL     1       1.468   0.661  23.821  0.00  0.00    +0.008 A 
ATOM      6  C   UNL     1       0.824   0.288  23.466  0.00  0.00    +0.057 A 
ATOM      7  C   UNL     1       0.905  -0.056  22.720  0.00  0.00    +0.045 A 
ATOM      8  C   UNL     1       1.630  -0.026  22.330  0.00  0.00    +0.173 A 
BRANCH   3   2
ATOM      1  C   UNL     1       3.649   0.740  22.653  0.00  0.00    +0.253 C 
ATOM      2  O   UNL     1       3.001   0.376  22.294  0.00  0.00    -0.468 OA
ENDBRANCH   3   2
BRANCH   8   9
ATOM      9  O   UNL     1       1.711  -0.370  21.583  0.00  0.00    -0.468 OA
ATOM     10  C   UNL     1       1.064  -0.735  21.225  0.00  0.00    +0.253 C 
ENDBRANCH   8   9
ENDBRANCH  11   6
BRANCH  16  18
ATOM     18  C   UNL     1      -2.009   2.098  24.638  0.00  0.00    +0.228 A 
ATOM     19  N   UNL     1      -2.073   2.762  25.125  0.00  0.00    -0.111 NA
ATOM     20  N   UNL     1      -2.870   2.866  25.310  0.00  0.00    -0.107 NA
ATOM     21  C   UNL     1      -3.299   2.267  24.938  0.00  0.00    +0.250 A 
ATOM     22  O   UNL     1      -2.766   1.792  24.523  0.00  0.00    -0.419 OA
BRANCH  21  23
ATOM     23  C   UNL     1      -4.116   2.161  24.975  0.00  0.00    +0.055 A 
ATOM     24  C   UNL     1      -4.611   2.810  25.095  0.00  0.00    +0.006 A 
ATOM     25  C   UNL     1      -5.429   2.704  25.132  0.00  0.00    +0.012 A 
ATOM     26  C   UNL     1      -5.751   1.949  25.048  0.00  0.00    +0.058 A 
ATOM     27 CL   UNL     1      -6.568   1.844  25.085  0.00  0.00    -0.082 Cl
ATOM     28  C   UNL     1      -5.255   1.301  24.928  0.00  0.00    +0.012 A 
ATOM     29  C   UNL     1      -4.439   1.406  24.891  0.00  0.00    +0.006 A 
ENDBRANCH  21  23
ENDBRANCH  16  18
TORSDOF 5
ENDMDL
