MODEL 1
REMARK VINA RESULT:     -12.0      0.000      0.000
REMARK  Name = 
REMARK  5 active torsions:
REMARK  status: ('A' for Active; 'I' for Inactive)
REMARK    1  A    between atoms: C_4  and  N_18
REMARK    2  A    between atoms: C_6  and  C_7
REMARK    3  A    between atoms: C_9  and  C_12
REMARK    4  A    between atoms: N_21  and  C_22
REMARK    5  A    between atoms: C_24  and  C_28
REMARK                            x       y       z     vdW  Elec       q    Type
REMARK                         _______ _______ _______ _____ _____    ______ ____
ROOT
ATOM      1  C   UNL     1       0.183  -0.326  23.396  0.00  0.00    +0.090 C 
ATOM      2  N   UNL     1      -0.065   0.132  24.036  0.00  0.00    -0.264 NA
ATOM      3  C   UNL     1       0.220   0.881  24.235  0.00  0.00    +0.094 C 
ATOM      4  C   UNL     1      -0.180   1.134  24.910  0.00  0.00    +0.115 C 
ATOM      5  C   UNL     1      -0.712   0.542  25.128  0.00  0.00    +0.049 C 
ATOM      6  C   UNL     1      -0.641  -0.076  24.588  0.00  0.00    +0.139 C 
ENDROOT
BRANCH   6   7
ATOM      7  C   UNL     1      -1.071  -0.781  24.597  0.00  0.00    +0.251 A 
ATOM      8  N   UNL     1      -1.869  -0.865  24.405  0.00  0.00    -0.188 NA
ATOM      9  C   UNL     1      -2.069  -1.661  24.490  0.00  0.00    +0.223 A 
ATOM     10  N   UNL     1      -1.394  -2.069  24.734  0.00  0.00    -0.054 NA
ATOM     11  O   UNL     1      -0.777  -1.525  24.800  0.00  0.00    -0.336 OA
BRANCH   9  12
ATOM     12  C   UNL     1      -2.812  -1.991  24.354  0.00  0.00    +0.139 A 
ATOM     13  C   UNL     1      -2.951  -2.785  24.531  0.00  0.00    +0.121 A 
ATOM     14  N   UNL     1      -3.694  -3.113  24.395  0.00  0.00    -0.239 NA
ATOM     15  C   UNL     1      -4.301  -2.649  24.082  0.00  0.00    +0.120 A 
ATOM     16  C   UNL     1      -4.163  -1.855  23.906  0.00  0.00    +0.120 A 
ATOM     17  N   UNL     1      -3.418  -1.526  24.042  0.00  0.00    -0.237 NA
ENDBRANCH   9  12
ENDBRANCH   6   7
BRANCH   4  18
ATOM     18  N   UNL     1      -0.068   1.853  25.300  0.00  0.00    -0.187 NA
ATOM     19  C   UNL     1      -0.607   2.468  25.193  0.00  0.00    +0.343 C 
ATOM     20  O   UNL     1      -1.259   2.365  24.698  0.00  0.00    -0.249 OA
ATOM     21  N   UNL     1      -0.495   3.187  25.583  0.00  0.00    -0.161 NA
BRANCH  21  22
ATOM     22  C   UNL     1      -1.035   3.801  25.477  0.00  0.00    +0.075 A 
ATOM     23  C   UNL     1      -1.795   3.742  25.792  0.00  0.00    +0.021 A 
ATOM     24  C   UNL     1      -2.335   4.356  25.686  0.00  0.00    +0.073 A 
ATOM     25  C   UNL     1      -2.115   5.031  25.264  0.00  0.00    +0.004 A 
ATOM     26  C   UNL     1      -1.355   5.090  24.948  0.00  0.00    +0.001 A 
ATOM     27  C   UNL     1      -0.815   4.475  25.055  0.00  0.00    +0.017 A 
BRANCH  24  28
ATOM     28  C   UNL     1      -3.095   4.297  26.002  0.00  0.00    +0.419 C 
ATOM     29  F   UNL     1      -3.854   4.238  26.318  0.00  0.00    -0.166 F 
ATOM     30  F   UNL     1      -3.409   4.264  25.239  0.00  0.00    -0.166 F 
ATOM     31  F   UNL     1      -2.781   4.329  26.764  0.00  0.00    -0.166 F 
ENDBRANCH  24  28
ENDBRANCH  21  22
ENDBRANCH   4  18
TORSDOF 5
ENDMDL
MODEL 2
REMARK VINA RESULT:     -11.6      2.955      6.339
REMARK  Name = 
REMARK  5 active torsions:
REMARK  status: ('A' for Active; 'I' for Inactive)
REMARK    1  A    between atoms: C_4  and  N_18
REMARK    2  A    between atoms: C_6  and  C_7
REMARK    3  A    between atoms: C_9  and  C_12
REMARK    4  A    between atoms: N_21  and  C_22
REMARK    5  A    between atoms: C_24  and  C_28
REMARK                            x       y       z     vdW  Elec       q    Type
REMARK                         _______ _______ _______ _____ _____    ______ ____
ROOT
ATOM      1  C   UNL     1      -5.423   2.690  25.731  0.00  0.00    +0.090 C 
ATOM      2  N   UNL     1      -4.936   2.187  25.295  0.00  0.00    -0.264 NA
ATOM      3  C   UNL     1      -5.161   1.471  24.951  0.00  0.00    +0.094 C 
ATOM      4  C   UNL     1      -4.503   1.153  24.570  0.00  0.00    +0.115 C 
ATOM      5  C   UNL     1      -3.871   1.672  24.677  0.00  0.00    +0.049 C 
ATOM      6  C   UNL     1      -4.138   2.311  25.125  0.00  0.00    +0.139 C 
ENDROOT
BRANCH   6   7
ATOM      7  C   UNL     1      -3.687   2.960  25.362  0.00  0.00    +0.251 A 
ATOM      8  N   UNL     1      -2.987   3.218  25.011  0.00  0.00    -0.188 NA
ATOM      9  C   UNL     1      -2.724   3.883  25.424  0.00  0.00    +0.223 A 
ATOM     10  N   UNL     1      -3.263   4.035  26.030  0.00  0.00    -0.054 NA
ATOM     11  O   UNL     1      -3.858   3.465  25.992  0.00  0.00    -0.336 OA
BRANCH   9  12
ATOM     12  C   UNL     1      -2.044   4.318  25.259  0.00  0.00    +0.139 A 
ATOM     13  C   UNL     1      -2.074   5.142  25.244  0.00  0.00    +0.121 A 
ATOM     14  N   UNL     1      -1.393   5.576  25.079  0.00  0.00    -0.239 NA
ATOM     15  C   UNL     1      -0.680   5.187  24.929  0.00  0.00    +0.120 A 
ATOM     16  C   UNL     1      -0.650   4.363  24.945  0.00  0.00    +0.120 A 
ATOM     17  N   UNL     1      -1.332   3.929  25.110  0.00  0.00    -0.237 NA
ENDBRANCH   9  12
ENDBRANCH   6   7
BRANCH   4  18
ATOM     18  N   UNL     1      -4.480   0.441  24.154  0.00  0.00    -0.187 NA
ATOM     19  C   UNL     1      -4.073  -0.205  24.464  0.00  0.00    +0.343 C 
ATOM     20  O   UNL     1      -3.688  -0.141  25.191  0.00  0.00    -0.249 OA
ATOM     21  N   UNL     1      -4.050  -0.917  24.048  0.00  0.00    -0.161 NA
BRANCH  21  22
ATOM     22  C   UNL     1      -3.643  -1.563  24.359  0.00  0.00    +0.075 A 
ATOM     23  C   UNL     1      -2.825  -1.620  24.263  0.00  0.00    +0.021 A 
ATOM     24  C   UNL     1      -2.417  -2.265  24.573  0.00  0.00    +0.073 A 
ATOM     25  C   UNL     1      -2.825  -2.856  24.980  0.00  0.00    +0.004 A 
ATOM     26  C   UNL     1      -3.643  -2.799  25.076  0.00  0.00    +0.001 A 
ATOM     27  C   UNL     1      -4.051  -2.153  24.766  0.00  0.00    +0.017 A 
BRANCH  24  28
ATOM     28  C   UNL     1      -1.599  -2.322  24.477  0.00  0.00    +0.419 C 
ATOM     29  F   UNL     1      -0.782  -2.379  24.381  0.00  0.00    -0.166 F 
ATOM     30  F   UNL     1      -1.488  -1.976  25.219  0.00  0.00    -0.166 F 
ATOM     31  F   UNL     1      -1.710  -2.667  23.737  0.00  0.00    -0.166 F 
ENDBRANCH  24  28
ENDBRANCH  21  22
ENDBRANCH   4  18
TORSDOF 5
ENDMDL
MODEL 3
REMARK VINA RESULT:     -11.3      2.416      5.643
REMARK  Name = 
REMARK  5 active torsions:
REMARK  status: ('A' for Active; 'I' for Inactive)
REMARK    1  A    between atoms: C_4  and  N_18
REMARK    2  A    between atoms: C_6  and  C_7
REMARK    3  A    between atoms: C_9  and  C_12
REMARK    4  A    between atoms: N_21  and  C_22
REMARK    5  A    between atoms: C_24  and  C_28
REMARK                            x       y       z     vdW  Elec       q    Type
REMARK                         _______ _______ _______ _____ _____    ______ ____
ROOT
ATOM      1  C   UNL     1       0.890   1.585  23.596  0.00  0.00    +0.090 C 
ATOM      2  N   UNL     1       0.397   1.068  24.008  0.00  0.00    -0.264 NA
ATOM      3  C   UNL     1       0.298   0.264  23.851  0.00  0.00    +0.094 C 
ATOM      4  C   UNL     1      -0.244  -0.037  24.394  0.00  0.00    +0.115 C 
ATOM      5  C   UNL     1      -0.480   0.581  24.887  0.00  0.00    +0.049 C 
ATOM      6  C   UNL     1      -0.084   1.263  24.648  0.00  0.00    +0.139 C 
ENDROOT
BRANCH   6   7
ATOM      7  C   UNL     1      -0.157   2.011  24.990  0.00  0.00    +0.251 A 
ATOM      8  N   UNL     1      -0.737   2.571  24.813  0.00  0.00    -0.188 NA
ATOM      9  C   UNL     1      -0.601   3.236  25.283  0.00  0.00    +0.223 A 
ATOM     10  N   UNL     1       0.064   3.087  25.749  0.00  0.00    -0.054 NA
ATOM     11  O   UNL     1       0.338   2.330  25.569  0.00  0.00    -0.336 OA
BRANCH   9  12
ATOM     12  C   UNL     1      -1.049   3.928  25.285  0.00  0.00    +0.139 A 
ATOM     13  C   UNL     1      -0.740   4.622  24.963  0.00  0.00    +0.121 A 
ATOM     14  N   UNL     1      -1.189   5.313  24.966  0.00  0.00    -0.239 NA
ATOM     15  C   UNL     1      -1.949   5.311  25.289  0.00  0.00    +0.120 A 
ATOM     16  C   UNL     1      -2.258   4.617  25.611  0.00  0.00    +0.120 A 
ATOM     17  N   UNL     1      -1.808   3.926  25.608  0.00  0.00    -0.237 NA
ENDBRANCH   9  12
ENDBRANCH   6   7
BRANCH   4  18
ATOM     18  N   UNL     1      -0.504  -0.819  24.438  0.00  0.00    -0.187 NA
ATOM     19  C   UNL     1      -1.295  -0.981  24.606  0.00  0.00    +0.343 C 
ATOM     20  O   UNL     1      -1.826  -0.363  24.730  0.00  0.00    -0.249 OA
ATOM     21  N   UNL     1      -1.555  -1.763  24.649  0.00  0.00    -0.161 NA
BRANCH  21  22
ATOM     22  C   UNL     1      -2.346  -1.926  24.817  0.00  0.00    +0.075 A 
ATOM     23  C   UNL     1      -2.861  -2.140  24.209  0.00  0.00    +0.021 A 
ATOM     24  C   UNL     1      -3.652  -2.302  24.376  0.00  0.00    +0.073 A 
ATOM     25  C   UNL     1      -3.929  -2.250  25.152  0.00  0.00    +0.004 A 
ATOM     26  C   UNL     1      -3.414  -2.036  25.760  0.00  0.00    +0.001 A 
ATOM     27  C   UNL     1      -2.623  -1.874  25.592  0.00  0.00    +0.017 A 
BRANCH  24  28
ATOM     28  C   UNL     1      -4.167  -2.517  23.767  0.00  0.00    +0.419 C 
ATOM     29  F   UNL     1      -4.682  -2.730  23.160  0.00  0.00    -0.166 F 
ATOM     30  F   UNL     1      -3.984  -3.312  23.893  0.00  0.00    -0.166 F 
ATOM     31  F   UNL     1      -4.350  -1.722  23.643  0.00  0.00    -0.166 F 
ENDBRANCH  24  28
ENDBRANCH  21  22
ENDBRANCH   4  18
TORSDOF 5
ENDMDL
MODEL 4
REMARK VINA RESULT:     -10.3      2.533      4.256
REMARK  Name = 
REMARK  5 active torsions:
REMARK  status: ('A' for Active; 'I' for Inactive)
REMARK    1  A    between atoms: C_4  and  N_18
REMARK    2  A    between atoms: C_6  and  C_7
REMARK    3  A    between atoms: C_9  and  C_12
REMARK    4  A    between atoms: N_21  and  C_22
REMARK    5  A    between atoms: C_24  and  C_28
REMARK                            x       y       z     vdW  Elec       q    Type
REMARK                         _______ _______ _______ _____ _____    ______ ____
ROOT
ATOM      1  C   UNL     1      -0.266  -1.078  24.253  0.00  0.00    +0.090 C 
ATOM      2  N   UNL     1      -0.390  -0.266  24.328  0.00  0.00    -0.264 NA
ATOM      3  C   UNL     1      -0.976   0.095  24.784  0.00  0.00    +0.094 C 
ATOM      4  C   UNL     1      -0.899   0.911  24.698  0.00  0.00    +0.115 C 
ATOM      5  C   UNL     1      -0.265   1.055  24.190  0.00  0.00    +0.049 C 
ATOM      6  C   UNL     1       0.049   0.328  23.961  0.00  0.00    +0.139 C 
ENDROOT
BRANCH   6   7
ATOM      7  C   UNL     1       0.690   0.214  23.454  0.00  0.00    +0.251 A 
ATOM      8  N   UNL     1       1.477   0.398  23.619  0.00  0.00    -0.188 NA
ATOM      9  C   UNL     1       1.930   0.194  22.960  0.00  0.00    +0.223 A 
ATOM     10  N   UNL     1       1.422  -0.116  22.388  0.00  0.00    -0.054 NA
ATOM     11  O   UNL     1       0.656  -0.104  22.693  0.00  0.00    -0.336 OA
BRANCH   9  12
ATOM     12  C   UNL     1       2.746   0.284  22.886  0.00  0.00    +0.139 A 
ATOM     13  C   UNL     1       3.244  -0.369  22.974  0.00  0.00    +0.121 A 
ATOM     14  N   UNL     1       4.059  -0.278  22.900  0.00  0.00    -0.239 NA
ATOM     15  C   UNL     1       4.380   0.466  22.739  0.00  0.00    +0.120 A 
ATOM     16  C   UNL     1       3.883   1.118  22.651  0.00  0.00    +0.120 A 
ATOM     17  N   UNL     1       3.066   1.027  22.725  0.00  0.00    -0.237 NA
ENDBRANCH   9  12
ENDBRANCH   6   7
BRANCH   4  18
ATOM     18  N   UNL     1      -1.372   1.484  25.058  0.00  0.00    -0.187 NA
ATOM     19  C   UNL     1      -2.099   1.685  24.726  0.00  0.00    +0.343 C 
ATOM     20  O   UNL     1      -2.355   1.315  24.035  0.00  0.00    -0.249 OA
ATOM     21  N   UNL     1      -2.572   2.258  25.086  0.00  0.00    -0.161 NA
BRANCH  21  22
ATOM     22  C   UNL     1      -3.300   2.459  24.754  0.00  0.00    +0.075 A 
ATOM     23  C   UNL     1      -3.999   2.174  25.088  0.00  0.00    +0.021 A 
ATOM     24  C   UNL     1      -4.726   2.375  24.757  0.00  0.00    +0.073 A 
ATOM     25  C   UNL     1      -4.757   2.861  24.090  0.00  0.00    +0.004 A 
ATOM     26  C   UNL     1      -4.058   3.146  23.756  0.00  0.00    +0.001 A 
ATOM     27  C   UNL     1      -3.330   2.945  24.088  0.00  0.00    +0.017 A 
BRANCH  24  28
ATOM     28  C   UNL     1      -5.425   2.089  25.091  0.00  0.00    +0.419 C 
ATOM     29  F   UNL     1      -6.123   1.805  25.425  0.00  0.00    -0.166 F 
ATOM     30  F   UNL     1      -5.426   1.463  24.554  0.00  0.00    -0.166 F 
ATOM     31  F   UNL     1      -5.424   2.716  25.627  0.00  0.00    -0.166 F 
ENDBRANCH  24  28
ENDBRANCH  21  22
ENDBRANCH   4  18
TORSDOF 5
ENDMDL
MODEL 5
REMARK VINA RESULT:     -10.3      2.265      4.174
REMARK  Name = 
REMARK  5 active torsions:
REMARK  status: ('A' for Active; 'I' for Inactive)
REMARK    1  A    between atoms: C_4  and  N_18
REMARK    2  A    between atoms: C_6  and  C_7
REMARK    3  A    between atoms: C_9  and  C_12
REMARK    4  A    between atoms: N_21  and  C_22
REMARK    5  A    between atoms: C_24  and  C_28
REMARK                            x       y       z     vdW  Elec       q    Type
REMARK                         _______ _______ _______ _____ _____    ______ ____
ROOT
ATOM      1  C   UNL     1       0.067  -0.923  24.237  0.00  0.00    +0.090 C 
ATOM      2  N   UNL     1      -0.217  -0.205  23.946  0.00  0.00    -0.264 NA
ATOM      3  C   UNL     1      -0.936   0.149  24.147  0.00  0.00    +0.094 C 
ATOM      4  C   UNL     1      -0.996   0.857  23.728  0.00  0.00    +0.115 C 
ATOM      5  C   UNL     1      -0.316   0.940  23.269  0.00  0.00    +0.049 C 
ATOM      6  C   UNL     1       0.165   0.284  23.404  0.00  0.00    +0.139 C 
ENDROOT
BRANCH   6   7
ATOM      7  C   UNL     1       0.900   0.142  23.056  0.00  0.00    +0.251 A 
ATOM      8  N   UNL     1       1.630   0.392  23.348  0.00  0.00    -0.188 NA
ATOM      9  C   UNL     1       2.216   0.129  22.829  0.00  0.00    +0.223 A 
ATOM     10  N   UNL     1       1.847  -0.283  22.216  0.00  0.00    -0.054 NA
ATOM     11  O   UNL     1       1.034  -0.275  22.357  0.00  0.00    -0.336 OA
BRANCH   9  12
ATOM     12  C   UNL     1       3.026   0.256  22.908  0.00  0.00    +0.139 A 
ATOM     13  C   UNL     1       3.344   1.003  22.757  0.00  0.00    +0.121 A 
ATOM     14  N   UNL     1       4.155   1.129  22.837  0.00  0.00    -0.239 NA
ATOM     15  C   UNL     1       4.650   0.509  23.068  0.00  0.00    +0.120 A 
ATOM     16  C   UNL     1       4.332  -0.237  23.219  0.00  0.00    +0.120 A 
ATOM     17  N   UNL     1       3.520  -0.363  23.139  0.00  0.00    -0.237 NA
ENDBRANCH   9  12
ENDBRANCH   6   7
BRANCH   4  18
ATOM     18  N   UNL     1      -1.627   1.388  23.762  0.00  0.00    -0.187 NA
ATOM     19  C   UNL     1      -1.613   2.008  24.306  0.00  0.00    +0.343 C 
ATOM     20  O   UNL     1      -0.971   2.098  24.815  0.00  0.00    -0.249 OA
ATOM     21  N   UNL     1      -2.244   2.540  24.340  0.00  0.00    -0.161 NA
BRANCH  21  22
ATOM     22  C   UNL     1      -2.230   3.160  24.883  0.00  0.00    +0.075 A 
ATOM     23  C   UNL     1      -1.816   3.852  24.709  0.00  0.00    +0.021 A 
ATOM     24  C   UNL     1      -1.802   4.473  25.252  0.00  0.00    +0.073 A 
ATOM     25  C   UNL     1      -2.203   4.403  25.970  0.00  0.00    +0.004 A 
ATOM     26  C   UNL     1      -2.618   3.710  26.144  0.00  0.00    +0.001 A 
ATOM     27  C   UNL     1      -2.631   3.090  25.601  0.00  0.00    +0.017 A 
BRANCH  24  28
ATOM     28  C   UNL     1      -1.387   5.165  25.077  0.00  0.00    +0.419 C 
ATOM     29  F   UNL     1      -0.972   5.856  24.904  0.00  0.00    -0.166 F 
ATOM     30  F   UNL     1      -2.061   5.479  24.719  0.00  0.00    -0.166 F 
ATOM     31  F   UNL     1      -0.714   4.850  25.435  0.00  0.00    -0.166 F 
ENDBRANCH  24  28
ENDBRANCH  21  22
ENDBRANCH   4  18
TORSDOF 5
ENDMDL
MODEL 6
REMARK VINA RESULT:     -10.1      2.402      3.400
REMARK  Name = 
REMARK  5 active torsions:
REMARK  status: ('A' for Active; 'I' for Inactive)
REMARK    1  A    between atoms: C_4  and  N_18
REMARK    2  A    between atoms: C_6  and  C_7
REMARK    3  A    between atoms: C_9  and  C_12
REMARK    4  A    between atoms: N_21  and  C_22
REMARK    5  A    between atoms: C_24  and  C_28
REMARK                            x       y       z     vdW  Elec       q    Type
REMARK                         _______ _______ _______ _____ _____    ______ ____
ROOT
ATOM      1  C   UNL     1      -6.202   1.846  24.978  0.00  0.00    +0.090 C 
ATOM      2  N   UNL     1      -5.435   2.068  25.186  0.00  0.00    -0.264 NA
ATOM      3  C   UNL     1      -5.209   2.799  25.496  0.00  0.00    +0.094 C 
ATOM      4  C   UNL     1      -4.395   2.781  25.622  0.00  0.00    +0.115 C 
ATOM      5  C   UNL     1      -4.117   2.040  25.390  0.00  0.00    +0.049 C 
ATOM      6  C   UNL     1      -4.759   1.600  25.120  0.00  0.00    +0.139 C 
ENDROOT
BRANCH   6   7
ATOM      7  C   UNL     1      -4.732   0.826  24.835  0.00  0.00    +0.251 A 
ATOM      8  N   UNL     1      -4.232   0.228  25.104  0.00  0.00    -0.188 NA
ATOM      9  C   UNL     1      -4.390  -0.454  24.665  0.00  0.00    +0.223 A 
ATOM     10  N   UNL     1      -4.989  -0.276  24.125  0.00  0.00    -0.054 NA
ATOM     11  O   UNL     1      -5.200   0.515  24.230  0.00  0.00    -0.336 OA
BRANCH   9  12
ATOM     12  C   UNL     1      -4.017  -1.183  24.752  0.00  0.00    +0.139 A 
ATOM     13  C   UNL     1      -3.991  -1.712  24.119  0.00  0.00    +0.121 A 
ATOM     14  N   UNL     1      -3.618  -2.442  24.206  0.00  0.00    -0.239 NA
ATOM     15  C   UNL     1      -3.269  -2.644  24.926  0.00  0.00    +0.120 A 
ATOM     16  C   UNL     1      -3.294  -2.115  25.559  0.00  0.00    +0.120 A 
ATOM     17  N   UNL     1      -3.668  -1.385  25.472  0.00  0.00    -0.237 NA
ENDBRANCH   9  12
ENDBRANCH   6   7
BRANCH   4  18
ATOM     18  N   UNL     1      -3.937   3.397  25.927  0.00  0.00    -0.187 NA
ATOM     19  C   UNL     1      -3.217   3.589  25.575  0.00  0.00    +0.343 C 
ATOM     20  O   UNL     1      -2.952   3.166  24.918  0.00  0.00    -0.249 OA
ATOM     21  N   UNL     1      -2.760   4.205  25.880  0.00  0.00    -0.161 NA
BRANCH  21  22
ATOM     22  C   UNL     1      -2.039   4.396  25.527  0.00  0.00    +0.075 A 
ATOM     23  C   UNL     1      -1.432   3.838  25.499  0.00  0.00    +0.021 A 
ATOM     24  C   UNL     1      -0.712   4.029  25.147  0.00  0.00    +0.073 A 
ATOM     25  C   UNL     1      -0.597   4.779  24.822  0.00  0.00    +0.004 A 
ATOM     26  C   UNL     1      -1.204   5.337  24.850  0.00  0.00    +0.001 A 
ATOM     27  C   UNL     1      -1.924   5.146  25.203  0.00  0.00    +0.017 A 
BRANCH  24  28
ATOM     28  C   UNL     1      -0.105   3.470  25.119  0.00  0.00    +0.419 C 
ATOM     29  F   UNL     1       0.502   2.912  25.091  0.00  0.00    -0.166 F 
ATOM     30  F   UNL     1      -0.039   3.500  25.942  0.00  0.00    -0.166 F 
ATOM     31  F   UNL     1      -0.171   3.440  24.298  0.00  0.00    -0.166 F 
ENDBRANCH  24  28
ENDBRANCH  21  22
ENDBRANCH   4  18
TORSDOF 5
ENDMDL
MODEL 7
REMARK VINA RESULT:     -10.1      3.014      5.371
REMARK  Name = 
REMARK  5 active torsions:
REMARK  status: ('A' for Active; 'I' for Inactive)
REMARK    1  A    between atoms: C_4  and  N_18
REMARK    2  A    between atoms: C_6  and  C_7
REMARK    3  A    between atoms: C_9  and  C_12
REMARK    4  A    between atoms: N_21  and  C_22
REMARK    5  A    between atoms: C_24  and  C_28
REMARK                            x       y       z     vdW  Elec       q    Type
REMARK                         _______ _______ _______ _____ _____    ______ ____
ROOT
ATOM      1  C   UNL     1      -0.904   3.775  24.965  0.00  0.00    +0.090 C 
ATOM      2  N   UNL     1      -1.080   3.026  24.669  0.00  0.00    -0.264 NA
ATOM      3  C   UNL     1      -0.533   2.435  24.486  0.00  0.00    +0.094 C 
ATOM      4  C   UNL     1      -0.949   1.780  24.208  0.00  0.00    +0.115 C 
ATOM      5  C   UNL     1      -1.753   1.965  24.219  0.00  0.00    +0.049 C 
ATOM      6  C   UNL     1      -1.834   2.734  24.504  0.00  0.00    +0.139 C 
ENDROOT
BRANCH   6   7
ATOM      7  C   UNL     1      -2.544   3.142  24.606  0.00  0.00    +0.251 A 
ATOM      8  N   UNL     1      -3.236   2.835  24.934  0.00  0.00    -0.188 NA
ATOM      9  C   UNL     1      -3.807   3.432  24.929  0.00  0.00    +0.223 A 
ATOM     10  N   UNL     1      -3.467   4.107  24.597  0.00  0.00    -0.054 NA
ATOM     11  O   UNL     1      -2.687   3.928  24.398  0.00  0.00    -0.336 OA
BRANCH   9  12
ATOM     12  C   UNL     1      -4.580   3.364  25.206  0.00  0.00    +0.139 A 
ATOM     13  C   UNL     1      -4.981   4.032  25.479  0.00  0.00    +0.121 A 
ATOM     14  N   UNL     1      -5.754   3.964  25.756  0.00  0.00    -0.239 NA
ATOM     15  C   UNL     1      -6.129   3.228  25.761  0.00  0.00    +0.120 A 
ATOM     16  C   UNL     1      -5.728   2.560  25.488  0.00  0.00    +0.120 A 
ATOM     17  N   UNL     1      -4.954   2.629  25.211  0.00  0.00    -0.237 NA
ENDBRANCH   9  12
ENDBRANCH   6   7
BRANCH   4  18
ATOM     18  N   UNL     1      -0.619   1.065  23.961  0.00  0.00    -0.187 NA
ATOM     19  C   UNL     1      -0.822   0.364  24.346  0.00  0.00    +0.343 C 
ATOM     20  O   UNL     1      -1.353   0.376  24.976  0.00  0.00    -0.249 OA
ATOM     21  N   UNL     1      -0.492  -0.352  24.099  0.00  0.00    -0.161 NA
BRANCH  21  22
ATOM     22  C   UNL     1      -0.694  -1.053  24.484  0.00  0.00    +0.075 A 
ATOM     23  C   UNL     1      -1.359  -1.478  24.242  0.00  0.00    +0.021 A 
ATOM     24  C   UNL     1      -1.562  -2.179  24.626  0.00  0.00    +0.073 A 
ATOM     25  C   UNL     1      -1.100  -2.456  25.252  0.00  0.00    +0.004 A 
ATOM     26  C   UNL     1      -0.436  -2.030  25.494  0.00  0.00    +0.001 A 
ATOM     27  C   UNL     1      -0.233  -1.329  25.109  0.00  0.00    +0.017 A 
BRANCH  24  28
ATOM     28  C   UNL     1      -2.227  -2.605  24.385  0.00  0.00    +0.419 C 
ATOM     29  F   UNL     1      -2.891  -3.030  24.144  0.00  0.00    -0.166 F 
ATOM     30  F   UNL     1      -1.784  -2.953  23.781  0.00  0.00    -0.166 F 
ATOM     31  F   UNL     1      -2.668  -2.256  24.988  0.00  0.00    -0.166 F 
ENDBRANCH  24  28
ENDBRANCH  21  22
ENDBRANCH   4  18
TORSDOF 5
ENDMDL
MODEL 8
REMARK VINA RESULT:     -10.1      3.158      5.596
REMARK  Name = 
REMARK  5 active torsions:
REMARK  status: ('A' for Active; 'I' for Inactive)
REMARK    1  A    between atoms: C_4  and  N_18
REMARK    2  A    between atoms: C_6  and  C_7
REMARK    3  A    between atoms: C_9  and  C_12
REMARK    4  A    between atoms: N_21  and  C_22
REMARK    5  A    between atoms: C_24  and  C_28
REMARK                            x       y       z     vdW  Elec       q    Type
REMARK                         _______ _______ _______ _____ _____    ______ ____
ROOT
ATOM      1  C   UNL     1       0.501   2.186  23.912  0.00  0.00    +0.090 C 
ATOM      2  N   UNL     1       0.156   1.481  24.166  0.00  0.00    -0.264 NA
ATOM      3  C   UNL     1      -0.502   1.413  24.660  0.00  0.00    +0.094 C 
ATOM      4  C   UNL     1      -0.655   0.611  24.771  0.00  0.00    +0.115 C 
ATOM      5  C   UNL     1      -0.092   0.182  24.347  0.00  0.00    +0.049 C 
ATOM      6  C   UNL     1       0.409   0.720  23.973  0.00  0.00    +0.139 C 
ENDROOT
BRANCH   6   7
ATOM      7  C   UNL     1       1.051   0.530  23.491  0.00  0.00    +0.251 A 
ATOM      8  N   UNL     1       1.847   0.647  23.675  0.00  0.00    -0.188 NA
ATOM      9  C   UNL     1       2.298   0.379  23.037  0.00  0.00    +0.223 A 
ATOM     10  N   UNL     1       1.780   0.097  22.459  0.00  0.00    -0.054 NA
ATOM     11  O   UNL     1       1.010   0.191  22.740  0.00  0.00    -0.336 OA
BRANCH   9  12
ATOM     12  C   UNL     1       3.121   0.391  22.987  0.00  0.00    +0.139 A 
ATOM     13  C   UNL     1       3.554  -0.296  23.135  0.00  0.00    +0.121 A 
ATOM     14  N   UNL     1       4.376  -0.283  23.084  0.00  0.00    -0.239 NA
ATOM     15  C   UNL     1       4.768   0.417  22.886  0.00  0.00    +0.120 A 
ATOM     16  C   UNL     1       4.335   1.103  22.738  0.00  0.00    +0.120 A 
ATOM     17  N   UNL     1       3.511   1.090  22.789  0.00  0.00    -0.237 NA
ENDBRANCH   9  12
ENDBRANCH   6   7
BRANCH   4  18
ATOM     18  N   UNL     1      -1.265   0.292  25.227  0.00  0.00    -0.187 NA
ATOM     19  C   UNL     1      -1.917  -0.053  24.859  0.00  0.00    +0.343 C 
ATOM     20  O   UNL     1      -1.961  -0.081  24.036  0.00  0.00    -0.249 OA
ATOM     21  N   UNL     1      -2.527  -0.372  25.314  0.00  0.00    -0.161 NA
BRANCH  21  22
ATOM     22  C   UNL     1      -3.179  -0.718  24.946  0.00  0.00    +0.075 A 
ATOM     23  C   UNL     1      -3.201  -1.535  24.828  0.00  0.00    +0.021 A 
ATOM     24  C   UNL     1      -3.852  -1.881  24.460  0.00  0.00    +0.073 A 
ATOM     25  C   UNL     1      -4.483  -1.411  24.210  0.00  0.00    +0.004 A 
ATOM     26  C   UNL     1      -4.461  -0.594  24.328  0.00  0.00    +0.001 A 
ATOM     27  C   UNL     1      -3.809  -0.249  24.696  0.00  0.00    +0.017 A 
BRANCH  24  28
ATOM     28  C   UNL     1      -3.874  -2.697  24.342  0.00  0.00    +0.419 C 
ATOM     29  F   UNL     1      -3.896  -3.513  24.225  0.00  0.00    -0.166 F 
ATOM     30  F   UNL     1      -3.987  -2.577  23.533  0.00  0.00    -0.166 F 
ATOM     31  F   UNL     1      -3.762  -2.817  25.150  0.00  0.00    -0.166 F 
ENDBRANCH  24  28
ENDBRANCH  21  22
ENDBRANCH   4  18
TORSDOF 5
ENDMDL
MODEL 9
REMARK VINA RESULT:     -10.0      2.197      3.032
REMARK  Name = 
REMARK  5 active torsions:
REMARK  status: ('A' for Active; 'I' for Inactive)
REMARK    1  A    between atoms: C_4  and  N_18
REMARK    2  A    between atoms: C_6  and  C_7
REMARK    3  A    between atoms: C_9  and  C_12
REMARK    4  A    between atoms: N_21  and  C_22
REMARK    5  A    between atoms: C_24  and  C_28
REMARK                            x       y       z     vdW  Elec       q    Type
REMARK                         _______ _______ _______ _____ _____    ______ ____
ROOT
ATOM      1  C   UNL     1       0.268   2.264  24.484  0.00  0.00    +0.090 C 
ATOM      2  N   UNL     1      -0.533   2.246  24.291  0.00  0.00    -0.264 NA
ATOM      3  C   UNL     1      -1.035   2.899  24.237  0.00  0.00    +0.094 C 
ATOM      4  C   UNL     1      -1.785   2.627  24.031  0.00  0.00    +0.115 C 
ATOM      5  C   UNL     1      -1.748   1.807  23.957  0.00  0.00    +0.049 C 
ATOM      6  C   UNL     1      -0.975   1.571  24.117  0.00  0.00    +0.139 C 
ENDROOT
BRANCH   6   7
ATOM      7  C   UNL     1      -0.692   0.796  24.106  0.00  0.00    +0.251 A 
ATOM      8  N   UNL     1      -1.054   0.142  24.456  0.00  0.00    -0.188 NA
ATOM      9  C   UNL     1      -0.583  -0.519  24.310  0.00  0.00    +0.223 A 
ATOM     10  N   UNL     1       0.071  -0.274  23.870  0.00  0.00    -0.054 NA
ATOM     11  O   UNL     1       0.004   0.538  23.744  0.00  0.00    -0.336 OA
BRANCH   9  12
ATOM     12  C   UNL     1      -0.738  -1.290  24.559  0.00  0.00    +0.139 A 
ATOM     13  C   UNL     1      -0.274  -1.634  25.148  0.00  0.00    +0.121 A 
ATOM     14  N   UNL     1      -0.430  -2.404  25.397  0.00  0.00    -0.239 NA
ATOM     15  C   UNL     1      -1.050  -2.832  25.058  0.00  0.00    +0.120 A 
ATOM     16  C   UNL     1      -1.514  -2.487  24.469  0.00  0.00    +0.120 A 
ATOM     17  N   UNL     1      -1.357  -1.716  24.220  0.00  0.00    -0.237 NA
ENDBRANCH   9  12
ENDBRANCH   6   7
BRANCH   4  18
ATOM     18  N   UNL     1      -2.457   3.095  23.918  0.00  0.00    -0.187 NA
ATOM     19  C   UNL     1      -3.114   2.995  24.405  0.00  0.00    +0.343 C 
ATOM     20  O   UNL     1      -3.103   2.430  25.005  0.00  0.00    -0.249 OA
ATOM     21  N   UNL     1      -3.785   3.462  24.292  0.00  0.00    -0.161 NA
BRANCH  21  22
ATOM     22  C   UNL     1      -4.443   3.363  24.779  0.00  0.00    +0.075 A 
ATOM     23  C   UNL     1      -4.935   2.707  24.680  0.00  0.00    +0.021 A 
ATOM     24  C   UNL     1      -5.593   2.607  25.166  0.00  0.00    +0.073 A 
ATOM     25  C   UNL     1      -5.760   3.163  25.754  0.00  0.00    +0.004 A 
ATOM     26  C   UNL     1      -5.269   3.818  25.853  0.00  0.00    +0.001 A 
ATOM     27  C   UNL     1      -4.611   3.918  25.366  0.00  0.00    +0.017 A 
BRANCH  24  28
ATOM     28  C   UNL     1      -6.084   1.952  25.067  0.00  0.00    +0.419 C 
ATOM     29  F   UNL     1      -6.575   1.296  24.968  0.00  0.00    -0.166 F 
ATOM     30  F   UNL     1      -6.318   2.239  24.329  0.00  0.00    -0.166 F 
ATOM     31  F   UNL     1      -5.850   1.665  25.804  0.00  0.00    -0.166 F 
ENDBRANCH  24  28
ENDBRANCH  21  22
ENDBRANCH   4  18
TORSDOF 5
ENDMDL
MODEL 10
REMARK VINA RESULT:      -9.8      1.967      3.860
REMARK  Name = 
REMARK  5 active torsions:
REMARK  status: ('A' for Active; 'I' for Inactive)
REMARK    1  A    between atoms: C_4  and  N_18
REMARK    2  A    between atoms: C_6  and  C_7
REMARK    3  A    between atoms: C_9  and  C_12
REMARK    4  A    between atoms: N_21  and  C_22
REMARK    5  A    between atoms: C_24  and  C_28
REMARK                            x       y       z     vdW  Elec       q    Type
REMARK                         _______ _______ _______ _____ _____    ______ ____
ROOT
ATOM      1  C   UNL     1      -2.549  -2.328  24.989  0.00  0.00    +0.090 C 
ATOM      2  N   UNL     1      -2.852  -1.586  24.791  0.00  0.00    -0.264 NA
ATOM      3  C   UNL     1      -3.651  -1.381  24.762  0.00  0.00    +0.094 C 
ATOM      4  C   UNL     1      -3.702  -0.589  24.540  0.00  0.00    +0.115 C 
ATOM      5  C   UNL     1      -2.935  -0.304  24.432  0.00  0.00    +0.049 C 
ATOM      6  C   UNL     1      -2.410  -0.920  24.587  0.00  0.00    +0.139 C 
ENDROOT
BRANCH   6   7
ATOM      7  C   UNL     1      -1.587  -0.879  24.546  0.00  0.00    +0.251 A 
ATOM      8  N   UNL     1      -1.151  -0.427  24.011  0.00  0.00    -0.188 NA
ATOM      9  C   UNL     1      -0.349  -0.551  24.167  0.00  0.00    +0.223 A 
ATOM     10  N   UNL     1      -0.291  -1.079  24.798  0.00  0.00    -0.054 NA
ATOM     11  O   UNL     1      -1.056  -1.281  25.033  0.00  0.00    -0.336 OA
BRANCH   9  12
ATOM     12  C   UNL     1       0.281  -0.207  23.762  0.00  0.00    +0.139 A 
ATOM     13  C   UNL     1       0.506   0.569  23.931  0.00  0.00    +0.121 A 
ATOM     14  N   UNL     1       1.137   0.912  23.526  0.00  0.00    -0.239 NA
ATOM     15  C   UNL     1       1.544   0.480  22.952  0.00  0.00    +0.120 A 
ATOM     16  C   UNL     1       1.319  -0.295  22.784  0.00  0.00    +0.120 A 
ATOM     17  N   UNL     1       0.688  -0.639  23.189  0.00  0.00    -0.237 NA
ENDBRANCH   9  12
ENDBRANCH   6   7
BRANCH   4  18
ATOM     18  N   UNL     1      -4.398  -0.156  24.443  0.00  0.00    -0.187 NA
ATOM     19  C   UNL     1      -4.475   0.585  24.797  0.00  0.00    +0.343 C 
ATOM     20  O   UNL     1      -3.858   0.894  25.248  0.00  0.00    -0.249 OA
ATOM     21  N   UNL     1      -5.171   1.018  24.700  0.00  0.00    -0.161 NA
BRANCH  21  22
ATOM     22  C   UNL     1      -5.249   1.759  25.054  0.00  0.00    +0.075 A 
ATOM     23  C   UNL     1      -4.821   2.402  24.762  0.00  0.00    +0.021 A 
ATOM     24  C   UNL     1      -4.897   3.142  25.115  0.00  0.00    +0.073 A 
ATOM     25  C   UNL     1      -5.402   3.242  25.761  0.00  0.00    +0.004 A 
ATOM     26  C   UNL     1      -5.830   2.599  26.053  0.00  0.00    +0.001 A 
ATOM     27  C   UNL     1      -5.752   1.858  25.699  0.00  0.00    +0.017 A 
BRANCH  24  28
ATOM     28  C   UNL     1      -4.470   3.785  24.823  0.00  0.00    +0.419 C 
ATOM     29  F   UNL     1      -4.042   4.428  24.533  0.00  0.00    -0.166 F 
ATOM     30  F   UNL     1      -4.782   3.652  24.071  0.00  0.00    -0.166 F 
ATOM     31  F   UNL     1      -4.158   3.918  25.575  0.00  0.00    -0.166 F 
ENDBRANCH  24  28
ENDBRANCH  21  22
ENDBRANCH   4  18
TORSDOF 5
ENDMDL
