MODEL 1
REMARK VINA RESULT:      -6.7      0.000      0.000
REMARK  Name = 
REMARK  5 active torsions:
REMARK  status: ('A' for Active; 'I' for Inactive)
REMARK    1  A    between atoms: C_2  and  N_4
REMARK    2  A    between atoms: N_4  and  C_5
REMARK    3  A    between atoms: C_8  and  C_9
REMARK    4  A    between atoms: C_9  and  N_10
REMARK    5  A    between atoms: N_10  and  S_11
REMARK                            x       y       z     vdW  Elec       q    Type
REMARK                         _______ _______ _______ _____ _____    ______ ____
ROOT
ATOM      5  C   UNL     1      -3.839  -0.295  24.475  0.00  0.00    +0.135 C 
ATOM      6  C   UNL     1      -4.249  -0.357  25.187  0.00  0.00    +0.162 C 
ATOM      7  O   UNL     1      -4.519   0.395  25.393  0.00  0.00    -0.350 OA
ATOM      8  C   UNL     1      -4.276   0.922  24.806  0.00  0.00    +0.166 C 
ATOM     15  C   UNL     1      -3.856   0.496  24.239  0.00  0.00    +0.199 C 
ATOM     16  O   UNL     1      -3.512   0.806  23.556  0.00  0.00    -0.219 OA
ENDROOT
BRANCH   5   4
ATOM      4  N   UNL     1      -3.476  -0.914  24.068  0.00  0.00    -0.216 NA
BRANCH   4   2
ATOM      1  C   UNL     1      -4.243  -2.108  23.898  0.00  0.00    +0.019 C 
ATOM      2  C   UNL     1      -3.637  -1.696  24.277  0.00  0.00    +0.073 C 
ATOM      3  C   UNL     1      -3.191  -2.065  24.866  0.00  0.00    +0.019 C 
ENDBRANCH   4   2
ENDBRANCH   5   4
BRANCH   8   9
ATOM      9  C   UNL     1      -4.427   1.733  24.791  0.00  0.00    +0.147 C 
BRANCH   9  10
ATOM     10  N   UNL     1      -4.794   2.096  25.434  0.00  0.00    -0.079 NA
BRANCH  10  11
ATOM     11  S   UNL     1      -4.967   2.902  25.409  0.00  0.00    +0.059 S 
ATOM     12  C   UNL     1      -5.140   3.708  25.384  0.00  0.00    +0.197 C 
ATOM     13  O   UNL     1      -5.732   2.731  25.150  0.00  0.00    -0.156 OA
ATOM     14  O   UNL     1      -4.203   3.074  25.667  0.00  0.00    -0.156 OA
ENDBRANCH  10  11
ENDBRANCH   9  10
ENDBRANCH   8   9
TORSDOF 5
ENDMDL
MODEL 2
REMARK VINA RESULT:      -6.4      1.813      3.894
REMARK  Name = 
REMARK  5 active torsions:
REMARK  status: ('A' for Active; 'I' for Inactive)
REMARK    1  A    between atoms: C_2  and  N_4
REMARK    2  A    between atoms: N_4  and  C_5
REMARK    3  A    between atoms: C_8  and  C_9
REMARK    4  A    between atoms: C_9  and  N_10
REMARK    5  A    between atoms: N_10  and  S_11
REMARK                            x       y       z     vdW  Elec       q    Type
REMARK                         _______ _______ _______ _____ _____    ______ ____
ROOT
ATOM      5  C   UNL     1      -3.597   1.686  24.676  0.00  0.00    +0.135 C 
ATOM      6  C   UNL     1      -4.394   1.485  24.751  0.00  0.00    +0.162 C 
ATOM      7  O   UNL     1      -4.459   0.667  24.671  0.00  0.00    -0.350 OA
ATOM      8  C   UNL     1      -3.703   0.362  24.545  0.00  0.00    +0.166 C 
ATOM     15  C   UNL     1      -3.170   0.991  24.549  0.00  0.00    +0.199 C 
ATOM     16  O   UNL     1      -2.355   0.936  24.443  0.00  0.00    -0.219 OA
ENDROOT
BRANCH   5   4
ATOM      4  N   UNL     1      -3.282   2.447  24.720  0.00  0.00    -0.216 NA
BRANCH   4   2
ATOM      1  C   UNL     1      -4.032   3.458  24.044  0.00  0.00    +0.019 C 
ATOM      2  C   UNL     1      -3.785   3.101  24.745  0.00  0.00    +0.073 C 
ATOM      3  C   UNL     1      -4.039   3.398  25.472  0.00  0.00    +0.019 C 
ENDBRANCH   4   2
ENDBRANCH   5   4
BRANCH   8   9
ATOM      9  C   UNL     1      -3.514  -0.434  24.436  0.00  0.00    +0.147 C 
BRANCH   9  10
ATOM     10  N   UNL     1      -4.096  -1.012  24.520  0.00  0.00    -0.079 NA
BRANCH  10  11
ATOM     11  S   UNL     1      -3.909  -1.807  24.404  0.00  0.00    +0.059 S 
ATOM     12  C   UNL     1      -3.722  -2.601  24.288  0.00  0.00    +0.197 C 
ATOM     13  O   UNL     1      -4.168  -1.754  23.622  0.00  0.00    -0.156 OA
ATOM     14  O   UNL     1      -3.651  -1.860  25.185  0.00  0.00    -0.156 OA
ENDBRANCH  10  11
ENDBRANCH   9  10
ENDBRANCH   8   9
TORSDOF 5
ENDMDL
