MODEL 1
REMARK VINA RESULT:     -11.1      0.000      0.000
REMARK  Name = 
REMARK  5 active torsions:
REMARK  status: ('A' for Active; 'I' for Inactive)
REMARK    1  A    between atoms: O_2  and  C_3
REMARK    2  A    between atoms: C_6  and  C_9
REMARK    3  A    between atoms: C_12  and  C_14
REMARK    4  A    between atoms: C_16  and  N_20
REMARK    5  A    between atoms: N_23  and  C_24
REMARK                            x       y       z     vdW  Elec       q    Type
REMARK                         _______ _______ _______ _____ _____    ______ ____
ROOT
ATOM     14  C   UNL     1      -4.899   1.803  25.215  0.00  0.00    +0.139 C 
ATOM     15  C   UNL     1      -4.246   2.213  25.508  0.00  0.00    +0.049 C 
ATOM     16  C   UNL     1      -4.489   2.979  25.693  0.00  0.00    +0.115 C 
ATOM     17  C   UNL     1      -5.292   3.042  25.515  0.00  0.00    +0.094 C 
ATOM     18  N   UNL     1      -5.545   2.315  25.220  0.00  0.00    -0.264 NA
ATOM     19  C   UNL     1      -6.311   2.132  24.972  0.00  0.00    +0.090 C 
ENDROOT
BRANCH  14  12
ATOM      9  C   UNL     1      -4.532  -0.242  24.720  0.00  0.00    +0.203 A 
ATOM     10  N   UNL     1      -5.295  -0.141  24.424  0.00  0.00    -0.056 NA
ATOM     11  O   UNL     1      -5.525   0.638  24.574  0.00  0.00    -0.336 OA
ATOM     12  C   UNL     1      -4.904   1.017  24.962  0.00  0.00    +0.251 A 
ATOM     13  N   UNL     1      -4.290   0.474  25.052  0.00  0.00    -0.190 NA
BRANCH   9   6
ATOM      3  C   UNL     1      -3.200  -2.325  24.626  0.00  0.00    +0.139 A 
ATOM      4  C   UNL     1      -3.623  -2.077  23.964  0.00  0.00    +0.037 A 
ATOM      5  C   UNL     1      -4.068  -1.382  23.995  0.00  0.00    +0.006 A 
ATOM      6  C   UNL     1      -4.088  -0.936  24.689  0.00  0.00    +0.039 A 
ATOM      7  C   UNL     1      -3.663  -1.184  25.352  0.00  0.00    +0.006 A 
ATOM      8  C   UNL     1      -3.219  -1.879  25.320  0.00  0.00    +0.037 A 
BRANCH   3   2
ATOM      1  C   UNL     1      -1.961  -2.992  24.373  0.00  0.00    +0.252 C 
ATOM      2  O   UNL     1      -2.755  -3.020  24.595  0.00  0.00    -0.471 OA
ENDBRANCH   3   2
ENDBRANCH   9   6
ENDBRANCH  14  12
BRANCH  16  20
ATOM     20  N   UNL     1      -4.013   3.578  26.003  0.00  0.00    -0.187 NA
ATOM     21  C   UNL     1      -3.303   3.776  25.629  0.00  0.00    +0.343 C 
ATOM     22  O   UNL     1      -3.071   3.375  24.947  0.00  0.00    -0.249 OA
ATOM     23  N   UNL     1      -2.828   4.373  25.938  0.00  0.00    -0.161 NA
BRANCH  23  24
ATOM     24  C   UNL     1      -2.119   4.571  25.566  0.00  0.00    +0.075 A 
ATOM     25  C   UNL     1      -1.489   4.039  25.567  0.00  0.00    +0.018 A 
ATOM     26  C   UNL     1      -0.779   4.238  25.194  0.00  0.00    +0.013 A 
ATOM     27  C   UNL     1      -0.702   4.969  24.820  0.00  0.00    +0.058 A 
ATOM     28 CL   UNL     1       0.007   5.167  24.446  0.00  0.00    -0.082 Cl
ATOM     29  C   UNL     1      -1.332   5.501  24.818  0.00  0.00    +0.013 A 
ATOM     30  C   UNL     1      -2.041   5.303  25.191  0.00  0.00    +0.018 A 
ENDBRANCH  23  24
ENDBRANCH  16  20
TORSDOF 5
ENDMDL
MODEL 2
REMARK VINA RESULT:     -10.9      4.361      5.753
REMARK  Name = 
REMARK  5 active torsions:
REMARK  status: ('A' for Active; 'I' for Inactive)
REMARK    1  A    between atoms: O_2  and  C_3
REMARK    2  A    between atoms: C_6  and  C_9
REMARK    3  A    between atoms: C_12  and  C_14
REMARK    4  A    between atoms: C_16  and  N_20
REMARK    5  A    between atoms: N_23  and  C_24
REMARK                            x       y       z     vdW  Elec       q    Type
REMARK                         _______ _______ _______ _____ _____    ______ ____
ROOT
ATOM     14  C   UNL     1      -0.652   0.374  24.081  0.00  0.00    +0.139 C 
ATOM     15  C   UNL     1      -0.121   0.620  23.501  0.00  0.00    +0.049 C 
ATOM     16  C   UNL     1       0.360  -0.021  23.307  0.00  0.00    +0.115 C 
ATOM     17  C   UNL     1       0.126  -0.664  23.768  0.00  0.00    +0.094 C 
ATOM     18  N   UNL     1      -0.499  -0.420  24.246  0.00  0.00    -0.264 NA
ATOM     19  C   UNL     1      -0.902  -0.888  24.794  0.00  0.00    +0.090 C 
ENDROOT
BRANCH  14  12
ATOM      9  C   UNL     1      -2.406   1.419  24.707  0.00  0.00    +0.203 A 
ATOM     10  N   UNL     1      -1.853   1.693  25.254  0.00  0.00    -0.056 NA
ATOM     11  O   UNL     1      -1.129   1.335  25.087  0.00  0.00    -0.336 OA
ATOM     12  C   UNL     1      -1.234   0.839  24.436  0.00  0.00    +0.251 A 
ATOM     13  N   UNL     1      -2.024   0.891  24.201  0.00  0.00    -0.190 NA
BRANCH   9   6
ATOM      3  C   UNL     1      -4.792   2.064  24.601  0.00  0.00    +0.139 A 
ATOM      4  C   UNL     1      -4.578   1.326  24.899  0.00  0.00    +0.037 A 
ATOM      5  C   UNL     1      -3.782   1.111  24.934  0.00  0.00    +0.006 A 
ATOM      6  C   UNL     1      -3.201   1.634  24.672  0.00  0.00    +0.039 A 
ATOM      7  C   UNL     1      -3.416   2.373  24.374  0.00  0.00    +0.006 A 
ATOM      8  C   UNL     1      -4.212   2.589  24.339  0.00  0.00    +0.037 A 
BRANCH   3   2
ATOM      1  C   UNL     1      -6.132   1.935  25.083  0.00  0.00    +0.252 C 
ATOM      2  O   UNL     1      -5.589   2.280  24.566  0.00  0.00    -0.471 OA
ENDBRANCH   3   2
ENDBRANCH   9   6
ENDBRANCH  14  12
BRANCH  16  20
ATOM     20  N   UNL     1       0.969  -0.020  22.750  0.00  0.00    -0.187 NA
ATOM     21  C   UNL     1       1.751   0.084  22.993  0.00  0.00    +0.343 C 
ATOM     22  O   UNL     1       1.924   0.187  23.793  0.00  0.00    -0.249 OA
ATOM     23  N   UNL     1       2.359   0.086  22.436  0.00  0.00    -0.161 NA
BRANCH  23  24
ATOM     24  C   UNL     1       3.141   0.190  22.679  0.00  0.00    +0.075 A 
ATOM     25  C   UNL     1       3.553  -0.436  23.023  0.00  0.00    +0.018 A 
ATOM     26  C   UNL     1       4.335  -0.332  23.265  0.00  0.00    +0.013 A 
ATOM     27  C   UNL     1       4.704   0.399  23.163  0.00  0.00    +0.058 A 
ATOM     28 CL   UNL     1       5.486   0.503  23.405  0.00  0.00    -0.082 Cl
ATOM     29  C   UNL     1       4.291   1.025  22.819  0.00  0.00    +0.013 A 
ATOM     30  C   UNL     1       3.510   0.921  22.576  0.00  0.00    +0.018 A 
ENDBRANCH  23  24
ENDBRANCH  16  20
TORSDOF 5
ENDMDL
MODEL 3
REMARK VINA RESULT:     -10.4      1.844      5.602
REMARK  Name = 
REMARK  5 active torsions:
REMARK  status: ('A' for Active; 'I' for Inactive)
REMARK    1  A    between atoms: O_2  and  C_3
REMARK    2  A    between atoms: C_6  and  C_9
REMARK    3  A    between atoms: C_12  and  C_14
REMARK    4  A    between atoms: C_16  and  N_20
REMARK    5  A    between atoms: N_23  and  C_24
REMARK                            x       y       z     vdW  Elec       q    Type
REMARK                         _______ _______ _______ _____ _____    ______ ____
ROOT
ATOM     14  C   UNL     1      -4.576   2.228  25.312  0.00  0.00    +0.139 C 
ATOM     15  C   UNL     1      -4.325   1.563  24.895  0.00  0.00    +0.049 C 
ATOM     16  C   UNL     1      -4.970   1.055  24.813  0.00  0.00    +0.115 C 
ATOM     17  C   UNL     1      -5.620   1.408  25.179  0.00  0.00    +0.094 C 
ATOM     18  N   UNL     1      -5.376   2.132  25.488  0.00  0.00    -0.264 NA
ATOM     19  C   UNL     1      -5.850   2.668  25.900  0.00  0.00    +0.090 C 
ENDROOT
BRANCH  14  12
ATOM      9  C   UNL     1      -3.114   3.767  25.549  0.00  0.00    +0.203 A 
ATOM     10  N   UNL     1      -3.665   3.981  26.123  0.00  0.00    -0.056 NA
ATOM     11  O   UNL     1      -4.280   3.431  26.105  0.00  0.00    -0.336 OA
ATOM     12  C   UNL     1      -4.109   2.876  25.519  0.00  0.00    +0.251 A 
ATOM     13  N   UNL     1      -3.388   3.084  25.174  0.00  0.00    -0.190 NA
BRANCH   9   6
ATOM      3  C   UNL     1      -1.009   4.962  25.035  0.00  0.00    +0.139 A 
ATOM      4  C   UNL     1      -1.717   5.380  25.090  0.00  0.00    +0.037 A 
ATOM      5  C   UNL     1      -2.419   4.982  25.261  0.00  0.00    +0.006 A 
ATOM      6  C   UNL     1      -2.413   4.165  25.378  0.00  0.00    +0.039 A 
ATOM      7  C   UNL     1      -1.703   3.746  25.323  0.00  0.00    +0.006 A 
ATOM      8  C   UNL     1      -1.001   4.145  25.152  0.00  0.00    +0.037 A 
BRANCH   3   2
ATOM      1  C   UNL     1       0.076   5.230  24.145  0.00  0.00    +0.252 C 
ATOM      2  O   UNL     1      -0.306   5.361  24.864  0.00  0.00    -0.471 OA
ENDBRANCH   3   2
ENDBRANCH   9   6
ENDBRANCH  14  12
BRANCH  16  20
ATOM     20  N   UNL     1      -4.966   0.324  24.431  0.00  0.00    -0.187 NA
ATOM     21  C   UNL     1      -4.357  -0.215  24.577  0.00  0.00    +0.343 C 
ATOM     22  O   UNL     1      -3.754  -0.021  25.104  0.00  0.00    -0.249 OA
ATOM     23  N   UNL     1      -4.353  -0.945  24.195  0.00  0.00    -0.161 NA
BRANCH  23  24
ATOM     24  C   UNL     1      -3.746  -1.484  24.341  0.00  0.00    +0.075 A 
ATOM     25  C   UNL     1      -2.998  -1.362  24.013  0.00  0.00    +0.018 A 
ATOM     26  C   UNL     1      -2.390  -1.901  24.159  0.00  0.00    +0.013 A 
ATOM     27  C   UNL     1      -2.531  -2.562  24.632  0.00  0.00    +0.058 A 
ATOM     28 CL   UNL     1      -1.923  -3.101  24.778  0.00  0.00    -0.082 Cl
ATOM     29  C   UNL     1      -3.278  -2.684  24.960  0.00  0.00    +0.013 A 
ATOM     30  C   UNL     1      -3.886  -2.145  24.814  0.00  0.00    +0.018 A 
ENDBRANCH  23  24
ENDBRANCH  16  20
TORSDOF 5
ENDMDL
MODEL 4
REMARK VINA RESULT:     -10.4      2.540      3.589
REMARK  Name = 
REMARK  5 active torsions:
REMARK  status: ('A' for Active; 'I' for Inactive)
REMARK    1  A    between atoms: O_2  and  C_3
REMARK    2  A    between atoms: C_6  and  C_9
REMARK    3  A    between atoms: C_12  and  C_14
REMARK    4  A    between atoms: C_16  and  N_20
REMARK    5  A    between atoms: N_23  and  C_24
REMARK                            x       y       z     vdW  Elec       q    Type
REMARK                         _______ _______ _______ _____ _____    ______ ____
ROOT
ATOM     14  C   UNL     1      -0.210   0.237  24.516  0.00  0.00    +0.139 C 
ATOM     15  C   UNL     1      -0.248   0.899  25.005  0.00  0.00    +0.049 C 
ATOM     16  C   UNL     1       0.229   1.486  24.678  0.00  0.00    +0.115 C 
ATOM     17  C   UNL     1       0.563   1.186  23.985  0.00  0.00    +0.094 C 
ATOM     18  N   UNL     1       0.291   0.414  23.885  0.00  0.00    -0.264 NA
ATOM     19  C   UNL     1       0.487  -0.092  23.264  0.00  0.00    +0.090 C 
ENDROOT
BRANCH  14  12
ATOM      9  C   UNL     1      -1.549  -1.422  24.648  0.00  0.00    +0.203 A 
ATOM     10  N   UNL     1      -0.870  -1.737  24.994  0.00  0.00    -0.056 NA
ATOM     11  O   UNL     1      -0.286  -1.154  24.987  0.00  0.00    -0.336 OA
ATOM     12  C   UNL     1      -0.604  -0.479  24.636  0.00  0.00    +0.251 A 
ATOM     13  N   UNL     1      -1.385  -0.644  24.426  0.00  0.00    -0.190 NA
BRANCH   9   6
ATOM      3  C   UNL     1      -3.701  -2.600  24.329  0.00  0.00    +0.139 A 
ATOM      4  C   UNL     1      -2.990  -3.003  24.216  0.00  0.00    +0.037 A 
ATOM      5  C   UNL     1      -2.273  -2.610  24.323  0.00  0.00    +0.006 A 
ATOM      6  C   UNL     1      -2.266  -1.814  24.542  0.00  0.00    +0.039 A 
ATOM      7  C   UNL     1      -2.978  -1.412  24.654  0.00  0.00    +0.006 A 
ATOM      8  C   UNL     1      -3.695  -1.805  24.547  0.00  0.00    +0.037 A 
BRANCH   3   2
ATOM      1  C   UNL     1      -4.849  -2.885  23.526  0.00  0.00    +0.252 C 
ATOM      2  O   UNL     1      -4.419  -2.994  24.222  0.00  0.00    -0.471 OA
ENDBRANCH   3   2
ENDBRANCH   9   6
ENDBRANCH  14  12
BRANCH  16  20
ATOM     20  N   UNL     1       0.352   2.241  24.987  0.00  0.00    -0.187 NA
ATOM     21  C   UNL     1      -0.254   2.802  24.961  0.00  0.00    +0.343 C 
ATOM     22  O   UNL     1      -0.981   2.607  24.624  0.00  0.00    -0.249 OA
ATOM     23  N   UNL     1      -0.131   3.556  25.270  0.00  0.00    -0.161 NA
BRANCH  23  24
ATOM     24  C   UNL     1      -0.736   4.116  25.244  0.00  0.00    +0.075 A 
ATOM     25  C   UNL     1      -0.623   4.828  24.842  0.00  0.00    +0.018 A 
ATOM     26  C   UNL     1      -1.228   5.388  24.816  0.00  0.00    +0.013 A 
ATOM     27  C   UNL     1      -1.946   5.236  25.192  0.00  0.00    +0.058 A 
ATOM     28 CL   UNL     1      -2.552   5.797  25.166  0.00  0.00    -0.082 Cl
ATOM     29  C   UNL     1      -2.060   4.525  25.594  0.00  0.00    +0.013 A 
ATOM     30  C   UNL     1      -1.455   3.964  25.620  0.00  0.00    +0.018 A 
ENDBRANCH  23  24
ENDBRANCH  16  20
TORSDOF 5
ENDMDL
MODEL 5
REMARK VINA RESULT:     -10.2      3.034      6.679
REMARK  Name = 
REMARK  5 active torsions:
REMARK  status: ('A' for Active; 'I' for Inactive)
REMARK    1  A    between atoms: O_2  and  C_3
REMARK    2  A    between atoms: C_6  and  C_9
REMARK    3  A    between atoms: C_12  and  C_14
REMARK    4  A    between atoms: C_16  and  N_20
REMARK    5  A    between atoms: N_23  and  C_24
REMARK                            x       y       z     vdW  Elec       q    Type
REMARK                         _______ _______ _______ _____ _____    ______ ____
ROOT
ATOM     14  C   UNL     1      -0.231   0.854  24.847  0.00  0.00    +0.139 C 
ATOM     15  C   UNL     1      -0.693   0.282  25.218  0.00  0.00    +0.049 C 
ATOM     16  C   UNL     1      -0.593  -0.429  24.813  0.00  0.00    +0.115 C 
ATOM     17  C   UNL     1      -0.067  -0.296  24.190  0.00  0.00    +0.094 C 
ATOM     18  N   UNL     1       0.156   0.497  24.211  0.00  0.00    -0.264 NA
ATOM     19  C   UNL     1       0.676   0.869  23.689  0.00  0.00    +0.090 C 
ENDROOT
BRANCH  14  12
ATOM      9  C   UNL     1      -0.440   2.940  25.259  0.00  0.00    +0.203 A 
ATOM     10  N   UNL     1       0.308   2.789  25.572  0.00  0.00    -0.056 NA
ATOM     11  O   UNL     1       0.478   1.990  25.456  0.00  0.00    -0.336 OA
ATOM     12  C   UNL     1      -0.166   1.646  25.071  0.00  0.00    +0.251 A 
ATOM     13  N   UNL     1      -0.733   2.233  24.949  0.00  0.00    -0.190 NA
BRANCH   9   6
ATOM      3  C   UNL     1      -1.601   5.124  25.250  0.00  0.00    +0.139 A 
ATOM      4  C   UNL     1      -1.947   4.475  25.623  0.00  0.00    +0.037 A 
ATOM      5  C   UNL     1      -1.560   3.747  25.626  0.00  0.00    +0.006 A 
ATOM      6  C   UNL     1      -0.827   3.667  25.256  0.00  0.00    +0.039 A 
ATOM      7  C   UNL     1      -0.481   4.318  24.883  0.00  0.00    +0.006 A 
ATOM      8  C   UNL     1      -0.868   5.046  24.880  0.00  0.00    +0.037 A 
BRANCH   3   2
ATOM      1  C   UNL     1      -2.023   6.299  24.554  0.00  0.00    +0.252 C 
ATOM      2  O   UNL     1      -1.989   5.854  25.248  0.00  0.00    -0.471 OA
ENDBRANCH   3   2
ENDBRANCH   9   6
ENDBRANCH  14  12
BRANCH  16  20
ATOM     20  N   UNL     1      -0.954  -1.148  24.997  0.00  0.00    -0.187 NA
ATOM     21  C   UNL     1      -1.699  -1.327  24.690  0.00  0.00    +0.343 C 
ATOM     22  O   UNL     1      -2.082  -0.786  24.198  0.00  0.00    -0.249 OA
ATOM     23  N   UNL     1      -2.059  -2.045  24.874  0.00  0.00    -0.161 NA
BRANCH  23  24
ATOM     24  C   UNL     1      -2.803  -2.224  24.567  0.00  0.00    +0.075 A 
ATOM     25  C   UNL     1      -2.905  -2.892  24.094  0.00  0.00    +0.018 A 
ATOM     26  C   UNL     1      -3.651  -3.071  23.787  0.00  0.00    +0.013 A 
ATOM     27  C   UNL     1      -4.293  -2.581  23.953  0.00  0.00    +0.058 A 
ATOM     28 CL   UNL     1      -5.038  -2.760  23.645  0.00  0.00    -0.082 Cl
ATOM     29  C   UNL     1      -4.191  -1.912  24.425  0.00  0.00    +0.013 A 
ATOM     30  C   UNL     1      -3.447  -1.733  24.732  0.00  0.00    +0.018 A 
ENDBRANCH  23  24
ENDBRANCH  16  20
TORSDOF 5
ENDMDL
MODEL 6
REMARK VINA RESULT:     -10.0      4.658      5.931
REMARK  Name = 
REMARK  5 active torsions:
REMARK  status: ('A' for Active; 'I' for Inactive)
REMARK    1  A    between atoms: O_2  and  C_3
REMARK    2  A    between atoms: C_6  and  C_9
REMARK    3  A    between atoms: C_12  and  C_14
REMARK    4  A    between atoms: C_16  and  N_20
REMARK    5  A    between atoms: N_23  and  C_24
REMARK                            x       y       z     vdW  Elec       q    Type
REMARK                         _______ _______ _______ _____ _____    ______ ____
ROOT
ATOM     14  C   UNL     1      -0.075   0.375  23.880  0.00  0.00    +0.139 C 
ATOM     15  C   UNL     1      -0.412   1.109  24.044  0.00  0.00    +0.049 C 
ATOM     16  C   UNL     1      -1.056   0.988  24.545  0.00  0.00    +0.115 C 
ATOM     17  C   UNL     1      -1.117   0.178  24.691  0.00  0.00    +0.094 C 
ATOM     18  N   UNL     1      -0.510  -0.201  24.280  0.00  0.00    -0.264 NA
ATOM     19  C   UNL     1      -0.364  -1.013  24.271  0.00  0.00    +0.090 C 
ENDROOT
BRANCH  14  12
ATOM      9  C   UNL     1       1.843   0.165  22.963  0.00  0.00    +0.203 A 
ATOM     10  N   UNL     1       1.348  -0.106  22.362  0.00  0.00    -0.056 NA
ATOM     11  O   UNL     1       0.569  -0.061  22.632  0.00  0.00    -0.336 OA
ATOM     12  C   UNL     1       0.583   0.239  23.401  0.00  0.00    +0.251 A 
ATOM     13  N   UNL     1       1.370   0.379  23.606  0.00  0.00    -0.190 NA
BRANCH   9   6
ATOM      3  C   UNL     1       4.310   0.314  22.860  0.00  0.00    +0.139 A 
ATOM      4  C   UNL     1       3.851   0.984  22.718  0.00  0.00    +0.037 A 
ATOM      5  C   UNL     1       3.028   0.934  22.752  0.00  0.00    +0.006 A 
ATOM      6  C   UNL     1       2.665   0.215  22.929  0.00  0.00    +0.039 A 
ATOM      7  C   UNL     1       3.125  -0.456  23.071  0.00  0.00    +0.006 A 
ATOM      8  C   UNL     1       3.948  -0.406  23.036  0.00  0.00    +0.037 A 
BRANCH   3   2
ATOM      1  C   UNL     1       5.590   0.080  23.452  0.00  0.00    +0.252 C 
ATOM      2  O   UNL     1       5.134   0.364  22.826  0.00  0.00    -0.471 OA
ENDBRANCH   3   2
ENDBRANCH   9   6
ENDBRANCH  14  12
BRANCH  16  20
ATOM     20  N   UNL     1      -1.552   1.574  24.847  0.00  0.00    -0.187 NA
ATOM     21  C   UNL     1      -2.370   1.516  24.744  0.00  0.00    +0.343 C 
ATOM     22  O   UNL     1      -2.689   0.872  24.339  0.00  0.00    -0.249 OA
ATOM     23  N   UNL     1      -2.865   2.101  25.046  0.00  0.00    -0.161 NA
BRANCH  23  24
ATOM     24  C   UNL     1      -3.682   2.043  24.943  0.00  0.00    +0.075 A 
ATOM     25  C   UNL     1      -4.117   1.503  25.390  0.00  0.00    +0.018 A 
ATOM     26  C   UNL     1      -4.934   1.446  25.288  0.00  0.00    +0.013 A 
ATOM     27  C   UNL     1      -5.315   1.929  24.738  0.00  0.00    +0.058 A 
ATOM     28 CL   UNL     1      -6.132   1.872  24.635  0.00  0.00    -0.082 Cl
ATOM     29  C   UNL     1      -4.880   2.469  24.291  0.00  0.00    +0.013 A 
ATOM     30  C   UNL     1      -4.063   2.526  24.393  0.00  0.00    +0.018 A 
ENDBRANCH  23  24
ENDBRANCH  16  20
TORSDOF 5
ENDMDL
MODEL 7
REMARK VINA RESULT:      -9.9      4.970      6.875
REMARK  Name = 
REMARK  5 active torsions:
REMARK  status: ('A' for Active; 'I' for Inactive)
REMARK    1  A    between atoms: O_2  and  C_3
REMARK    2  A    between atoms: C_6  and  C_9
REMARK    3  A    between atoms: C_12  and  C_14
REMARK    4  A    between atoms: C_16  and  N_20
REMARK    5  A    between atoms: N_23  and  C_24
REMARK                            x       y       z     vdW  Elec       q    Type
REMARK                         _______ _______ _______ _____ _____    ______ ____
ROOT
ATOM     14  C   UNL     1       0.251   0.474  23.855  0.00  0.00    +0.139 C 
ATOM     15  C   UNL     1      -0.203  -0.113  24.215  0.00  0.00    +0.049 C 
ATOM     16  C   UNL     1      -0.810   0.256  24.634  0.00  0.00    +0.115 C 
ATOM     17  C   UNL     1      -0.732   1.072  24.532  0.00  0.00    +0.094 C 
ATOM     18  N   UNL     1      -0.076   1.206  24.050  0.00  0.00    -0.264 NA
ATOM     19  C   UNL     1       0.204   1.943  23.806  0.00  0.00    +0.090 C 
ENDROOT
BRANCH  14  12
ATOM      9  C   UNL     1       2.182   0.241  22.973  0.00  0.00    +0.203 A 
ATOM     10  N   UNL     1       1.693   0.080  22.329  0.00  0.00    -0.056 NA
ATOM     11  O   UNL     1       0.909   0.148  22.581  0.00  0.00    -0.336 OA
ATOM     12  C   UNL     1       0.915   0.351  23.381  0.00  0.00    +0.251 A 
ATOM     13  N   UNL     1       1.702   0.408  23.623  0.00  0.00    -0.190 NA
BRANCH   9   6
ATOM      3  C   UNL     1       4.656   0.226  22.959  0.00  0.00    +0.139 A 
ATOM      4  C   UNL     1       4.247   0.897  22.711  0.00  0.00    +0.037 A 
ATOM      5  C   UNL     1       3.422   0.902  22.716  0.00  0.00    +0.006 A 
ATOM      6  C   UNL     1       3.006   0.236  22.969  0.00  0.00    +0.039 A 
ATOM      7  C   UNL     1       3.417  -0.436  23.217  0.00  0.00    +0.006 A 
ATOM      8  C   UNL     1       4.241  -0.441  23.212  0.00  0.00    +0.037 A 
BRANCH   3   2
ATOM      1  C   UNL     1       5.898   0.128  23.662  0.00  0.00    +0.252 C 
ATOM      2  O   UNL     1       5.482   0.221  22.955  0.00  0.00    -0.471 OA
ENDBRANCH   3   2
ENDBRANCH   9   6
ENDBRANCH  14  12
BRANCH  16  20
ATOM     20  N   UNL     1      -1.394  -0.123  25.077  0.00  0.00    -0.187 NA
ATOM     21  C   UNL     1      -1.961  -0.590  24.700  0.00  0.00    +0.343 C 
ATOM     22  O   UNL     1      -1.944  -0.676  23.880  0.00  0.00    -0.249 OA
ATOM     23  N   UNL     1      -2.544  -0.968  25.143  0.00  0.00    -0.161 NA
BRANCH  23  24
ATOM     24  C   UNL     1      -3.111  -1.434  24.766  0.00  0.00    +0.075 A 
ATOM     25  C   UNL     1      -3.037  -2.256  24.768  0.00  0.00    +0.018 A 
ATOM     26  C   UNL     1      -3.605  -2.722  24.391  0.00  0.00    +0.013 A 
ATOM     27  C   UNL     1      -4.245  -2.366  24.013  0.00  0.00    +0.058 A 
ATOM     28 CL   UNL     1      -4.813  -2.832  23.636  0.00  0.00    -0.082 Cl
ATOM     29  C   UNL     1      -4.319  -1.544  24.012  0.00  0.00    +0.013 A 
ATOM     30  C   UNL     1      -3.752  -1.078  24.388  0.00  0.00    +0.018 A 
ENDBRANCH  23  24
ENDBRANCH  16  20
TORSDOF 5
ENDMDL
MODEL 8
REMARK VINA RESULT:      -9.8      2.780      6.155
REMARK  Name = 
REMARK  5 active torsions:
REMARK  status: ('A' for Active; 'I' for Inactive)
REMARK    1  A    between atoms: O_2  and  C_3
REMARK    2  A    between atoms: C_6  and  C_9
REMARK    3  A    between atoms: C_12  and  C_14
REMARK    4  A    between atoms: C_16  and  N_20
REMARK    5  A    between atoms: N_23  and  C_24
REMARK                            x       y       z     vdW  Elec       q    Type
REMARK                         _______ _______ _______ _____ _____    ______ ____
ROOT
ATOM     14  C   UNL     1      -0.884   1.556  24.975  0.00  0.00    +0.139 C 
ATOM     15  C   UNL     1      -1.143   0.805  25.195  0.00  0.00    +0.049 C 
ATOM     16  C   UNL     1      -0.573   0.258  24.958  0.00  0.00    +0.115 C 
ATOM     17  C   UNL     1       0.040   0.672  24.591  0.00  0.00    +0.094 C 
ATOM     18  N   UNL     1      -0.152   1.474  24.602  0.00  0.00    -0.264 NA
ATOM     19  C   UNL     1       0.306   2.087  24.293  0.00  0.00    +0.090 C 
ENDROOT
BRANCH  14  12
ATOM      9  C   UNL     1      -2.262   3.165  25.245  0.00  0.00    +0.203 A 
ATOM     10  N   UNL     1      -1.542   3.549  25.365  0.00  0.00    -0.056 NA
ATOM     11  O   UNL     1      -0.938   2.993  25.279  0.00  0.00    -0.336 OA
ATOM     12  C   UNL     1      -1.285   2.265  25.105  0.00  0.00    +0.251 A 
ATOM     13  N   UNL     1      -2.103   2.371  25.084  0.00  0.00    -0.190 NA
BRANCH   9   6
ATOM      3  C   UNL     1      -4.503   4.207  25.348  0.00  0.00    +0.139 A 
ATOM      4  C   UNL     1      -4.196   3.962  24.624  0.00  0.00    +0.037 A 
ATOM      5  C   UNL     1      -3.449   3.615  24.589  0.00  0.00    +0.006 A 
ATOM      6  C   UNL     1      -3.009   3.512  25.279  0.00  0.00    +0.039 A 
ATOM      7  C   UNL     1      -3.317   3.758  26.005  0.00  0.00    +0.006 A 
ATOM      8  C   UNL     1      -4.064   4.105  26.039  0.00  0.00    +0.037 A 
BRANCH   3   2
ATOM      1  C   UNL     1      -5.907   4.102  25.598  0.00  0.00    +0.252 C 
ATOM      2  O   UNL     1      -5.252   4.555  25.383  0.00  0.00    -0.471 OA
ENDBRANCH   3   2
ENDBRANCH   9   6
ENDBRANCH  14  12
BRANCH  16  20
ATOM     20  N   UNL     1      -0.608  -0.558  25.068  0.00  0.00    -0.187 NA
ATOM     21  C   UNL     1      -1.296  -0.972  24.875  0.00  0.00    +0.343 C 
ATOM     22  O   UNL     1      -1.948  -0.568  24.572  0.00  0.00    -0.249 OA
ATOM     23  N   UNL     1      -1.331  -1.788  24.985  0.00  0.00    -0.161 NA
BRANCH  23  24
ATOM     24  C   UNL     1      -2.018  -2.201  24.793  0.00  0.00    +0.075 A 
ATOM     25  C   UNL     1      -2.679  -2.156  25.284  0.00  0.00    +0.018 A 
ATOM     26  C   UNL     1      -3.367  -2.570  25.091  0.00  0.00    +0.013 A 
ATOM     27  C   UNL     1      -3.392  -3.029  24.406  0.00  0.00    +0.058 A 
ATOM     28 CL   UNL     1      -4.080  -3.443  24.213  0.00  0.00    -0.082 Cl
ATOM     29  C   UNL     1      -2.731  -3.074  23.915  0.00  0.00    +0.013 A 
ATOM     30  C   UNL     1      -2.044  -2.661  24.107  0.00  0.00    +0.018 A 
ENDBRANCH  23  24
ENDBRANCH  16  20
TORSDOF 5
ENDMDL
MODEL 9
REMARK VINA RESULT:      -9.7      3.088      4.709
REMARK  Name = 
REMARK  5 active torsions:
REMARK  status: ('A' for Active; 'I' for Inactive)
REMARK    1  A    between atoms: O_2  and  C_3
REMARK    2  A    between atoms: C_6  and  C_9
REMARK    3  A    between atoms: C_12  and  C_14
REMARK    4  A    between atoms: C_16  and  N_20
REMARK    5  A    between atoms: N_23  and  C_24
REMARK                            x       y       z     vdW  Elec       q    Type
REMARK                         _______ _______ _______ _____ _____    ______ ____
ROOT
ATOM     14  C   UNL     1      -2.425  -0.882  24.620  0.00  0.00    +0.139 C 
ATOM     15  C   UNL     1      -2.958  -0.271  24.475  0.00  0.00    +0.049 C 
ATOM     16  C   UNL     1      -3.721  -0.574  24.552  0.00  0.00    +0.115 C 
ATOM     17  C   UNL     1      -3.660  -1.374  24.745  0.00  0.00    +0.094 C 
ATOM     18  N   UNL     1      -2.858  -1.564  24.787  0.00  0.00    -0.264 NA
ATOM     19  C   UNL     1      -2.545  -2.307  24.965  0.00  0.00    +0.090 C 
ENDROOT
BRANCH  14  12
ATOM      9  C   UNL     1      -0.357  -0.549  24.205  0.00  0.00    +0.203 A 
ATOM     10  N   UNL     1      -0.314  -0.916  24.942  0.00  0.00    -0.056 NA
ATOM     11  O   UNL     1      -1.084  -1.086  25.188  0.00  0.00    -0.336 OA
ATOM     12  C   UNL     1      -1.602  -0.823  24.602  0.00  0.00    +0.251 A 
ATOM     13  N   UNL     1      -1.153  -0.491  23.994  0.00  0.00    -0.190 NA
BRANCH   9   6
ATOM      3  C   UNL     1       1.564   0.242  22.861  0.00  0.00    +0.139 A 
ATOM      4  C   UNL     1       1.261   0.715  23.464  0.00  0.00    +0.037 A 
ATOM      5  C   UNL     1       0.620   0.451  23.912  0.00  0.00    +0.006 A 
ATOM      6  C   UNL     1       0.283  -0.285  23.757  0.00  0.00    +0.039 A 
ATOM      7  C   UNL     1       0.587  -0.759  23.153  0.00  0.00    +0.006 A 
ATOM      8  C   UNL     1       1.228  -0.495  22.705  0.00  0.00    +0.037 A 
BRANCH   3   2
ATOM      1  C   UNL     1       2.970   0.456  22.718  0.00  0.00    +0.252 C 
ATOM      2  O   UNL     1       2.205   0.506  22.412  0.00  0.00    -0.471 OA
ENDBRANCH   3   2
ENDBRANCH   9   6
ENDBRANCH  14  12
BRANCH  16  20
ATOM     20  N   UNL     1      -4.423  -0.152  24.453  0.00  0.00    -0.187 NA
ATOM     21  C   UNL     1      -4.488   0.617  24.748  0.00  0.00    +0.343 C 
ATOM     22  O   UNL     1      -3.851   0.962  25.141  0.00  0.00    -0.249 OA
ATOM     23  N   UNL     1      -5.189   1.038  24.649  0.00  0.00    -0.161 NA
BRANCH  23  24
ATOM     24  C   UNL     1      -5.255   1.806  24.944  0.00  0.00    +0.075 A 
ATOM     25  C   UNL     1      -5.657   1.945  25.650  0.00  0.00    +0.018 A 
ATOM     26  C   UNL     1      -5.722   2.713  25.944  0.00  0.00    +0.013 A 
ATOM     27  C   UNL     1      -5.384   3.342  25.531  0.00  0.00    +0.058 A 
ATOM     28 CL   UNL     1      -5.449   4.111  25.825  0.00  0.00    -0.082 Cl
ATOM     29  C   UNL     1      -4.982   3.204  24.824  0.00  0.00    +0.013 A 
ATOM     30  C   UNL     1      -4.917   2.436  24.530  0.00  0.00    +0.018 A 
ENDBRANCH  23  24
ENDBRANCH  16  20
TORSDOF 5
ENDMDL
MODEL 10
REMARK VINA RESULT:      -9.6      3.001      4.793
REMARK  Name = 
REMARK  5 active torsions:
REMARK  status: ('A' for Active; 'I' for Inactive)
REMARK    1  A    between atoms: O_2  and  C_3
REMARK    2  A    between atoms: C_6  and  C_9
REMARK    3  A    between atoms: C_12  and  C_14
REMARK    4  A    between atoms: C_16  and  N_20
REMARK    5  A    between atoms: N_23  and  C_24
REMARK                            x       y       z     vdW  Elec       q    Type
REMARK                         _______ _______ _______ _____ _____    ______ ____
ROOT
ATOM     14  C   UNL     1      -1.209   3.497  25.336  0.00  0.00    +0.139 C 
ATOM     15  C   UNL     1      -1.959   3.317  25.627  0.00  0.00    +0.049 C 
ATOM     16  C   UNL     1      -2.399   4.015  25.649  0.00  0.00    +0.115 C 
ATOM     17  C   UNL     1      -1.920   4.627  25.370  0.00  0.00    +0.094 C 
ATOM     18  N   UNL     1      -1.185   4.307  25.177  0.00  0.00    -0.264 NA
ATOM     19  C   UNL     1      -0.538   4.723  24.878  0.00  0.00    +0.090 C 
ENDROOT
BRANCH  14  12
ATOM      9  C   UNL     1       0.186   2.012  24.698  0.00  0.00    +0.203 A 
ATOM     10  N   UNL     1       0.534   2.266  25.402  0.00  0.00    -0.056 NA
ATOM     11  O   UNL     1       0.054   2.853  25.726  0.00  0.00    -0.336 OA
ATOM     12  C   UNL     1      -0.591   2.962  25.223  0.00  0.00    +0.251 A 
ATOM     13  N   UNL     1      -0.509   2.442  24.588  0.00  0.00    -0.190 NA
BRANCH   9   6
ATOM      3  C   UNL     1       1.072   0.266  23.185  0.00  0.00    +0.139 A 
ATOM      4  C   UNL     1       0.314   0.192  23.500  0.00  0.00    +0.037 A 
ATOM      5  C   UNL     1       0.019   0.774  24.005  0.00  0.00    +0.006 A 
ATOM      6  C   UNL     1       0.481   1.430  24.194  0.00  0.00    +0.039 A 
ATOM      7  C   UNL     1       1.241   1.504  23.878  0.00  0.00    +0.006 A 
ATOM      8  C   UNL     1       1.536   0.922  23.373  0.00  0.00    +0.037 A 
BRANCH   3   2
ATOM      1  C   UNL     1       2.054  -0.174  22.243  0.00  0.00    +0.252 C 
ATOM      2  O   UNL     1       1.368  -0.316  22.679  0.00  0.00    -0.471 OA
ENDBRANCH   3   2
ENDBRANCH   9   6
ENDBRANCH  14  12
BRANCH  16  20
ATOM     20  N   UNL     1      -3.180   4.088  25.903  0.00  0.00    -0.187 NA
ATOM     21  C   UNL     1      -3.747   3.538  25.662  0.00  0.00    +0.343 C 
ATOM     22  O   UNL     1      -3.531   2.916  25.166  0.00  0.00    -0.249 OA
ATOM     23  N   UNL     1      -4.527   3.612  25.916  0.00  0.00    -0.161 NA
BRANCH  23  24
ATOM     24  C   UNL     1      -5.093   3.063  25.675  0.00  0.00    +0.075 A 
ATOM     25  C   UNL     1      -5.259   2.966  24.873  0.00  0.00    +0.018 A 
ATOM     26  C   UNL     1      -5.826   2.416  24.632  0.00  0.00    +0.013 A 
ATOM     27  C   UNL     1      -6.227   1.964  25.195  0.00  0.00    +0.058 A 
ATOM     28 CL   UNL     1      -6.794   1.414  24.954  0.00  0.00    -0.082 Cl
ATOM     29  C   UNL     1      -6.061   2.062  25.997  0.00  0.00    +0.013 A 
ATOM     30  C   UNL     1      -5.494   2.611  26.238  0.00  0.00    +0.018 A 
ENDBRANCH  23  24
ENDBRANCH  16  20
TORSDOF 5
ENDMDL
