MODEL 1
REMARK VINA RESULT:     -12.8      0.000      0.000
REMARK  Name = 
REMARK  4 active torsions:
REMARK  status: ('A' for Active; 'I' for Inactive)
REMARK    1  A    between atoms: C_7  and  C_9
REMARK    2  A    between atoms: N_12  and  C_13
REMARK    3  A    between atoms: C_13  and  C_14
REMARK    4  A    between atoms: C_17  and  S_20
REMARK                            x       y       z     vdW  Elec       q    Type
REMARK                         _______ _______ _______ _____ _____    ______ ____
ROOT
ATOM      9  C   UNL     1      -4.704   1.053  25.054  0.00  0.00    +0.076 C 
ATOM     10  C   UNL     1      -5.333   1.285  25.535  0.00  0.00    +0.026 C 
ATOM     11  C   UNL     1      -5.377   2.109  25.519  0.00  0.00    +0.073 C 
ATOM     12  N   UNL     1      -4.775   2.386  25.028  0.00  0.00    -0.269 NA
ATOM     24  C   UNL     1      -4.359   1.734  24.741  0.00  0.00    +0.080 C 
ENDROOT
BRANCH   9   7
ATOM      1  C   UNL     1      -3.115  -2.961  25.070  0.00  0.00    +0.031 C 
ATOM      2  C   UNL     1      -3.498  -2.275  24.820  0.00  0.00    -0.020 A 
ATOM      3  C   UNL     1      -3.533  -1.618  25.317  0.00  0.00    +0.016 A 
ATOM      4  C   UNL     1      -3.917  -0.931  25.067  0.00  0.00    +0.100 A 
ATOM      5  C   UNL     1      -4.265  -0.902  24.320  0.00  0.00    +0.100 A 
ATOM      6  N   UNL     1      -4.602  -0.156  24.224  0.00  0.00    -0.229 NA
ATOM      7  C   UNL     1      -4.462   0.277  24.912  0.00  0.00    +0.140 A 
ATOM      8  N   UNL     1      -4.039  -0.202  25.432  0.00  0.00    -0.229 NA
ATOM     25  C   UNL     1      -4.230  -1.560  23.822  0.00  0.00    +0.020 A 
ATOM     26  C   UNL     1      -3.846  -2.246  24.073  0.00  0.00    -0.003 A 
ENDBRANCH   9   7
BRANCH  12  13
ATOM     13  C   UNL     1      -4.616   3.177  24.855  0.00  0.00    +0.099 C 
BRANCH  13  14
ATOM     14  C   UNL     1      -3.849   3.471  24.935  0.00  0.00    -0.006 A 
ATOM     15  C   UNL     1      -3.580   3.726  25.673  0.00  0.00    -0.002 A 
ATOM     16  C   UNL     1      -2.814   4.020  25.752  0.00  0.00    +0.018 A 
ATOM     17  C   UNL     1      -2.316   4.060  25.096  0.00  0.00    +0.106 A 
ATOM     18  C   UNL     1      -2.585   3.805  24.358  0.00  0.00    +0.018 A 
ATOM     19  C   UNL     1      -3.352   3.511  24.278  0.00  0.00    -0.002 A 
BRANCH  17  20
ATOM     20  S   UNL     1      -1.550   4.355  25.176  0.00  0.00    +0.010 S 
ATOM     21  C   UNL     1      -0.783   4.648  25.257  0.00  0.00    +0.182 C 
ATOM     22  O   UNL     1      -1.262   3.585  25.251  0.00  0.00    -0.169 OA
ATOM     23  O   UNL     1      -1.838   5.124  25.102  0.00  0.00    -0.169 OA
ENDBRANCH  17  20
ENDBRANCH  13  14
ENDBRANCH  12  13
TORSDOF 4
ENDMDL
MODEL 2
REMARK VINA RESULT:     -12.5      2.372      5.266
REMARK  Name = 
REMARK  4 active torsions:
REMARK  status: ('A' for Active; 'I' for Inactive)
REMARK    1  A    between atoms: C_7  and  C_9
REMARK    2  A    between atoms: N_12  and  C_13
REMARK    3  A    between atoms: C_13  and  C_14
REMARK    4  A    between atoms: C_17  and  S_20
REMARK                            x       y       z     vdW  Elec       q    Type
REMARK                         _______ _______ _______ _____ _____    ______ ____
ROOT
ATOM      9  C   UNL     1      -3.765   2.227  24.822  0.00  0.00    +0.076 C 
ATOM     10  C   UNL     1      -4.409   2.233  24.307  0.00  0.00    +0.026 C 
ATOM     11  C   UNL     1      -4.830   1.532  24.415  0.00  0.00    +0.073 C 
ATOM     12  N   UNL     1      -4.445   1.092  24.998  0.00  0.00    -0.269 NA
ATOM     24  C   UNL     1      -3.787   1.523  25.249  0.00  0.00    +0.080 C 
ENDROOT
BRANCH   9   7
ATOM      1  C   UNL     1      -0.315   4.822  24.781  0.00  0.00    +0.031 C 
ATOM      2  C   UNL     1      -1.075   4.537  24.928  0.00  0.00    -0.020 A 
ATOM      3  C   UNL     1      -1.297   3.792  24.652  0.00  0.00    +0.016 A 
ATOM      4  C   UNL     1      -2.057   3.507  24.799  0.00  0.00    +0.100 A 
ATOM      5  C   UNL     1      -2.595   3.967  25.221  0.00  0.00    +0.100 A 
ATOM      6  N   UNL     1      -3.301   3.544  25.281  0.00  0.00    -0.229 NA
ATOM      7  C   UNL     1      -3.198   2.822  24.896  0.00  0.00    +0.140 A 
ATOM      8  N   UNL     1      -2.429   2.800  24.598  0.00  0.00    -0.229 NA
ATOM     25  C   UNL     1      -2.374   4.713  25.497  0.00  0.00    +0.020 A 
ATOM     26  C   UNL     1      -1.614   4.998  25.350  0.00  0.00    -0.003 A 
ENDBRANCH   9   7
BRANCH  12  13
ATOM     13  C   UNL     1      -4.678   0.353  25.281  0.00  0.00    +0.099 C 
BRANCH  13  14
ATOM     14  C   UNL     1      -4.231  -0.317  25.100  0.00  0.00    -0.006 A 
ATOM     15  C   UNL     1      -4.306  -0.675  24.360  0.00  0.00    -0.002 A 
ATOM     16  C   UNL     1      -3.859  -1.345  24.180  0.00  0.00    +0.018 A 
ATOM     17  C   UNL     1      -3.339  -1.657  24.738  0.00  0.00    +0.106 A 
ATOM     18  C   UNL     1      -3.265  -1.300  25.478  0.00  0.00    +0.018 A 
ATOM     19  C   UNL     1      -3.711  -0.629  25.659  0.00  0.00    -0.002 A 
BRANCH  17  20
ATOM     20  S   UNL     1      -2.894  -2.327  24.557  0.00  0.00    +0.010 S 
ATOM     21  C   UNL     1      -2.447  -2.997  24.376  0.00  0.00    +0.182 C 
ATOM     22  O   UNL     1      -2.251  -1.847  24.363  0.00  0.00    -0.169 OA
ATOM     23  O   UNL     1      -3.535  -2.807  24.752  0.00  0.00    -0.169 OA
ENDBRANCH  17  20
ENDBRANCH  13  14
ENDBRANCH  12  13
TORSDOF 4
ENDMDL
MODEL 3
REMARK VINA RESULT:     -11.9      3.054      5.895
REMARK  Name = 
REMARK  4 active torsions:
REMARK  status: ('A' for Active; 'I' for Inactive)
REMARK    1  A    between atoms: C_7  and  C_9
REMARK    2  A    between atoms: N_12  and  C_13
REMARK    3  A    between atoms: C_13  and  C_14
REMARK    4  A    between atoms: C_17  and  S_20
REMARK                            x       y       z     vdW  Elec       q    Type
REMARK                         _______ _______ _______ _____ _____    ______ ____
ROOT
ATOM      9  C   UNL     1      -1.083   1.370  25.095  0.00  0.00    +0.076 C 
ATOM     10  C   UNL     1      -0.536   0.999  24.602  0.00  0.00    +0.026 C 
ATOM     11  C   UNL     1      -0.568   0.188  24.751  0.00  0.00    +0.073 C 
ATOM     12  N   UNL     1      -1.134   0.058  25.336  0.00  0.00    -0.269 NA
ATOM     24  C   UNL     1      -1.453   0.789  25.549  0.00  0.00    +0.080 C 
ENDROOT
BRANCH   9   7
ATOM      1  C   UNL     1      -1.094   5.686  24.996  0.00  0.00    +0.031 C 
ATOM      2  C   UNL     1      -1.345   4.908  25.103  0.00  0.00    -0.020 A 
ATOM      3  C   UNL     1      -0.833   4.283  24.938  0.00  0.00    +0.016 A 
ATOM      4  C   UNL     1      -1.084   3.504  25.045  0.00  0.00    +0.100 A 
ATOM      5  C   UNL     1      -1.848   3.351  25.316  0.00  0.00    +0.100 A 
ATOM      6  N   UNL     1      -1.940   2.533  25.367  0.00  0.00    -0.229 NA
ATOM      7  C   UNL     1      -1.234   2.181  25.129  0.00  0.00    +0.140 A 
ATOM      8  N   UNL     1      -0.705   2.781  24.929  0.00  0.00    -0.229 NA
ATOM     25  C   UNL     1      -2.361   3.976  25.480  0.00  0.00    +0.020 A 
ATOM     26  C   UNL     1      -2.109   4.755  25.373  0.00  0.00    -0.003 A 
ENDBRANCH   9   7
BRANCH  12  13
ATOM     13  C   UNL     1      -1.346  -0.673  25.653  0.00  0.00    +0.099 C 
BRANCH  13  14
ATOM     14  C   UNL     1      -1.946  -1.118  25.302  0.00  0.00    -0.006 A 
ATOM     15  C   UNL     1      -2.727  -1.028  25.553  0.00  0.00    -0.002 A 
ATOM     16  C   UNL     1      -3.326  -1.473  25.201  0.00  0.00    +0.018 A 
ATOM     17  C   UNL     1      -3.145  -2.007  24.599  0.00  0.00    +0.106 A 
ATOM     18  C   UNL     1      -2.364  -2.097  24.349  0.00  0.00    +0.018 A 
ATOM     19  C   UNL     1      -1.764  -1.652  24.700  0.00  0.00    -0.002 A 
BRANCH  17  20
ATOM     20  S   UNL     1      -3.744  -2.452  24.248  0.00  0.00    +0.010 S 
ATOM     21  C   UNL     1      -4.345  -2.896  23.897  0.00  0.00    +0.182 C 
ATOM     22  O   UNL     1      -3.974  -1.793  23.807  0.00  0.00    -0.169 OA
ATOM     23  O   UNL     1      -3.515  -3.109  24.690  0.00  0.00    -0.169 OA
ENDBRANCH  17  20
ENDBRANCH  13  14
ENDBRANCH  12  13
TORSDOF 4
ENDMDL
MODEL 4
REMARK VINA RESULT:     -11.8      2.057      2.769
REMARK  Name = 
REMARK  4 active torsions:
REMARK  status: ('A' for Active; 'I' for Inactive)
REMARK    1  A    between atoms: C_7  and  C_9
REMARK    2  A    between atoms: N_12  and  C_13
REMARK    3  A    between atoms: C_13  and  C_14
REMARK    4  A    between atoms: C_17  and  S_20
REMARK                            x       y       z     vdW  Elec       q    Type
REMARK                         _______ _______ _______ _____ _____    ______ ____
ROOT
ATOM      9  C   UNL     1      -1.202   0.192  24.621  0.00  0.00    +0.076 C 
ATOM     10  C   UNL     1      -0.554   0.262  24.115  0.00  0.00    +0.026 C 
ATOM     11  C   UNL     1      -0.085   0.885  24.385  0.00  0.00    +0.073 C 
ATOM     12  N   UNL     1      -0.443   1.200  25.058  0.00  0.00    -0.269 NA
ATOM     24  C   UNL     1      -1.134   0.772  25.203  0.00  0.00    +0.080 C 
ENDROOT
BRANCH   9   7
ATOM      1  C   UNL     1      -3.801  -3.251  24.469  0.00  0.00    +0.031 C 
ATOM      2  C   UNL     1      -3.538  -2.470  24.433  0.00  0.00    -0.020 A 
ATOM      3  C   UNL     1      -2.747  -2.295  24.583  0.00  0.00    +0.016 A 
ATOM      4  C   UNL     1      -2.483  -1.513  24.547  0.00  0.00    +0.100 A 
ATOM      5  C   UNL     1      -3.012  -0.908  24.361  0.00  0.00    +0.100 A 
ATOM      6  N   UNL     1      -2.597  -0.196  24.366  0.00  0.00    -0.229 NA
ATOM      7  C   UNL     1      -1.811  -0.361  24.555  0.00  0.00    +0.140 A 
ATOM      8  N   UNL     1      -1.741  -1.175  24.666  0.00  0.00    -0.229 NA
ATOM     25  C   UNL     1      -3.805  -1.084  24.210  0.00  0.00    +0.020 A 
ATOM     26  C   UNL     1      -4.067  -1.865  24.247  0.00  0.00    -0.003 A 
ENDBRANCH   9   7
BRANCH  12  13
ATOM     13  C   UNL     1      -0.162   1.832  25.507  0.00  0.00    +0.099 C 
BRANCH  13  14
ATOM     14  C   UNL     1      -0.501   2.580  25.425  0.00  0.00    -0.006 A 
ATOM     15  C   UNL     1      -0.290   3.061  24.788  0.00  0.00    -0.002 A 
ATOM     16  C   UNL     1      -0.630   3.809  24.707  0.00  0.00    +0.018 A 
ATOM     17  C   UNL     1      -1.178   4.076  25.262  0.00  0.00    +0.106 A 
ATOM     18  C   UNL     1      -1.389   3.595  25.899  0.00  0.00    +0.018 A 
ATOM     19  C   UNL     1      -1.050   2.846  25.980  0.00  0.00    -0.002 A 
BRANCH  17  20
ATOM     20  S   UNL     1      -1.517   4.823  25.180  0.00  0.00    +0.010 S 
ATOM     21  C   UNL     1      -1.855   5.572  25.098  0.00  0.00    +0.182 C 
ATOM     22  O   UNL     1      -0.777   5.139  24.996  0.00  0.00    -0.169 OA
ATOM     23  O   UNL     1      -2.256   4.508  25.363  0.00  0.00    -0.169 OA
ENDBRANCH  17  20
ENDBRANCH  13  14
ENDBRANCH  12  13
TORSDOF 4
ENDMDL
MODEL 5
REMARK VINA RESULT:     -10.5      2.068      2.719
REMARK  Name = 
REMARK  4 active torsions:
REMARK  status: ('A' for Active; 'I' for Inactive)
REMARK    1  A    between atoms: C_7  and  C_9
REMARK    2  A    between atoms: N_12  and  C_13
REMARK    3  A    between atoms: C_13  and  C_14
REMARK    4  A    between atoms: C_17  and  S_20
REMARK                            x       y       z     vdW  Elec       q    Type
REMARK                         _______ _______ _______ _____ _____    ______ ____
ROOT
ATOM      9  C   UNL     1      -1.668   0.729  25.008  0.00  0.00    +0.076 C 
ATOM     10  C   UNL     1      -1.010   1.017  25.414  0.00  0.00    +0.026 C 
ATOM     11  C   UNL     1      -1.032   1.841  25.385  0.00  0.00    +0.073 C 
ATOM     12  N   UNL     1      -1.704   2.063  24.960  0.00  0.00    -0.269 NA
ATOM     24  C   UNL     1      -2.096   1.375  24.728  0.00  0.00    +0.080 C 
ENDROOT
BRANCH   9   7
ATOM      1  C   UNL     1      -3.464  -3.171  24.568  0.00  0.00    +0.031 C 
ATOM      2  C   UNL     1      -2.897  -2.574  24.607  0.00  0.00    -0.020 A 
ATOM      3  C   UNL     1      -3.127  -1.796  24.752  0.00  0.00    +0.016 A 
ATOM      4  C   UNL     1      -2.561  -1.197  24.791  0.00  0.00    +0.100 A 
ATOM      5  C   UNL     1      -1.763  -1.378  24.685  0.00  0.00    +0.100 A 
ATOM      6  N   UNL     1      -1.331  -0.679  24.753  0.00  0.00    -0.229 NA
ATOM      7  C   UNL     1      -1.862  -0.066  24.902  0.00  0.00    +0.140 A 
ATOM      8  N   UNL     1      -2.621  -0.387  24.925  0.00  0.00    -0.229 NA
ATOM     25  C   UNL     1      -1.532  -2.158  24.539  0.00  0.00    +0.020 A 
ATOM     26  C   UNL     1      -2.099  -2.755  24.500  0.00  0.00    -0.003 A 
ENDBRANCH   9   7
BRANCH  12  13
ATOM     13  C   UNL     1      -1.942   2.835  24.797  0.00  0.00    +0.099 C 
BRANCH  13  14
ATOM     14  C   UNL     1      -2.715   3.073  24.962  0.00  0.00    -0.006 A 
ATOM     15  C   UNL     1      -3.298   3.014  24.380  0.00  0.00    -0.002 A 
ATOM     16  C   UNL     1      -4.070   3.252  24.546  0.00  0.00    +0.018 A 
ATOM     17  C   UNL     1      -4.260   3.549  25.291  0.00  0.00    +0.106 A 
ATOM     18  C   UNL     1      -3.677   3.609  25.873  0.00  0.00    +0.018 A 
ATOM     19  C   UNL     1      -2.904   3.371  25.708  0.00  0.00    -0.002 A 
BRANCH  17  20
ATOM     20  S   UNL     1      -5.032   3.787  25.456  0.00  0.00    +0.010 S 
ATOM     21  C   UNL     1      -5.805   4.025  25.622  0.00  0.00    +0.182 C 
ATOM     22  O   UNL     1      -5.198   3.038  25.759  0.00  0.00    -0.169 OA
ATOM     23  O   UNL     1      -4.866   4.536  25.154  0.00  0.00    -0.169 OA
ENDBRANCH  17  20
ENDBRANCH  13  14
ENDBRANCH  12  13
TORSDOF 4
ENDMDL
MODEL 6
REMARK VINA RESULT:      -9.8      2.881      4.342
REMARK  Name = 
REMARK  4 active torsions:
REMARK  status: ('A' for Active; 'I' for Inactive)
REMARK    1  A    between atoms: C_7  and  C_9
REMARK    2  A    between atoms: N_12  and  C_13
REMARK    3  A    between atoms: C_13  and  C_14
REMARK    4  A    between atoms: C_17  and  S_20
REMARK                            x       y       z     vdW  Elec       q    Type
REMARK                         _______ _______ _______ _____ _____    ______ ____
ROOT
ATOM      9  C   UNL     1      -2.513   3.410  25.398  0.00  0.00    +0.076 C 
ATOM     10  C   UNL     1      -2.189   4.164  25.312  0.00  0.00    +0.026 C 
ATOM     11  C   UNL     1      -1.367   4.096  25.354  0.00  0.00    +0.073 C 
ATOM     12  N   UNL     1      -1.184   3.299  25.467  0.00  0.00    -0.269 NA
ATOM     24  C   UNL     1      -1.892   2.876  25.493  0.00  0.00    +0.080 C 
ENDROOT
BRANCH   9   7
ATOM      1  C   UNL     1      -6.473   1.749  24.959  0.00  0.00    +0.031 C 
ATOM      2  C   UNL     1      -5.861   2.262  25.164  0.00  0.00    -0.020 A 
ATOM      3  C   UNL     1      -5.082   2.072  24.973  0.00  0.00    +0.016 A 
ATOM      4  C   UNL     1      -4.469   2.585  25.178  0.00  0.00    +0.100 A 
ATOM      5  C   UNL     1      -4.636   3.289  25.574  0.00  0.00    +0.100 A 
ATOM      6  N   UNL     1      -3.924   3.684  25.705  0.00  0.00    -0.229 NA
ATOM      7  C   UNL     1      -3.316   3.224  25.389  0.00  0.00    +0.140 A 
ATOM      8  N   UNL     1      -3.654   2.545  25.064  0.00  0.00    -0.229 NA
ATOM     25  C   UNL     1      -5.416   3.480  25.765  0.00  0.00    +0.020 A 
ATOM     26  C   UNL     1      -6.028   2.966  25.560  0.00  0.00    -0.003 A 
ENDBRANCH   9   7
BRANCH  12  13
ATOM     13  C   UNL     1      -0.426   2.982  25.539  0.00  0.00    +0.099 C 
BRANCH  13  14
ATOM     14  C   UNL     1      -0.196   2.348  25.063  0.00  0.00    -0.006 A 
ATOM     15  C   UNL     1       0.155   2.489  24.329  0.00  0.00    -0.002 A 
ATOM     16  C   UNL     1       0.384   1.856  23.854  0.00  0.00    +0.018 A 
ATOM     17  C   UNL     1       0.263   1.081  24.111  0.00  0.00    +0.106 A 
ATOM     18  C   UNL     1      -0.088   0.940  24.844  0.00  0.00    +0.018 A 
ATOM     19  C   UNL     1      -0.318   1.574  25.321  0.00  0.00    -0.002 A 
BRANCH  17  20
ATOM     20  S   UNL     1       0.493   0.448  23.635  0.00  0.00    +0.010 S 
ATOM     21  C   UNL     1       0.722  -0.186  23.159  0.00  0.00    +0.182 C 
ATOM     22  O   UNL     1      -0.226   0.073  23.787  0.00  0.00    -0.169 OA
ATOM     23  O   UNL     1       1.212   0.823  23.483  0.00  0.00    -0.169 OA
ENDBRANCH  17  20
ENDBRANCH  13  14
ENDBRANCH  12  13
TORSDOF 4
ENDMDL
MODEL 7
REMARK VINA RESULT:      -9.8      3.267      4.102
REMARK  Name = 
REMARK  4 active torsions:
REMARK  status: ('A' for Active; 'I' for Inactive)
REMARK    1  A    between atoms: C_7  and  C_9
REMARK    2  A    between atoms: N_12  and  C_13
REMARK    3  A    between atoms: C_13  and  C_14
REMARK    4  A    between atoms: C_17  and  S_20
REMARK                            x       y       z     vdW  Elec       q    Type
REMARK                         _______ _______ _______ _____ _____    ______ ____
ROOT
ATOM      9  C   UNL     1      -0.807   2.550  24.882  0.00  0.00    +0.076 C 
ATOM     10  C   UNL     1      -0.587   2.892  25.600  0.00  0.00    +0.026 C 
ATOM     11  C   UNL     1      -1.119   3.500  25.768  0.00  0.00    +0.073 C 
ATOM     12  N   UNL     1      -1.668   3.534  25.153  0.00  0.00    -0.269 NA
ATOM     24  C   UNL     1      -1.475   2.947  24.606  0.00  0.00    +0.080 C 
ENDROOT
BRANCH   9   7
ATOM      1  C   UNL     1       1.760  -0.168  22.725  0.00  0.00    +0.031 C 
ATOM      2  C   UNL     1       1.127   0.123  23.165  0.00  0.00    -0.020 A 
ATOM      3  C   UNL     1       1.100   0.919  23.374  0.00  0.00    +0.016 A 
ATOM      4  C   UNL     1       0.466   1.210  23.814  0.00  0.00    +0.100 A 
ATOM      5  C   UNL     1      -0.142   0.703  24.045  0.00  0.00    +0.100 A 
ATOM      6  N   UNL     1      -0.693   1.143  24.473  0.00  0.00    -0.229 NA
ATOM      7  C   UNL     1      -0.425   1.922  24.507  0.00  0.00    +0.140 A 
ATOM      8  N   UNL     1       0.291   1.963  24.100  0.00  0.00    -0.229 NA
ATOM     25  C   UNL     1      -0.116  -0.095  23.836  0.00  0.00    +0.020 A 
ATOM     26  C   UNL     1       0.518  -0.385  23.395  0.00  0.00    -0.003 A 
ENDBRANCH   9   7
BRANCH  12  13
ATOM     13  C   UNL     1      -2.299   4.061  25.095  0.00  0.00    +0.099 C 
BRANCH  13  14
ATOM     14  C   UNL     1      -3.073   3.793  25.198  0.00  0.00    -0.006 A 
ATOM     15  C   UNL     1      -3.407   3.777  25.953  0.00  0.00    -0.002 A 
ATOM     16  C   UNL     1      -4.180   3.509  26.054  0.00  0.00    +0.018 A 
ATOM     17  C   UNL     1      -4.620   3.257  25.404  0.00  0.00    +0.106 A 
ATOM     18  C   UNL     1      -4.286   3.273  24.649  0.00  0.00    +0.018 A 
ATOM     19  C   UNL     1      -3.512   3.541  24.546  0.00  0.00    -0.002 A 
BRANCH  17  20
ATOM     20  S   UNL     1      -5.393   2.989  25.507  0.00  0.00    +0.010 S 
ATOM     21  C   UNL     1      -6.167   2.721  25.610  0.00  0.00    +0.182 C 
ATOM     22  O   UNL     1      -5.605   3.721  25.824  0.00  0.00    -0.169 OA
ATOM     23  O   UNL     1      -5.181   2.258  25.190  0.00  0.00    -0.169 OA
ENDBRANCH  17  20
ENDBRANCH  13  14
ENDBRANCH  12  13
TORSDOF 4
ENDMDL
