MODEL 1
REMARK VINA RESULT:     -13.5      0.000      0.000
REMARK  Name = 
REMARK  5 active torsions:
REMARK  status: ('A' for Active; 'I' for Inactive)
REMARK    1  A    between atoms: C_2  and  C_4
REMARK    2  A    between atoms: C_7  and  C_8
REMARK    3  A    between atoms: C_8  and  N_9
REMARK    4  A    between atoms: C_12  and  C_14
REMARK    5  A    between atoms: C_20  and  C_23
REMARK                            x       y       z     vdW  Elec       q    Type
REMARK                         _______ _______ _______ _____ _____    ______ ____
ROOT
ATOM      9  N   UNL     1      -4.780   2.600  25.146  0.00  0.00    -0.269 NA
ATOM     10  C   UNL     1      -5.405   2.307  25.598  0.00  0.00    +0.073 C 
ATOM     11  C   UNL     1      -5.370   1.482  25.576  0.00  0.00    +0.026 C 
ATOM     12  C   UNL     1      -4.723   1.267  25.111  0.00  0.00    +0.076 C 
ATOM     13  C   UNL     1      -4.359   1.957  24.845  0.00  0.00    +0.080 C 
ENDROOT
BRANCH  12  14
ATOM     14  C   UNL     1      -4.483   0.496  24.942  0.00  0.00    +0.140 A 
ATOM     15  N   UNL     1      -4.708   0.051  24.285  0.00  0.00    -0.229 NA
ATOM     16  C   UNL     1      -4.340  -0.685  24.337  0.00  0.00    +0.100 A 
ATOM     17  C   UNL     1      -3.888  -0.695  25.027  0.00  0.00    +0.100 A 
ATOM     18  N   UNL     1      -3.976   0.034  25.401  0.00  0.00    -0.229 NA
ATOM     19  C   UNL     1      -3.454  -1.369  25.225  0.00  0.00    +0.025 A 
ATOM     20  C   UNL     1      -3.472  -2.031  24.734  0.00  0.00    +0.073 A 
ATOM     21  C   UNL     1      -3.924  -2.020  24.044  0.00  0.00    +0.005 A 
ATOM     22  C   UNL     1      -4.358  -1.348  23.845  0.00  0.00    +0.021 A 
BRANCH  20  23
ATOM     23  C   UNL     1      -3.039  -2.703  24.932  0.00  0.00    +0.419 C 
ATOM     24  F   UNL     1      -2.605  -3.377  25.131  0.00  0.00    -0.166 F 
ATOM     25  F   UNL     1      -2.427  -2.456  24.437  0.00  0.00    -0.166 F 
ATOM     26  F   UNL     1      -3.650  -2.952  25.427  0.00  0.00    -0.166 F 
ENDBRANCH  20  23
ENDBRANCH  12  14
BRANCH   9   8
ATOM      8  C   UNL     1      -4.607   3.396  25.017  0.00  0.00    +0.099 C 
BRANCH   8   7
ATOM      4  C   UNL     1      -2.281   4.209  25.244  0.00  0.00    +0.080 A 
ATOM      5  C   UNL     1      -2.571   3.991  24.503  0.00  0.00    +0.006 A 
ATOM      6  C   UNL     1      -3.346   3.719  24.427  0.00  0.00    -0.003 A 
ATOM      7  C   UNL     1      -3.831   3.667  25.093  0.00  0.00    -0.006 A 
ATOM     27  C   UNL     1      -3.541   3.886  25.833  0.00  0.00    -0.003 A 
ATOM     28  C   UNL     1      -2.765   4.157  25.909  0.00  0.00    +0.006 A 
BRANCH   4   2
ATOM      1  O   UNL     1      -1.340   5.286  25.243  0.00  0.00    -0.241 OA
ATOM      2  C   UNL     1      -1.505   4.481  25.319  0.00  0.00    +0.388 C 
ATOM      3  O   UNL     1      -0.894   3.947  25.469  0.00  0.00    -0.241 OA
ENDBRANCH   4   2
ENDBRANCH   8   7
ENDBRANCH   9   8
TORSDOF 5
ENDMDL
MODEL 2
REMARK VINA RESULT:     -13.3      3.299      5.656
REMARK  Name = 
REMARK  5 active torsions:
REMARK  status: ('A' for Active; 'I' for Inactive)
REMARK    1  A    between atoms: C_2  and  C_4
REMARK    2  A    between atoms: C_7  and  C_8
REMARK    3  A    between atoms: C_8  and  N_9
REMARK    4  A    between atoms: C_12  and  C_14
REMARK    5  A    between atoms: C_20  and  C_23
REMARK                            x       y       z     vdW  Elec       q    Type
REMARK                         _______ _______ _______ _____ _____    ______ ____
ROOT
ATOM      9  N   UNL     1      -4.487   0.797  24.972  0.00  0.00    -0.269 NA
ATOM     10  C   UNL     1      -4.843   1.194  24.342  0.00  0.00    +0.073 C 
ATOM     11  C   UNL     1      -4.489   1.937  24.276  0.00  0.00    +0.026 C 
ATOM     12  C   UNL     1      -3.914   1.999  24.866  0.00  0.00    +0.076 C 
ATOM     13  C   UNL     1      -3.913   1.295  25.296  0.00  0.00    +0.080 C 
ENDROOT
BRANCH  12  14
ATOM     14  C   UNL     1      -3.427   2.650  25.001  0.00  0.00    +0.140 A 
ATOM     15  N   UNL     1      -3.559   3.249  25.552  0.00  0.00    -0.229 NA
ATOM     16  C   UNL     1      -2.936   3.786  25.501  0.00  0.00    +0.100 A 
ATOM     17  C   UNL     1      -2.417   3.519  24.917  0.00  0.00    +0.100 A 
ATOM     18  N   UNL     1      -2.720   2.818  24.608  0.00  0.00    -0.229 NA
ATOM     19  C   UNL     1      -1.736   3.951  24.743  0.00  0.00    +0.025 A 
ATOM     20  C   UNL     1      -1.573   4.648  25.151  0.00  0.00    +0.073 A 
ATOM     21  C   UNL     1      -2.092   4.915  25.735  0.00  0.00    +0.005 A 
ATOM     22  C   UNL     1      -2.773   4.484  25.910  0.00  0.00    +0.021 A 
BRANCH  20  23
ATOM     23  C   UNL     1      -0.892   5.079  24.977  0.00  0.00    +0.419 C 
ATOM     24  F   UNL     1      -0.211   5.511  24.802  0.00  0.00    -0.166 F 
ATOM     25  F   UNL     1      -0.433   4.404  25.098  0.00  0.00    -0.166 F 
ATOM     26  F   UNL     1      -1.350   5.755  24.855  0.00  0.00    -0.166 F 
ENDBRANCH  20  23
ENDBRANCH  12  14
BRANCH   9   8
ATOM      8  C   UNL     1      -4.672   0.037  25.233  0.00  0.00    +0.099 C 
BRANCH   8   7
ATOM      4  C   UNL     1      -3.216  -1.869  24.626  0.00  0.00    +0.080 A 
ATOM      5  C   UNL     1      -3.132  -1.504  25.360  0.00  0.00    +0.006 A 
ATOM      6  C   UNL     1      -3.617  -0.868  25.563  0.00  0.00    -0.003 A 
ATOM      7  C   UNL     1      -4.187  -0.598  25.030  0.00  0.00    -0.006 A 
ATOM     27  C   UNL     1      -4.272  -0.964  24.296  0.00  0.00    -0.003 A 
ATOM     28  C   UNL     1      -3.786  -1.600  24.094  0.00  0.00    +0.006 A 
BRANCH   4   2
ATOM      1  O   UNL     1      -1.917  -2.393  24.341  0.00  0.00    -0.241 OA
ATOM      2  C   UNL     1      -2.730  -2.505  24.424  0.00  0.00    +0.388 C 
ATOM      3  O   UNL     1      -3.058  -3.253  24.304  0.00  0.00    -0.241 OA
ENDBRANCH   4   2
ENDBRANCH   8   7
ENDBRANCH   9   8
TORSDOF 5
ENDMDL
MODEL 3
REMARK VINA RESULT:     -12.8      3.908      6.188
REMARK  Name = 
REMARK  5 active torsions:
REMARK  status: ('A' for Active; 'I' for Inactive)
REMARK    1  A    between atoms: C_2  and  C_4
REMARK    2  A    between atoms: C_7  and  C_8
REMARK    3  A    between atoms: C_8  and  N_9
REMARK    4  A    between atoms: C_12  and  C_14
REMARK    5  A    between atoms: C_20  and  C_23
REMARK                            x       y       z     vdW  Elec       q    Type
REMARK                         _______ _______ _______ _____ _____    ______ ____
ROOT
ATOM      9  N   UNL     1      -1.178  -0.305  25.329  0.00  0.00    -0.269 NA
ATOM     10  C   UNL     1      -0.552  -0.166  24.810  0.00  0.00    +0.073 C 
ATOM     11  C   UNL     1      -0.525   0.645  24.654  0.00  0.00    +0.026 C 
ATOM     12  C   UNL     1      -1.134   1.006  25.077  0.00  0.00    +0.076 C 
ATOM     13  C   UNL     1      -1.538   0.420  25.494  0.00  0.00    +0.080 C 
ENDROOT
BRANCH  12  14
ATOM     14  C   UNL     1      -1.309   1.812  25.082  0.00  0.00    +0.140 A 
ATOM     15  N   UNL     1      -2.064   2.145  25.087  0.00  0.00    -0.229 NA
ATOM     16  C   UNL     1      -1.981   2.965  25.091  0.00  0.00    +0.100 A 
ATOM     17  C   UNL     1      -1.175   3.140  25.088  0.00  0.00    +0.100 A 
ATOM     18  N   UNL     1      -0.759   2.428  25.082  0.00  0.00    -0.229 NA
ATOM     19  C   UNL     1      -0.924   3.926  25.091  0.00  0.00    +0.025 A 
ATOM     20  C   UNL     1      -1.478   4.536  25.096  0.00  0.00    +0.073 A 
ATOM     21  C   UNL     1      -2.284   4.361  25.099  0.00  0.00    +0.005 A 
ATOM     22  C   UNL     1      -2.536   3.576  25.097  0.00  0.00    +0.021 A 
BRANCH  20  23
ATOM     23  C   UNL     1      -1.227   5.321  25.099  0.00  0.00    +0.419 C 
ATOM     24  F   UNL     1      -0.976   6.108  25.102  0.00  0.00    -0.166 F 
ATOM     25  F   UNL     1      -0.639   5.136  24.551  0.00  0.00    -0.166 F 
ATOM     26  F   UNL     1      -1.815   5.508  25.647  0.00  0.00    -0.166 F 
ENDBRANCH  20  23
ENDBRANCH  12  14
BRANCH   9   8
ATOM      8  C   UNL     1      -1.404  -1.038  25.630  0.00  0.00    +0.099 C 
BRANCH   8   7
ATOM      4  C   UNL     1      -3.241  -2.303  24.558  0.00  0.00    +0.080 A 
ATOM      5  C   UNL     1      -2.464  -2.410  24.304  0.00  0.00    +0.006 A 
ATOM      6  C   UNL     1      -1.851  -1.988  24.661  0.00  0.00    -0.003 A 
ATOM      7  C   UNL     1      -2.017  -1.460  25.273  0.00  0.00    -0.006 A 
ATOM     27  C   UNL     1      -2.794  -1.352  25.527  0.00  0.00    -0.003 A 
ATOM     28  C   UNL     1      -3.407  -1.774  25.169  0.00  0.00    +0.006 A 
BRANCH   4   2
ATOM      1  O   UNL     1      -4.444  -2.324  23.786  0.00  0.00    -0.241 OA
ATOM      2  C   UNL     1      -3.854  -2.725  24.201  0.00  0.00    +0.388 C 
ATOM      3  O   UNL     1      -3.877  -3.547  24.258  0.00  0.00    -0.241 OA
ENDBRANCH   4   2
ENDBRANCH   8   7
ENDBRANCH   9   8
TORSDOF 5
ENDMDL
MODEL 4
REMARK VINA RESULT:     -12.8      2.137      2.939
REMARK  Name = 
REMARK  5 active torsions:
REMARK  status: ('A' for Active; 'I' for Inactive)
REMARK    1  A    between atoms: C_2  and  C_4
REMARK    2  A    between atoms: C_7  and  C_8
REMARK    3  A    between atoms: C_8  and  N_9
REMARK    4  A    between atoms: C_12  and  C_14
REMARK    5  A    between atoms: C_20  and  C_23
REMARK                            x       y       z     vdW  Elec       q    Type
REMARK                         _______ _______ _______ _____ _____    ______ ____
ROOT
ATOM      9  N   UNL     1      -0.296   1.537  25.269  0.00  0.00    -0.269 NA
ATOM     10  C   UNL     1       0.114   1.341  24.580  0.00  0.00    +0.073 C 
ATOM     11  C   UNL     1      -0.202   0.637  24.287  0.00  0.00    +0.026 C 
ATOM     12  C   UNL     1      -0.806   0.398  24.796  0.00  0.00    +0.076 C 
ATOM     13  C   UNL     1      -0.865   0.954  25.402  0.00  0.00    +0.080 C 
ENDROOT
BRANCH  12  14
ATOM     14  C   UNL     1      -1.271  -0.279  24.712  0.00  0.00    +0.140 A 
ATOM     15  N   UNL     1      -1.001  -1.058  24.734  0.00  0.00    -0.229 NA
ATOM     16  C   UNL     1      -1.650  -1.555  24.627  0.00  0.00    +0.100 A 
ATOM     17  C   UNL     1      -2.321  -1.084  24.538  0.00  0.00    +0.100 A 
ATOM     18  N   UNL     1      -2.087  -0.295  24.591  0.00  0.00    -0.229 NA
ATOM     19  C   UNL     1      -3.059  -1.435  24.421  0.00  0.00    +0.025 A 
ATOM     20  C   UNL     1      -3.126  -2.256  24.393  0.00  0.00    +0.073 A 
ATOM     21  C   UNL     1      -2.455  -2.727  24.481  0.00  0.00    +0.005 A 
ATOM     22  C   UNL     1      -1.717  -2.378  24.598  0.00  0.00    +0.021 A 
BRANCH  20  23
ATOM     23  C   UNL     1      -3.863  -2.606  24.276  0.00  0.00    +0.419 C 
ATOM     24  F   UNL     1      -4.601  -2.957  24.159  0.00  0.00    -0.166 F 
ATOM     25  F   UNL     1      -3.939  -2.208  23.557  0.00  0.00    -0.166 F 
ATOM     26  F   UNL     1      -3.788  -3.005  24.994  0.00  0.00    -0.166 F 
ENDBRANCH  20  23
ENDBRANCH  12  14
BRANCH   9   8
ATOM      8  C   UNL     1      -0.161   2.199  25.742  0.00  0.00    +0.099 C 
BRANCH   8   7
ATOM      4  C   UNL     1      -1.428   4.286  25.340  0.00  0.00    +0.080 A 
ATOM      5  C   UNL     1      -1.715   3.727  25.873  0.00  0.00    +0.006 A 
ATOM      6  C   UNL     1      -1.293   3.031  26.008  0.00  0.00    -0.003 A 
ATOM      7  C   UNL     1      -0.583   2.895  25.607  0.00  0.00    -0.006 A 
ATOM     27  C   UNL     1      -0.297   3.455  25.074  0.00  0.00    -0.003 A 
ATOM     28  C   UNL     1      -0.720   4.151  24.940  0.00  0.00    +0.006 A 
BRANCH   4   2
ATOM      1  O   UNL     1      -2.673   4.959  25.137  0.00  0.00    -0.241 OA
ATOM      2  C   UNL     1      -1.851   4.983  25.206  0.00  0.00    +0.388 C 
ATOM      3  O   UNL     1      -1.452   5.701  25.140  0.00  0.00    -0.241 OA
ENDBRANCH   4   2
ENDBRANCH   8   7
ENDBRANCH   9   8
TORSDOF 5
ENDMDL
MODEL 5
REMARK VINA RESULT:     -12.0      1.950      2.590
REMARK  Name = 
REMARK  5 active torsions:
REMARK  status: ('A' for Active; 'I' for Inactive)
REMARK    1  A    between atoms: C_2  and  C_4
REMARK    2  A    between atoms: C_7  and  C_8
REMARK    3  A    between atoms: C_8  and  N_9
REMARK    4  A    between atoms: C_12  and  C_14
REMARK    5  A    between atoms: C_20  and  C_23
REMARK                            x       y       z     vdW  Elec       q    Type
REMARK                         _______ _______ _______ _____ _____    ______ ____
ROOT
ATOM      9  N   UNL     1      -2.109   2.375  24.584  0.00  0.00    -0.269 NA
ATOM     10  C   UNL     1      -1.333   2.248  24.835  0.00  0.00    +0.073 C 
ATOM     11  C   UNL     1      -1.216   1.434  24.900  0.00  0.00    +0.026 C 
ATOM     12  C   UNL     1      -1.920   1.057  24.690  0.00  0.00    +0.076 C 
ATOM     13  C   UNL     1      -2.471   1.639  24.494  0.00  0.00    +0.080 C 
ENDROOT
BRANCH  12  14
ATOM     14  C   UNL     1      -2.049   0.243  24.677  0.00  0.00    +0.140 A 
ATOM     15  N   UNL     1      -1.466  -0.341  24.679  0.00  0.00    -0.229 NA
ATOM     16  C   UNL     1      -1.841  -1.075  24.663  0.00  0.00    +0.100 A 
ATOM     17  C   UNL     1      -2.656  -0.946  24.652  0.00  0.00    +0.100 A 
ATOM     18  N   UNL     1      -2.785  -0.132  24.661  0.00  0.00    -0.229 NA
ATOM     19  C   UNL     1      -3.174  -1.588  24.636  0.00  0.00    +0.025 A 
ATOM     20  C   UNL     1      -2.879  -2.357  24.630  0.00  0.00    +0.073 A 
ATOM     21  C   UNL     1      -2.064  -2.486  24.641  0.00  0.00    +0.005 A 
ATOM     22  C   UNL     1      -1.545  -1.846  24.658  0.00  0.00    +0.021 A 
BRANCH  20  23
ATOM     23  C   UNL     1      -3.398  -2.998  24.614  0.00  0.00    +0.419 C 
ATOM     24  F   UNL     1      -3.917  -3.640  24.597  0.00  0.00    -0.166 F 
ATOM     25  F   UNL     1      -3.476  -2.957  25.434  0.00  0.00    -0.166 F 
ATOM     26  F   UNL     1      -3.320  -3.040  23.793  0.00  0.00    -0.166 F 
ENDBRANCH  20  23
ENDBRANCH  12  14
BRANCH   9   8
ATOM      8  C   UNL     1      -2.461   3.108  24.446  0.00  0.00    +0.099 C 
BRANCH   8   7
ATOM      4  C   UNL     1      -4.697   3.603  25.382  0.00  0.00    +0.080 A 
ATOM      5  C   UNL     1      -4.628   3.304  24.617  0.00  0.00    +0.006 A 
ATOM      6  C   UNL     1      -3.882   3.139  24.304  0.00  0.00    -0.003 A 
ATOM      7  C   UNL     1      -3.206   3.273  24.759  0.00  0.00    -0.006 A 
ATOM     27  C   UNL     1      -3.276   3.572  25.524  0.00  0.00    -0.003 A 
ATOM     28  C   UNL     1      -4.022   3.737  25.836  0.00  0.00    +0.006 A 
BRANCH   4   2
ATOM      1  O   UNL     1      -5.858   3.184  26.105  0.00  0.00    -0.241 OA
ATOM      2  C   UNL     1      -5.444   3.768  25.694  0.00  0.00    +0.388 C 
ATOM      3  O   UNL     1      -5.776   4.516  25.594  0.00  0.00    -0.241 OA
ENDBRANCH   4   2
ENDBRANCH   8   7
ENDBRANCH   9   8
TORSDOF 5
ENDMDL
