MODEL 1
REMARK VINA RESULT:     -12.2      0.000      0.000
REMARK  Name = 
REMARK  6 active torsions:
REMARK  status: ('A' for Active; 'I' for Inactive)
REMARK    1  A    between atoms: N_4  and  C_25
REMARK    2  A    between atoms: C_7  and  C_8
REMARK    3  A    between atoms: C_10  and  N_11
REMARK    4  A    between atoms: N_14  and  C_15
REMARK    5  A    between atoms: C_17  and  C_21
REMARK    6  A    between atoms: C_28  and  C_31
REMARK                            x       y       z     vdW  Elec       q    Type
REMARK                         _______ _______ _______ _____ _____    ______ ____
ROOT
ATOM      1  C   UNL     1      -5.509   3.104  25.773  0.00  0.00    +0.054 C 
ATOM      2  C   UNL     1      -4.723   3.127  25.520  0.00  0.00    +0.077 A 
ATOM      3  N   UNL     1      -4.226   3.784  25.544  0.00  0.00    -0.170 NA
ATOM      4  N   UNL     1      -3.493   3.560  25.238  0.00  0.00    -0.234 N 
ATOM      5  C   UNL     1      -3.538   2.765  25.024  0.00  0.00    +0.058 A 
ATOM      6  C   UNL     1      -2.929   2.316  24.694  0.00  0.00    +0.052 C 
ATOM      7  C   UNL     1      -4.299   2.497  25.199  0.00  0.00    +0.010 A 
ENDROOT
BRANCH   4  25
ATOM     25  C   UNL     1      -2.831   4.047  25.159  0.00  0.00    +0.082 A 
ATOM     26  C   UNL     1      -2.280   4.095  25.771  0.00  0.00    +0.019 A 
ATOM     27  C   UNL     1      -1.618   4.581  25.692  0.00  0.00    +0.005 A 
ATOM     28  C   UNL     1      -1.508   5.019  25.002  0.00  0.00    +0.072 A 
ATOM     29  C   UNL     1      -2.059   4.971  24.390  0.00  0.00    +0.005 A 
ATOM     30  C   UNL     1      -2.721   4.484  24.469  0.00  0.00    +0.019 A 
BRANCH  28  31
ATOM     31  C   UNL     1      -0.845   5.506  24.923  0.00  0.00    +0.419 C 
ATOM     32  F   UNL     1      -0.184   5.991  24.844  0.00  0.00    -0.166 F 
ATOM     33  F   UNL     1      -1.311   6.167  25.089  0.00  0.00    -0.166 F 
ATOM     34  F   UNL     1      -0.380   4.845  24.758  0.00  0.00    -0.166 F 
ENDBRANCH  28  31
ENDBRANCH   4  25
BRANCH   7   8
ATOM      8  C   UNL     1      -4.583   1.732  25.073  0.00  0.00    +0.048 C 
ATOM      9  C   UNL     1      -4.296   1.044  25.423  0.00  0.00    +0.035 C 
ATOM     10  C   UNL     1      -4.740   0.409  25.141  0.00  0.00    +0.119 C 
ATOM     23  C   UNL     1      -5.304   0.706  24.617  0.00  0.00    -0.009 C 
ATOM     24  C   UNL     1      -5.207   1.524  24.575  0.00  0.00    -0.025 C 
BRANCH  10  11
ATOM     11  N   UNL     1      -4.641  -0.383  25.347  0.00  0.00    -0.184 NA
ATOM     12  C   UNL     1      -4.028  -0.823  25.013  0.00  0.00    +0.344 C 
ATOM     13  O   UNL     1      -3.514  -0.471  24.473  0.00  0.00    -0.249 OA
ATOM     14  N   UNL     1      -3.929  -1.616  25.220  0.00  0.00    -0.161 NA
BRANCH  14  15
ATOM     15  C   UNL     1      -3.316  -2.056  24.886  0.00  0.00    +0.076 A 
ATOM     16  C   UNL     1      -2.534  -1.893  25.090  0.00  0.00    +0.027 A 
ATOM     17  C   UNL     1      -1.920  -2.333  24.757  0.00  0.00    +0.070 A 
ATOM     18  C   UNL     1      -2.090  -2.935  24.218  0.00  0.00    +0.010 A 
ATOM     19  C   UNL     1      -2.873  -3.097  24.014  0.00  0.00    +0.002 A 
ATOM     20  C   UNL     1      -3.486  -2.658  24.348  0.00  0.00    +0.017 A 
BRANCH  17  21
ATOM     21  C   UNL     1      -1.138  -2.171  24.961  0.00  0.00    +0.100 C 
ATOM     22  N   UNL     1      -0.355  -2.009  25.166  0.00  0.00    -0.191 NA
ENDBRANCH  17  21
ENDBRANCH  14  15
ENDBRANCH  10  11
ENDBRANCH   7   8
TORSDOF 6
ENDMDL
MODEL 2
REMARK VINA RESULT:     -11.8      2.892      5.807
REMARK  Name = 
REMARK  6 active torsions:
REMARK  status: ('A' for Active; 'I' for Inactive)
REMARK    1  A    between atoms: N_4  and  C_25
REMARK    2  A    between atoms: C_7  and  C_8
REMARK    3  A    between atoms: C_10  and  N_11
REMARK    4  A    between atoms: N_14  and  C_15
REMARK    5  A    between atoms: C_17  and  C_21
REMARK    6  A    between atoms: C_28  and  C_31
REMARK                            x       y       z     vdW  Elec       q    Type
REMARK                         _______ _______ _______ _____ _____    ______ ____
ROOT
ATOM      1  C   UNL     1      -6.160   1.263  25.589  0.00  0.00    +0.054 C 
ATOM      2  C   UNL     1      -5.494   0.887  25.279  0.00  0.00    +0.077 A 
ATOM      3  N   UNL     1      -5.380   0.073  25.223  0.00  0.00    -0.170 NA
ATOM      4  N   UNL     1      -4.641  -0.058  24.880  0.00  0.00    -0.234 N 
ATOM      5  C   UNL     1      -4.299   0.676  24.724  0.00  0.00    +0.058 A 
ATOM      6  C   UNL     1      -3.559   0.804  24.381  0.00  0.00    +0.052 C 
ATOM      7  C   UNL     1      -4.826   1.261  24.970  0.00  0.00    +0.010 A 
ENDROOT
BRANCH   4  25
ATOM     25  C   UNL     1      -4.302  -0.794  24.721  0.00  0.00    +0.082 A 
ATOM     26  C   UNL     1      -3.818  -1.154  25.283  0.00  0.00    +0.019 A 
ATOM     27  C   UNL     1      -3.480  -1.891  25.124  0.00  0.00    +0.005 A 
ATOM     28  C   UNL     1      -3.627  -2.265  24.405  0.00  0.00    +0.072 A 
ATOM     29  C   UNL     1      -4.111  -1.904  23.842  0.00  0.00    +0.005 A 
ATOM     30  C   UNL     1      -4.449  -1.168  24.001  0.00  0.00    +0.019 A 
BRANCH  28  31
ATOM     31  C   UNL     1      -3.288  -3.001  24.246  0.00  0.00    +0.419 C 
ATOM     32  F   UNL     1      -2.951  -3.737  24.087  0.00  0.00    -0.166 F 
ATOM     33  F   UNL     1      -2.554  -2.641  24.138  0.00  0.00    -0.166 F 
ATOM     34  F   UNL     1      -4.023  -3.361  24.353  0.00  0.00    -0.166 F 
ENDBRANCH  28  31
ENDBRANCH   4  25
BRANCH   7   8
ATOM      8  C   UNL     1      -4.706   2.076  24.917  0.00  0.00    +0.048 C 
ATOM      9  C   UNL     1      -4.132   2.509  25.319  0.00  0.00    +0.035 C 
ATOM     10  C   UNL     1      -4.211   3.300  25.102  0.00  0.00    +0.119 C 
ATOM     23  C   UNL     1      -4.834   3.356  24.564  0.00  0.00    -0.009 C 
ATOM     24  C   UNL     1      -5.140   2.600  24.450  0.00  0.00    -0.025 C 
BRANCH  10  11
ATOM     11  N   UNL     1      -3.748   3.927  25.374  0.00  0.00    -0.184 NA
ATOM     12  C   UNL     1      -2.944   3.956  25.193  0.00  0.00    +0.344 C 
ATOM     13  O   UNL     1      -2.601   3.358  24.740  0.00  0.00    -0.249 OA
ATOM     14  N   UNL     1      -2.482   4.583  25.465  0.00  0.00    -0.161 NA
BRANCH  14  15
ATOM     15  C   UNL     1      -1.677   4.612  25.284  0.00  0.00    +0.076 A 
ATOM     16  C   UNL     1      -1.186   3.983  25.490  0.00  0.00    +0.027 A 
ATOM     17  C   UNL     1      -0.381   4.012  25.309  0.00  0.00    +0.070 A 
ATOM     18  C   UNL     1      -0.069   4.670  24.922  0.00  0.00    +0.010 A 
ATOM     19  C   UNL     1      -0.561   5.300  24.716  0.00  0.00    +0.002 A 
ATOM     20  C   UNL     1      -1.366   5.271  24.897  0.00  0.00    +0.017 A 
BRANCH  17  21
ATOM     21  C   UNL     1       0.111   3.383  25.515  0.00  0.00    +0.100 C 
ATOM     22  N   UNL     1       0.603   2.753  25.721  0.00  0.00    -0.191 NA
ENDBRANCH  17  21
ENDBRANCH  14  15
ENDBRANCH  10  11
ENDBRANCH   7   8
TORSDOF 6
ENDMDL
MODEL 3
REMARK VINA RESULT:     -11.6      4.014      5.403
REMARK  Name = 
REMARK  6 active torsions:
REMARK  status: ('A' for Active; 'I' for Inactive)
REMARK    1  A    between atoms: N_4  and  C_25
REMARK    2  A    between atoms: C_7  and  C_8
REMARK    3  A    between atoms: C_10  and  N_11
REMARK    4  A    between atoms: N_14  and  C_15
REMARK    5  A    between atoms: C_17  and  C_21
REMARK    6  A    between atoms: C_28  and  C_31
REMARK                            x       y       z     vdW  Elec       q    Type
REMARK                         _______ _______ _______ _____ _____    ______ ____
ROOT
ATOM      1  C   UNL     1      -0.558   1.679  25.472  0.00  0.00    +0.054 C 
ATOM      2  C   UNL     1      -1.275   1.446  25.137  0.00  0.00    +0.077 A 
ATOM      3  N   UNL     1      -2.013   1.777  25.294  0.00  0.00    -0.170 NA
ATOM      4  N   UNL     1      -2.574   1.376  24.840  0.00  0.00    -0.234 N 
ATOM      5  C   UNL     1      -2.182   0.797  24.403  0.00  0.00    +0.058 A 
ATOM      6  C   UNL     1      -2.531   0.268  23.875  0.00  0.00    +0.052 C 
ATOM      7  C   UNL     1      -1.378   0.840  24.587  0.00  0.00    +0.010 A 
ENDROOT
BRANCH   4  25
ATOM     25  C   UNL     1      -3.386   1.528  24.826  0.00  0.00    +0.082 A 
ATOM     26  C   UNL     1      -3.905   1.023  25.220  0.00  0.00    +0.019 A 
ATOM     27  C   UNL     1      -4.717   1.174  25.205  0.00  0.00    +0.005 A 
ATOM     28  C   UNL     1      -5.007   1.829  24.798  0.00  0.00    +0.072 A 
ATOM     29  C   UNL     1      -4.486   2.335  24.404  0.00  0.00    +0.005 A 
ATOM     30  C   UNL     1      -3.675   2.183  24.419  0.00  0.00    +0.019 A 
BRANCH  28  31
ATOM     31  C   UNL     1      -5.818   1.981  24.784  0.00  0.00    +0.419 C 
ATOM     32  F   UNL     1      -6.629   2.132  24.770  0.00  0.00    -0.166 F 
ATOM     33  F   UNL     1      -5.679   2.750  25.049  0.00  0.00    -0.166 F 
ATOM     34  F   UNL     1      -5.957   1.212  24.520  0.00  0.00    -0.166 F 
ENDBRANCH  28  31
ENDBRANCH   4  25
BRANCH   7   8
ATOM      8  C   UNL     1      -0.784   0.361  24.274  0.00  0.00    +0.048 C 
ATOM      9  C   UNL     1      -0.298   0.544  23.634  0.00  0.00    +0.035 C 
ATOM     10  C   UNL     1       0.214  -0.089  23.511  0.00  0.00    +0.119 C 
ATOM     23  C   UNL     1       0.046  -0.666  24.077  0.00  0.00    -0.009 C 
ATOM     24  C   UNL     1      -0.571  -0.388  24.548  0.00  0.00    -0.025 C 
BRANCH  10  11
ATOM     11  N   UNL     1       0.794  -0.139  22.927  0.00  0.00    -0.184 NA
ATOM     12  C   UNL     1       1.571   0.082  23.095  0.00  0.00    +0.344 C 
ATOM     13  O   UNL     1       1.769   0.354  23.848  0.00  0.00    -0.249 OA
ATOM     14  N   UNL     1       2.150   0.031  22.509  0.00  0.00    -0.161 NA
BRANCH  14  15
ATOM     15  C   UNL     1       2.927   0.253  22.678  0.00  0.00    +0.076 A 
ATOM     16  C   UNL     1       3.434  -0.277  23.056  0.00  0.00    +0.027 A 
ATOM     17  C   UNL     1       4.211  -0.056  23.224  0.00  0.00    +0.070 A 
ATOM     18  C   UNL     1       4.480   0.695  23.014  0.00  0.00    +0.010 A 
ATOM     19  C   UNL     1       3.973   1.225  22.636  0.00  0.00    +0.002 A 
ATOM     20  C   UNL     1       3.196   1.004  22.468  0.00  0.00    +0.017 A 
BRANCH  17  21
ATOM     21  C   UNL     1       4.718  -0.585  23.602  0.00  0.00    +0.100 C 
ATOM     22  N   UNL     1       5.225  -1.115  23.981  0.00  0.00    -0.191 NA
ENDBRANCH  17  21
ENDBRANCH  14  15
ENDBRANCH  10  11
ENDBRANCH   7   8
TORSDOF 6
ENDMDL
MODEL 4
REMARK VINA RESULT:     -10.4      3.873      5.189
REMARK  Name = 
REMARK  6 active torsions:
REMARK  status: ('A' for Active; 'I' for Inactive)
REMARK    1  A    between atoms: N_4  and  C_25
REMARK    2  A    between atoms: C_7  and  C_8
REMARK    3  A    between atoms: C_10  and  N_11
REMARK    4  A    between atoms: N_14  and  C_15
REMARK    5  A    between atoms: C_17  and  C_21
REMARK    6  A    between atoms: C_28  and  C_31
REMARK                            x       y       z     vdW  Elec       q    Type
REMARK                         _______ _______ _______ _____ _____    ______ ____
ROOT
ATOM      1  C   UNL     1      -0.640   0.225  25.895  0.00  0.00    +0.054 C 
ATOM      2  C   UNL     1      -1.098   0.684  25.383  0.00  0.00    +0.077 A 
ATOM      3  N   UNL     1      -1.680   1.223  25.607  0.00  0.00    -0.170 NA
ATOM      4  N   UNL     1      -1.995   1.556  24.920  0.00  0.00    -0.234 N 
ATOM      5  C   UNL     1      -1.607   1.222  24.273  0.00  0.00    +0.058 A 
ATOM      6  C   UNL     1      -1.749   1.398  23.479  0.00  0.00    +0.052 C 
ATOM      7  C   UNL     1      -1.051   0.683  24.560  0.00  0.00    +0.010 A 
ENDROOT
BRANCH   4  25
ATOM     25  C   UNL     1      -2.594   2.123  24.887  0.00  0.00    +0.082 A 
ATOM     26  C   UNL     1      -3.366   1.895  24.706  0.00  0.00    +0.019 A 
ATOM     27  C   UNL     1      -3.965   2.463  24.673  0.00  0.00    +0.005 A 
ATOM     28  C   UNL     1      -3.792   3.255  24.819  0.00  0.00    +0.072 A 
ATOM     29  C   UNL     1      -3.019   3.482  25.000  0.00  0.00    +0.005 A 
ATOM     30  C   UNL     1      -2.420   2.915  25.034  0.00  0.00    +0.019 A 
BRANCH  28  31
ATOM     31  C   UNL     1      -4.391   3.822  24.786  0.00  0.00    +0.419 C 
ATOM     32  F   UNL     1      -4.990   4.388  24.753  0.00  0.00    -0.166 F 
ATOM     33  F   UNL     1      -4.063   4.127  24.092  0.00  0.00    -0.166 F 
ATOM     34  F   UNL     1      -4.718   3.517  25.479  0.00  0.00    -0.166 F 
ENDBRANCH  28  31
ENDBRANCH   4  25
BRANCH   7   8
ATOM      8  C   UNL     1      -0.540   0.225  24.102  0.00  0.00    +0.048 C 
ATOM      9  C   UNL     1       0.045   0.509  23.596  0.00  0.00    +0.035 C 
ATOM     10  C   UNL     1       0.421  -0.138  23.251  0.00  0.00    +0.119 C 
ATOM     23  C   UNL     1       0.067  -0.824  23.545  0.00  0.00    -0.009 C 
ATOM     24  C   UNL     1      -0.527  -0.600  24.070  0.00  0.00    -0.025 C 
BRANCH  10  11
ATOM     11  N   UNL     1       1.042  -0.108  22.709  0.00  0.00    -0.184 NA
ATOM     12  C   UNL     1       1.803   0.084  22.962  0.00  0.00    +0.344 C 
ATOM     13  O   UNL     1       1.945   0.245  23.759  0.00  0.00    -0.249 OA
ATOM     14  N   UNL     1       2.424   0.114  22.419  0.00  0.00    -0.161 NA
BRANCH  14  15
ATOM     15  C   UNL     1       3.185   0.306  22.672  0.00  0.00    +0.076 A 
ATOM     16  C   UNL     1       3.647  -0.260  23.053  0.00  0.00    +0.027 A 
ATOM     17  C   UNL     1       4.409  -0.069  23.307  0.00  0.00    +0.070 A 
ATOM     18  C   UNL     1       4.707   0.689  23.179  0.00  0.00    +0.010 A 
ATOM     19  C   UNL     1       4.244   1.256  22.797  0.00  0.00    +0.002 A 
ATOM     20  C   UNL     1       3.483   1.064  22.543  0.00  0.00    +0.017 A 
BRANCH  17  21
ATOM     21  C   UNL     1       4.871  -0.635  23.689  0.00  0.00    +0.100 C 
ATOM     22  N   UNL     1       5.334  -1.202  24.071  0.00  0.00    -0.191 NA
ENDBRANCH  17  21
ENDBRANCH  14  15
ENDBRANCH  10  11
ENDBRANCH   7   8
TORSDOF 6
ENDMDL
MODEL 5
REMARK VINA RESULT:     -10.2      3.307      6.715
REMARK  Name = 
REMARK  6 active torsions:
REMARK  status: ('A' for Active; 'I' for Inactive)
REMARK    1  A    between atoms: N_4  and  C_25
REMARK    2  A    between atoms: C_7  and  C_8
REMARK    3  A    between atoms: C_10  and  N_11
REMARK    4  A    between atoms: N_14  and  C_15
REMARK    5  A    between atoms: C_17  and  C_21
REMARK    6  A    between atoms: C_28  and  C_31
REMARK                            x       y       z     vdW  Elec       q    Type
REMARK                         _______ _______ _______ _____ _____    ______ ____
ROOT
ATOM      1  C   UNL     1       0.165  -1.266  25.367  0.00  0.00    +0.054 C 
ATOM      2  C   UNL     1      -0.570  -1.167  25.004  0.00  0.00    +0.077 A 
ATOM      3  N   UNL     1      -1.168  -1.732  24.960  0.00  0.00    -0.170 NA
ATOM      4  N   UNL     1      -1.803  -1.400  24.550  0.00  0.00    -0.234 N 
ATOM      5  C   UNL     1      -1.596  -0.629  24.342  0.00  0.00    +0.058 A 
ATOM      6  C   UNL     1      -2.069  -0.096  23.926  0.00  0.00    +0.052 C 
ATOM      7  C   UNL     1      -0.833  -0.485  24.623  0.00  0.00    +0.010 A 
ENDROOT
BRANCH   4  25
ATOM     25  C   UNL     1      -2.519  -1.773  24.379  0.00  0.00    +0.082 A 
ATOM     26  C   UNL     1      -2.521  -2.529  24.050  0.00  0.00    +0.019 A 
ATOM     27  C   UNL     1      -3.237  -2.902  23.879  0.00  0.00    +0.005 A 
ATOM     28  C   UNL     1      -3.949  -2.519  24.037  0.00  0.00    +0.072 A 
ATOM     29  C   UNL     1      -3.948  -1.762  24.366  0.00  0.00    +0.005 A 
ATOM     30  C   UNL     1      -3.232  -1.389  24.537  0.00  0.00    +0.019 A 
BRANCH  28  31
ATOM     31  C   UNL     1      -4.666  -2.892  23.865  0.00  0.00    +0.419 C 
ATOM     32  F   UNL     1      -5.381  -3.266  23.695  0.00  0.00    -0.166 F 
ATOM     33  F   UNL     1      -4.935  -2.205  23.496  0.00  0.00    -0.166 F 
ATOM     34  F   UNL     1      -4.396  -3.579  24.234  0.00  0.00    -0.166 F 
ENDBRANCH  28  31
ENDBRANCH   4  25
BRANCH   7   8
ATOM      8  C   UNL     1      -0.410   0.218  24.536  0.00  0.00    +0.048 C 
ATOM      9  C   UNL     1      -0.452   0.874  25.033  0.00  0.00    +0.035 C 
ATOM     10  C   UNL     1       0.061   1.449  24.741  0.00  0.00    +0.119 C 
ATOM     23  C   UNL     1       0.420   1.148  24.062  0.00  0.00    -0.009 C 
ATOM     24  C   UNL     1       0.129   0.388  23.935  0.00  0.00    -0.025 C 
BRANCH  10  11
ATOM     11  N   UNL     1       0.193   2.195  25.069  0.00  0.00    -0.184 NA
ATOM     12  C   UNL     1      -0.391   2.775  25.024  0.00  0.00    +0.344 C 
ATOM     13  O   UNL     1      -1.109   2.611  24.652  0.00  0.00    -0.249 OA
ATOM     14  N   UNL     1      -0.258   3.521  25.352  0.00  0.00    -0.161 NA
BRANCH  14  15
ATOM     15  C   UNL     1      -0.843   4.101  25.308  0.00  0.00    +0.076 A 
ATOM     16  C   UNL     1      -1.576   3.976  25.663  0.00  0.00    +0.027 A 
ATOM     17  C   UNL     1      -2.161   4.556  25.618  0.00  0.00    +0.070 A 
ATOM     18  C   UNL     1      -2.012   5.262  25.219  0.00  0.00    +0.010 A 
ATOM     19  C   UNL     1      -1.277   5.388  24.863  0.00  0.00    +0.002 A 
ATOM     20  C   UNL     1      -0.693   4.807  24.908  0.00  0.00    +0.017 A 
BRANCH  17  21
ATOM     21  C   UNL     1      -2.895   4.431  25.974  0.00  0.00    +0.100 C 
ATOM     22  N   UNL     1      -3.629   4.305  26.329  0.00  0.00    -0.191 NA
ENDBRANCH  17  21
ENDBRANCH  14  15
ENDBRANCH  10  11
ENDBRANCH   7   8
TORSDOF 6
ENDMDL
MODEL 6
REMARK VINA RESULT:      -9.8      2.223      3.627
REMARK  Name = 
REMARK  6 active torsions:
REMARK  status: ('A' for Active; 'I' for Inactive)
REMARK    1  A    between atoms: N_4  and  C_25
REMARK    2  A    between atoms: C_7  and  C_8
REMARK    3  A    between atoms: C_10  and  N_11
REMARK    4  A    between atoms: N_14  and  C_15
REMARK    5  A    between atoms: C_17  and  C_21
REMARK    6  A    between atoms: C_28  and  C_31
REMARK                            x       y       z     vdW  Elec       q    Type
REMARK                         _______ _______ _______ _____ _____    ______ ____
ROOT
ATOM      1  C   UNL     1      -0.639   4.360  24.892  0.00  0.00    +0.054 C 
ATOM      2  C   UNL     1      -1.361   3.967  24.977  0.00  0.00    +0.077 A 
ATOM      3  N   UNL     1      -2.096   4.323  25.088  0.00  0.00    -0.170 NA
ATOM      4  N   UNL     1      -2.662   3.726  25.145  0.00  0.00    -0.234 N 
ATOM      5  C   UNL     1      -2.276   3.000  25.070  0.00  0.00    +0.058 A 
ATOM      6  C   UNL     1      -2.632   2.256  25.094  0.00  0.00    +0.052 C 
ATOM      7  C   UNL     1      -1.471   3.150  24.965  0.00  0.00    +0.010 A 
ENDROOT
BRANCH   4  25
ATOM     25  C   UNL     1      -3.472   3.834  25.259  0.00  0.00    +0.082 A 
ATOM     26  C   UNL     1      -3.975   3.891  24.608  0.00  0.00    +0.019 A 
ATOM     27  C   UNL     1      -4.785   4.000  24.721  0.00  0.00    +0.005 A 
ATOM     28  C   UNL     1      -5.092   4.051  25.484  0.00  0.00    +0.072 A 
ATOM     29  C   UNL     1      -4.589   3.993  26.136  0.00  0.00    +0.005 A 
ATOM     30  C   UNL     1      -3.778   3.885  26.023  0.00  0.00    +0.019 A 
BRANCH  28  31
ATOM     31  C   UNL     1      -5.902   4.159  25.598  0.00  0.00    +0.419 C 
ATOM     32  F   UNL     1      -6.712   4.268  25.711  0.00  0.00    -0.166 F 
ATOM     33  F   UNL     1      -5.994   3.347  25.715  0.00  0.00    -0.166 F 
ATOM     34  F   UNL     1      -5.810   4.970  25.480  0.00  0.00    -0.166 F 
ENDBRANCH  28  31
ENDBRANCH   4  25
BRANCH   7   8
ATOM      8  C   UNL     1      -0.882   2.581  24.867  0.00  0.00    +0.048 C 
ATOM      9  C   UNL     1      -0.960   1.865  24.467  0.00  0.00    +0.035 C 
ATOM     10  C   UNL     1      -0.237   1.470  24.505  0.00  0.00    +0.119 C 
ATOM     23  C   UNL     1       0.289   1.944  24.929  0.00  0.00    -0.009 C 
ATOM     24  C   UNL     1      -0.109   2.630  25.153  0.00  0.00    -0.025 C 
BRANCH  10  11
ATOM     11  N   UNL     1      -0.069   0.732  24.177  0.00  0.00    -0.184 NA
ATOM     12  C   UNL     1      -0.409   0.051  24.494  0.00  0.00    +0.344 C 
ATOM     13  O   UNL     1      -0.919   0.107  25.140  0.00  0.00    -0.249 OA
ATOM     14  N   UNL     1      -0.240  -0.687  24.165  0.00  0.00    -0.161 NA
BRANCH  14  15
ATOM     15  C   UNL     1      -0.580  -1.368  24.483  0.00  0.00    +0.076 A 
ATOM     16  C   UNL     1      -1.346  -1.583  24.268  0.00  0.00    +0.027 A 
ATOM     17  C   UNL     1      -1.688  -2.265  24.585  0.00  0.00    +0.070 A 
ATOM     18  C   UNL     1      -1.261  -2.730  25.117  0.00  0.00    +0.010 A 
ATOM     19  C   UNL     1      -0.494  -2.513  25.332  0.00  0.00    +0.002 A 
ATOM     20  C   UNL     1      -0.153  -1.832  25.014  0.00  0.00    +0.017 A 
BRANCH  17  21
ATOM     21  C   UNL     1      -2.454  -2.481  24.371  0.00  0.00    +0.100 C 
ATOM     22  N   UNL     1      -3.221  -2.697  24.157  0.00  0.00    -0.191 NA
ENDBRANCH  17  21
ENDBRANCH  14  15
ENDBRANCH  10  11
ENDBRANCH   7   8
TORSDOF 6
ENDMDL
MODEL 7
REMARK VINA RESULT:      -9.8      2.940      4.382
REMARK  Name = 
REMARK  6 active torsions:
REMARK  status: ('A' for Active; 'I' for Inactive)
REMARK    1  A    between atoms: N_4  and  C_25
REMARK    2  A    between atoms: C_7  and  C_8
REMARK    3  A    between atoms: C_10  and  N_11
REMARK    4  A    between atoms: N_14  and  C_15
REMARK    5  A    between atoms: C_17  and  C_21
REMARK    6  A    between atoms: C_28  and  C_31
REMARK                            x       y       z     vdW  Elec       q    Type
REMARK                         _______ _______ _______ _____ _____    ______ ____
ROOT
ATOM      1  C   UNL     1      -3.986  -1.129  23.785  0.00  0.00    +0.054 C 
ATOM      2  C   UNL     1      -3.888  -0.404  24.168  0.00  0.00    +0.077 A 
ATOM      3  N   UNL     1      -4.456   0.190  24.235  0.00  0.00    -0.170 NA
ATOM      4  N   UNL     1      -4.123   0.814  24.660  0.00  0.00    -0.234 N 
ATOM      5  C   UNL     1      -3.349   0.605  24.855  0.00  0.00    +0.058 A 
ATOM      6  C   UNL     1      -2.815   1.069  25.281  0.00  0.00    +0.052 C 
ATOM      7  C   UNL     1      -3.204  -0.148  24.551  0.00  0.00    +0.010 A 
ENDROOT
BRANCH   4  25
ATOM     25  C   UNL     1      -4.498   1.523  24.855  0.00  0.00    +0.082 A 
ATOM     26  C   UNL     1      -5.073   1.535  25.446  0.00  0.00    +0.019 A 
ATOM     27  C   UNL     1      -5.449   2.243  25.642  0.00  0.00    +0.005 A 
ATOM     28  C   UNL     1      -5.249   2.938  25.246  0.00  0.00    +0.072 A 
ATOM     29  C   UNL     1      -4.673   2.927  24.654  0.00  0.00    +0.005 A 
ATOM     30  C   UNL     1      -4.298   2.218  24.459  0.00  0.00    +0.019 A 
BRANCH  28  31
ATOM     31  C   UNL     1      -5.624   3.647  25.442  0.00  0.00    +0.419 C 
ATOM     32  F   UNL     1      -6.000   4.355  25.637  0.00  0.00    -0.166 F 
ATOM     33  F   UNL     1      -4.901   4.042  25.399  0.00  0.00    -0.166 F 
ATOM     34  F   UNL     1      -6.347   3.252  25.484  0.00  0.00    -0.166 F 
ENDBRANCH  28  31
ENDBRANCH   4  25
BRANCH   7   8
ATOM      8  C   UNL     1      -2.497  -0.569  24.619  0.00  0.00    +0.048 C 
ATOM      9  C   UNL     1      -1.737  -0.253  24.580  0.00  0.00    +0.035 C 
ATOM     10  C   UNL     1      -1.199  -0.869  24.675  0.00  0.00    +0.119 C 
ATOM     23  C   UNL     1      -1.626  -1.568  24.773  0.00  0.00    -0.009 C 
ATOM     24  C   UNL     1      -2.429  -1.383  24.739  0.00  0.00    -0.025 C 
BRANCH  10  11
ATOM     11  N   UNL     1      -0.377  -0.801  24.673  0.00  0.00    -0.184 NA
ATOM     12  C   UNL     1       0.021  -0.619  23.974  0.00  0.00    +0.344 C 
ATOM     13  O   UNL     1      -0.403  -0.505  23.275  0.00  0.00    -0.249 OA
ATOM     14  N   UNL     1       0.844  -0.551  23.972  0.00  0.00    -0.161 NA
BRANCH  14  15
ATOM     15  C   UNL     1       1.242  -0.369  23.273  0.00  0.00    +0.076 A 
ATOM     16  C   UNL     1       1.978  -0.000  23.302  0.00  0.00    +0.027 A 
ATOM     17  C   UNL     1       2.377   0.182  22.602  0.00  0.00    +0.070 A 
ATOM     18  C   UNL     1       2.037  -0.006  21.874  0.00  0.00    +0.010 A 
ATOM     19  C   UNL     1       1.300  -0.375  21.846  0.00  0.00    +0.002 A 
ATOM     20  C   UNL     1       0.902  -0.557  22.545  0.00  0.00    +0.017 A 
BRANCH  17  21
ATOM     21  C   UNL     1       3.114   0.551  22.631  0.00  0.00    +0.100 C 
ATOM     22  N   UNL     1       3.851   0.920  22.661  0.00  0.00    -0.191 NA
ENDBRANCH  17  21
ENDBRANCH  14  15
ENDBRANCH  10  11
ENDBRANCH   7   8
TORSDOF 6
ENDMDL
MODEL 8
REMARK VINA RESULT:      -9.8      3.266      5.382
REMARK  Name = 
REMARK  6 active torsions:
REMARK  status: ('A' for Active; 'I' for Inactive)
REMARK    1  A    between atoms: N_4  and  C_25
REMARK    2  A    between atoms: C_7  and  C_8
REMARK    3  A    between atoms: C_10  and  N_11
REMARK    4  A    between atoms: N_14  and  C_15
REMARK    5  A    between atoms: C_17  and  C_21
REMARK    6  A    between atoms: C_28  and  C_31
REMARK                            x       y       z     vdW  Elec       q    Type
REMARK                         _______ _______ _______ _____ _____    ______ ____
ROOT
ATOM      1  C   UNL     1      -0.020   2.706  26.539  0.00  0.00    +0.054 C 
ATOM      2  C   UNL     1      -0.028   2.469  25.748  0.00  0.00    +0.077 A 
ATOM      3  N   UNL     1       0.456   1.894  25.410  0.00  0.00    -0.170 NA
ATOM      4  N   UNL     1       0.262   1.834  24.610  0.00  0.00    -0.234 N 
ATOM      5  C   UNL     1      -0.343   2.373  24.454  0.00  0.00    +0.058 A 
ATOM      6  C   UNL     1      -0.705   2.498  23.723  0.00  0.00    +0.052 C 
ATOM      7  C   UNL     1      -0.522   2.766  25.158  0.00  0.00    +0.010 A 
ENDROOT
BRANCH   4  25
ATOM     25  C   UNL     1       0.611   1.325  24.062  0.00  0.00    +0.082 A 
ATOM     26  C   UNL     1       1.351   1.506  23.746  0.00  0.00    +0.019 A 
ATOM     27  C   UNL     1       1.700   0.997  23.198  0.00  0.00    +0.005 A 
ATOM     28  C   UNL     1       1.310   0.308  22.968  0.00  0.00    +0.072 A 
ATOM     29  C   UNL     1       0.569   0.128  23.284  0.00  0.00    +0.005 A 
ATOM     30  C   UNL     1       0.220   0.637  23.832  0.00  0.00    +0.019 A 
BRANCH  28  31
ATOM     31  C   UNL     1       1.659  -0.201  22.420  0.00  0.00    +0.419 C 
ATOM     32  F   UNL     1       2.007  -0.709  21.872  0.00  0.00    -0.166 F 
ATOM     33  F   UNL     1       2.361  -0.186  22.854  0.00  0.00    -0.166 F 
ATOM     34  F   UNL     1       0.957  -0.215  21.986  0.00  0.00    -0.166 F 
ENDBRANCH  28  31
ENDBRANCH   4  25
BRANCH   7   8
ATOM      8  C   UNL     1      -1.095   3.352  25.253  0.00  0.00    +0.048 C 
ATOM      9  C   UNL     1      -1.886   3.230  25.450  0.00  0.00    +0.035 C 
ATOM     10  C   UNL     1      -2.257   3.965  25.486  0.00  0.00    +0.119 C 
ATOM     23  C   UNL     1      -1.694   4.543  25.310  0.00  0.00    -0.009 C 
ATOM     24  C   UNL     1      -0.976   4.164  25.166  0.00  0.00    -0.025 C 
BRANCH  10  11
ATOM     11  N   UNL     1      -3.050   4.102  25.665  0.00  0.00    -0.184 NA
ATOM     12  C   UNL     1      -3.617   3.527  25.496  0.00  0.00    +0.344 C 
ATOM     13  O   UNL     1      -3.391   2.814  25.147  0.00  0.00    -0.249 OA
ATOM     14  N   UNL     1      -4.411   3.664  25.676  0.00  0.00    -0.161 NA
BRANCH  14  15
ATOM     15  C   UNL     1      -4.977   3.089  25.507  0.00  0.00    +0.076 A 
ATOM     16  C   UNL     1      -5.432   2.767  26.114  0.00  0.00    +0.027 A 
ATOM     17  C   UNL     1      -5.999   2.191  25.946  0.00  0.00    +0.070 A 
ATOM     18  C   UNL     1      -6.111   1.939  25.168  0.00  0.00    +0.010 A 
ATOM     19  C   UNL     1      -5.656   2.262  24.560  0.00  0.00    +0.002 A 
ATOM     20  C   UNL     1      -5.089   2.837  24.729  0.00  0.00    +0.017 A 
BRANCH  17  21
ATOM     21  C   UNL     1      -6.453   1.869  26.553  0.00  0.00    +0.100 C 
ATOM     22  N   UNL     1      -6.908   1.546  27.162  0.00  0.00    -0.191 NA
ENDBRANCH  17  21
ENDBRANCH  14  15
ENDBRANCH  10  11
ENDBRANCH   7   8
TORSDOF 6
ENDMDL
MODEL 9
REMARK VINA RESULT:      -9.6      3.537      4.866
REMARK  Name = 
REMARK  6 active torsions:
REMARK  status: ('A' for Active; 'I' for Inactive)
REMARK    1  A    between atoms: N_4  and  C_25
REMARK    2  A    between atoms: C_7  and  C_8
REMARK    3  A    between atoms: C_10  and  N_11
REMARK    4  A    between atoms: N_14  and  C_15
REMARK    5  A    between atoms: C_17  and  C_21
REMARK    6  A    between atoms: C_28  and  C_31
REMARK                            x       y       z     vdW  Elec       q    Type
REMARK                         _______ _______ _______ _____ _____    ______ ____
ROOT
ATOM      1  C   UNL     1      -2.056   4.730  25.748  0.00  0.00    +0.054 C 
ATOM      2  C   UNL     1      -2.486   4.069  25.504  0.00  0.00    +0.077 A 
ATOM      3  N   UNL     1      -3.296   3.954  25.602  0.00  0.00    -0.170 NA
ATOM      4  N   UNL     1      -3.491   3.221  25.277  0.00  0.00    -0.234 N 
ATOM      5  C   UNL     1      -2.800   2.883  24.979  0.00  0.00    +0.058 A 
ATOM      6  C   UNL     1      -2.742   2.149  24.606  0.00  0.00    +0.052 C 
ATOM      7  C   UNL     1      -2.179   3.407  25.119  0.00  0.00    +0.010 A 
ENDROOT
BRANCH   4  25
ATOM     25  C   UNL     1      -4.245   2.885  25.255  0.00  0.00    +0.082 A 
ATOM     26  C   UNL     1      -4.477   2.438  24.602  0.00  0.00    +0.019 A 
ATOM     27  C   UNL     1      -5.230   2.102  24.579  0.00  0.00    +0.005 A 
ATOM     28  C   UNL     1      -5.750   2.212  25.209  0.00  0.00    +0.072 A 
ATOM     29  C   UNL     1      -5.517   2.659  25.864  0.00  0.00    +0.005 A 
ATOM     30  C   UNL     1      -4.764   2.995  25.886  0.00  0.00    +0.019 A 
BRANCH  28  31
ATOM     31  C   UNL     1      -6.504   1.876  25.187  0.00  0.00    +0.419 C 
ATOM     32  F   UNL     1      -7.256   1.540  25.164  0.00  0.00    -0.166 F 
ATOM     33  F   UNL     1      -6.462   1.729  25.998  0.00  0.00    -0.166 F 
ATOM     34  F   UNL     1      -6.545   2.023  24.377  0.00  0.00    -0.166 F 
ENDBRANCH  28  31
ENDBRANCH   4  25
BRANCH   7   8
ATOM      8  C   UNL     1      -1.389   3.289  24.910  0.00  0.00    +0.048 C 
ATOM      9  C   UNL     1      -0.929   2.633  25.103  0.00  0.00    +0.035 C 
ATOM     10  C   UNL     1      -0.177   2.745  24.784  0.00  0.00    +0.119 C 
ATOM     23  C   UNL     1      -0.173   3.472  24.393  0.00  0.00    -0.009 C 
ATOM     24  C   UNL     1      -0.921   3.808  24.471  0.00  0.00    -0.025 C 
BRANCH  10  11
ATOM     11  N   UNL     1       0.459   2.224  24.844  0.00  0.00    -0.184 NA
ATOM     12  C   UNL     1       0.679   1.764  24.195  0.00  0.00    +0.344 C 
ATOM     13  O   UNL     1       0.263   1.825  23.486  0.00  0.00    -0.249 OA
ATOM     14  N   UNL     1       1.316   1.242  24.256  0.00  0.00    -0.161 NA
BRANCH  14  15
ATOM     15  C   UNL     1       1.536   0.783  23.608  0.00  0.00    +0.076 A 
ATOM     16  C   UNL     1       2.298   0.846  23.297  0.00  0.00    +0.027 A 
ATOM     17  C   UNL     1       2.519   0.386  22.648  0.00  0.00    +0.070 A 
ATOM     18  C   UNL     1       1.977  -0.137  22.311  0.00  0.00    +0.010 A 
ATOM     19  C   UNL     1       1.215  -0.200  22.622  0.00  0.00    +0.002 A 
ATOM     20  C   UNL     1       0.995   0.260  23.270  0.00  0.00    +0.017 A 
BRANCH  17  21
ATOM     21  C   UNL     1       3.280   0.449  22.338  0.00  0.00    +0.100 C 
ATOM     22  N   UNL     1       4.042   0.512  22.027  0.00  0.00    -0.191 NA
ENDBRANCH  17  21
ENDBRANCH  14  15
ENDBRANCH  10  11
ENDBRANCH   7   8
TORSDOF 6
ENDMDL
MODEL 10
REMARK VINA RESULT:      -9.5      2.518      5.327
REMARK  Name = 
REMARK  6 active torsions:
REMARK  status: ('A' for Active; 'I' for Inactive)
REMARK    1  A    between atoms: N_4  and  C_25
REMARK    2  A    between atoms: C_7  and  C_8
REMARK    3  A    between atoms: C_10  and  N_11
REMARK    4  A    between atoms: N_14  and  C_15
REMARK    5  A    between atoms: C_17  and  C_21
REMARK    6  A    between atoms: C_28  and  C_31
REMARK                            x       y       z     vdW  Elec       q    Type
REMARK                         _______ _______ _______ _____ _____    ______ ____
ROOT
ATOM      1  C   UNL     1      -1.891  -2.582  24.471  0.00  0.00    +0.054 C 
ATOM      2  C   UNL     1      -1.489  -1.873  24.335  0.00  0.00    +0.077 A 
ATOM      3  N   UNL     1      -0.743  -1.797  23.995  0.00  0.00    -0.170 NA
ATOM      4  N   UNL     1      -0.557  -0.993  23.965  0.00  0.00    -0.234 N 
ATOM      5  C   UNL     1      -1.189  -0.573  24.288  0.00  0.00    +0.058 A 
ATOM      6  C   UNL     1      -1.237   0.247  24.368  0.00  0.00    +0.052 C 
ATOM      7  C   UNL     1      -1.766  -1.117  24.517  0.00  0.00    +0.010 A 
ENDROOT
BRANCH   4  25
ATOM     25  C   UNL     1       0.139  -0.667  23.665  0.00  0.00    +0.082 A 
ATOM     26  C   UNL     1       0.828  -0.677  24.119  0.00  0.00    +0.019 A 
ATOM     27  C   UNL     1       1.524  -0.351  23.820  0.00  0.00    +0.005 A 
ATOM     28  C   UNL     1       1.531  -0.015  23.067  0.00  0.00    +0.072 A 
ATOM     29  C   UNL     1       0.842  -0.004  22.613  0.00  0.00    +0.005 A 
ATOM     30  C   UNL     1       0.146  -0.331  22.912  0.00  0.00    +0.019 A 
BRANCH  28  31
ATOM     31  C   UNL     1       2.228   0.312  22.767  0.00  0.00    +0.419 C 
ATOM     32  F   UNL     1       2.923   0.638  22.467  0.00  0.00    -0.166 F 
ATOM     33  F   UNL     1       2.066   1.018  23.162  0.00  0.00    -0.166 F 
ATOM     34  F   UNL     1       2.388  -0.394  22.373  0.00  0.00    -0.166 F 
ENDBRANCH  28  31
ENDBRANCH   4  25
BRANCH   7   8
ATOM      8  C   UNL     1      -2.491  -0.936  24.866  0.00  0.00    +0.048 C 
ATOM      9  C   UNL     1      -3.101  -0.502  24.521  0.00  0.00    +0.035 C 
ATOM     10  C   UNL     1      -3.720  -0.455  25.064  0.00  0.00    +0.119 C 
ATOM     23  C   UNL     1      -3.492  -0.860  25.746  0.00  0.00    -0.009 C 
ATOM     24  C   UNL     1      -2.733  -1.157  25.624  0.00  0.00    -0.025 C 
BRANCH  10  11
ATOM     11  N   UNL     1      -4.441  -0.071  24.947  0.00  0.00    -0.184 NA
ATOM     12  C   UNL     1      -4.516   0.730  25.129  0.00  0.00    +0.344 C 
ATOM     13  O   UNL     1      -3.871   1.149  25.427  0.00  0.00    -0.249 OA
ATOM     14  N   UNL     1      -5.237   1.114  25.012  0.00  0.00    -0.161 NA
BRANCH  14  15
ATOM     15  C   UNL     1      -5.313   1.915  25.193  0.00  0.00    +0.076 A 
ATOM     16  C   UNL     1      -4.848   2.472  24.801  0.00  0.00    +0.027 A 
ATOM     17  C   UNL     1      -4.923   3.274  24.982  0.00  0.00    +0.070 A 
ATOM     18  C   UNL     1      -5.463   3.517  25.556  0.00  0.00    +0.010 A 
ATOM     19  C   UNL     1      -5.929   2.960  25.948  0.00  0.00    +0.002 A 
ATOM     20  C   UNL     1      -5.853   2.159  25.767  0.00  0.00    +0.017 A 
BRANCH  17  21
ATOM     21  C   UNL     1      -4.458   3.830  24.590  0.00  0.00    +0.100 C 
ATOM     22  N   UNL     1      -3.993   4.388  24.197  0.00  0.00    -0.191 NA
ENDBRANCH  17  21
ENDBRANCH  14  15
ENDBRANCH  10  11
ENDBRANCH   7   8
TORSDOF 6
ENDMDL
