REMARK  Name = 
REMARK  6 active torsions:
REMARK  status: ('A' for Active; 'I' for Inactive)
REMARK    1  A    between atoms: N_2  and  C_4
REMARK    2  A    between atoms: C_7  and  C_10
REMARK    3  A    between atoms: N_15  and  C_16
REMARK    4  A    between atoms: C_20  and  N_24
REMARK    5  A    between atoms: N_24  and  S_25
REMARK    6  A    between atoms: S_25  and  C_28
REMARK                            x       y       z     vdW  Elec       q    Type
REMARK                         _______ _______ _______ _____ _____    ______ ____
ROOT
ATOM     16  C   UNL     1       1.270  -0.922   0.000  0.00  0.00    +0.154 C 
ATOM     17  C   UNL     1       0.785  -0.255   0.000  0.00  0.00    +0.166 C 
ATOM     18  O   UNL     1       1.270   0.412   0.000  0.00  0.00    -0.350 OA
ATOM     19  C   UNL     1       2.054   0.158   0.000  0.00  0.00    +0.164 C 
ATOM     20  C   UNL     1       2.839   0.412   0.000  0.00  0.00    +0.157 C 
ATOM     21  C   UNL     1       3.324  -0.255   0.000  0.00  0.00    +0.164 C 
ATOM     22  O   UNL     1       2.839  -0.922   0.000  0.00  0.00    -0.350 OA
ATOM     23  C   UNL     1       2.054  -0.667   0.000  0.00  0.00    +0.166 C 
ENDROOT
BRANCH  16  15
ATOM     10  C   UNL     1      -0.854  -2.835   0.000  0.00  0.00    +0.086 A 
ATOM     11  C   UNL     1      -1.406  -2.222   0.000  0.00  0.00    +0.040 A 
ATOM     12  C   UNL     1      -1.151  -1.437   0.000  0.00  0.00    +0.103 A 
ATOM     13  N   UNL     1      -0.344  -1.265   0.000  0.00  0.00    -0.211 NA
ATOM     14  C   UNL     1       0.208  -1.879   0.000  0.00  0.00    +0.237 A 
ATOM     15  N   UNL     1       1.015  -1.707   0.000  0.00  0.00    -0.200 NA
ATOM     35  N   UNL     1      -0.047  -2.663   0.000  0.00  0.00    -0.212 NA
BRANCH  10   7
ATOM      4  C   UNL     1      -1.619  -5.189   0.000  0.00  0.00    +0.048 A 
ATOM      5  C   UNL     1      -2.171  -4.575   0.000  0.00  0.00    +0.015 A 
ATOM      6  C   UNL     1      -1.916  -3.791   0.000  0.00  0.00    +0.003 A 
ATOM      7  C   UNL     1      -1.109  -3.619   0.000  0.00  0.00    +0.018 A 
ATOM      8  C   UNL     1      -0.557  -4.232   0.000  0.00  0.00    +0.003 A 
ATOM      9  C   UNL     1      -0.812  -5.017   0.000  0.00  0.00    +0.015 A 
BRANCH   4   2
ATOM      1  C   UNL     1      -1.322  -6.586   0.000  0.00  0.00    +0.112 C 
ATOM      2  N   UNL     1      -1.874  -5.973   0.000  0.00  0.00    -0.304 N 
ATOM      3  C   UNL     1      -2.681  -6.145   0.000  0.00  0.00    +0.112 C 
ENDBRANCH   4   2
ENDBRANCH  10   7
ENDBRANCH  16  15
BRANCH  20  24
ATOM     24  N   UNL     1       3.094   1.197   0.000  0.00  0.00    -0.074 NA
BRANCH  24  25
ATOM     25  S   UNL     1       3.901   1.369   0.000  0.00  0.00    +0.077 S 
ATOM     26  O   UNL     1       4.072   0.562   0.000  0.00  0.00    -0.152 OA
ATOM     27  O   UNL     1       3.729   2.176   0.000  0.00  0.00    -0.152 OA
BRANCH  25  28
ATOM     28  C   UNL     1       4.708   1.540   0.000  0.00  0.00    +0.124 A 
ATOM     29  C   UNL     1       4.963   2.325   0.000  0.00  0.00    +0.020 A 
ATOM     30  C   UNL     1       5.770   2.496   0.000  0.00  0.00    -0.003 A 
ATOM     31  C   UNL     1       6.322   1.883   0.000  0.00  0.00    -0.022 A 
ATOM     32  C   UNL     1       7.129   2.055   0.000  0.00  0.00    +0.031 C 
ATOM     33  C   UNL     1       6.067   1.099   0.000  0.00  0.00    -0.003 A 
ATOM     34  C   UNL     1       5.260   0.927   0.000  0.00  0.00    +0.020 A 
ENDBRANCH  25  28
ENDBRANCH  24  25
ENDBRANCH  20  24
TORSDOF 6
