MODEL 1
REMARK VINA RESULT:     -12.6      0.000      0.000
REMARK  Name = 
REMARK  8 active torsions:
REMARK  status: ('A' for Active; 'I' for Inactive)
REMARK    1  A    between atoms: C_2  and  C_3
REMARK    2  A    between atoms: C_3  and  C_4
REMARK    3  A    between atoms: C_9  and  C_10
REMARK    4  A    between atoms: C_10  and  C_11
REMARK    5  A    between atoms: C_14  and  C_15
REMARK    6  A    between atoms: C_15  and  C_16
REMARK    7  A    between atoms: N_23  and  C_24
REMARK    8  A    between atoms: C_24  and  C_25
REMARK                            x       y       z     vdW  Elec       q    Type
REMARK                         _______ _______ _______ _____ _____    ______ ____
ROOT
ATOM      4  C   UNL     1      -0.853   1.660  24.841  0.00  0.00    +0.012 C 
ATOM      5  C   UNL     1      -0.585   2.009  24.142  0.00  0.00    +0.019 C 
ATOM      6  C   UNL     1      -0.181   1.556  23.584  0.00  0.00    +0.089 C 
ATOM      7  N   UNL     1      -0.044   0.755  23.723  0.00  0.00    -0.218 NA
ATOM      8  C   UNL     1      -0.312   0.406  24.420  0.00  0.00    +0.089 C 
ATOM      9  C   UNL     1      -0.717   0.858  24.980  0.00  0.00    +0.024 C 
ENDROOT
BRANCH   4   3
ATOM      3  C   UNL     1      -1.258   2.113  25.399  0.00  0.00    +0.087 C 
BRANCH   3   2
ATOM      1  O   UNL     1      -1.489   3.401  24.825  0.00  0.00    -0.273 OA
ATOM      2  C   UNL     1      -1.780   2.702  25.153  0.00  0.00    +0.242 C 
ATOM     23  N   UNL     1      -2.593   2.591  25.234  0.00  0.00    -0.200 NA
BRANCH  23  24
ATOM     24  C   UNL     1      -3.116   3.180  24.988  0.00  0.00    +0.143 C 
BRANCH  24  25
ATOM     25  C   UNL     1      -3.929   3.080  25.092  0.00  0.00    +0.019 A 
ATOM     26  C   UNL     1      -4.330   2.494  24.671  0.00  0.00    +0.001 A 
ATOM     27  C   UNL     1      -5.141   2.395  24.775  0.00  0.00    +0.020 A 
ATOM     28  C   UNL     1      -5.554   2.881  25.299  0.00  0.00    +0.099 A 
ATOM     29  N   UNL     1      -5.153   3.467  25.719  0.00  0.00    -0.243 NA
ATOM     30  C   UNL     1      -4.340   3.567  25.616  0.00  0.00    +0.096 A 
ENDBRANCH  24  25
ENDBRANCH  23  24
ENDBRANCH   3   2
ENDBRANCH   4   3
BRANCH   9  10
ATOM     10  C   UNL     1      -0.984   0.510  25.677  0.00  0.00    +0.051 C 
BRANCH  10  11
ATOM     11  C   UNL     1      -1.357  -0.226  25.654  0.00  0.00    +0.100 A 
ATOM     12  N   UNL     1      -0.988  -0.952  25.524  0.00  0.00    -0.082 NA
ATOM     13  O   UNL     1      -1.567  -1.540  25.546  0.00  0.00    -0.358 OA
ATOM     14  C   UNL     1      -2.294  -1.177  25.690  0.00  0.00    +0.154 A 
ATOM     22  C   UNL     1      -2.164  -0.365  25.756  0.00  0.00    +0.054 A 
BRANCH  14  15
ATOM     15  C   UNL     1      -3.022  -1.558  25.755  0.00  0.00    +0.067 C 
BRANCH  15  16
ATOM     16  C   UNL     1      -3.439  -1.771  25.075  0.00  0.00    +0.008 C 
ATOM     17  C   UNL     1      -3.382  -2.538  24.780  0.00  0.00    +0.000 C 
ATOM     18  C   UNL     1      -3.799  -2.751  24.100  0.00  0.00    +0.000 C 
ATOM     19  C   UNL     1      -4.272  -2.194  23.716  0.00  0.00    +0.000 C 
ATOM     20  C   UNL     1      -4.329  -1.426  24.012  0.00  0.00    +0.000 C 
ATOM     21  C   UNL     1      -3.912  -1.214  24.692  0.00  0.00    +0.000 C 
ENDBRANCH  15  16
ENDBRANCH  14  15
ENDBRANCH  10  11
ENDBRANCH   9  10
TORSDOF 8
ENDMDL
MODEL 2
REMARK VINA RESULT:     -12.6      0.837      1.249
REMARK  Name = 
REMARK  8 active torsions:
REMARK  status: ('A' for Active; 'I' for Inactive)
REMARK    1  A    between atoms: C_2  and  C_3
REMARK    2  A    between atoms: C_3  and  C_4
REMARK    3  A    between atoms: C_9  and  C_10
REMARK    4  A    between atoms: C_10  and  C_11
REMARK    5  A    between atoms: C_14  and  C_15
REMARK    6  A    between atoms: C_15  and  C_16
REMARK    7  A    between atoms: N_23  and  C_24
REMARK    8  A    between atoms: C_24  and  C_25
REMARK                            x       y       z     vdW  Elec       q    Type
REMARK                         _______ _______ _______ _____ _____    ______ ____
ROOT
ATOM      4  C   UNL     1      -1.315   2.472  24.987  0.00  0.00    +0.012 C 
ATOM      5  C   UNL     1      -1.079   3.050  25.528  0.00  0.00    +0.019 C 
ATOM      6  C   UNL     1      -0.521   2.869  26.107  0.00  0.00    +0.089 C 
ATOM      7  N   UNL     1      -0.198   2.111  26.147  0.00  0.00    -0.218 NA
ATOM      8  C   UNL     1      -0.433   1.534  25.607  0.00  0.00    +0.089 C 
ATOM      9  C   UNL     1      -0.992   1.714  25.027  0.00  0.00    +0.024 C 
ENDROOT
BRANCH   4   3
ATOM      3  C   UNL     1      -1.873   2.654  24.408  0.00  0.00    +0.087 C 
BRANCH   3   2
ATOM      1  O   UNL     1      -2.378   3.965  24.671  0.00  0.00    -0.273 OA
ATOM      2  C   UNL     1      -2.505   3.154  24.585  0.00  0.00    +0.242 C 
ATOM     23  N   UNL     1      -3.263   2.843  24.677  0.00  0.00    -0.200 NA
BRANCH  23  24
ATOM     24  C   UNL     1      -3.895   3.343  24.855  0.00  0.00    +0.143 C 
BRANCH  24  25
ATOM     25  C   UNL     1      -4.619   3.025  25.090  0.00  0.00    +0.019 A 
ATOM     26  C   UNL     1      -4.943   2.386  24.680  0.00  0.00    +0.001 A 
ATOM     27  C   UNL     1      -5.666   2.069  24.915  0.00  0.00    +0.020 A 
ATOM     28  C   UNL     1      -6.068   2.389  25.561  0.00  0.00    +0.099 A 
ATOM     29  N   UNL     1      -5.744   3.028  25.972  0.00  0.00    -0.243 NA
ATOM     30  C   UNL     1      -5.020   3.346  25.736  0.00  0.00    +0.096 A 
ENDBRANCH  24  25
ENDBRANCH  23  24
ENDBRANCH   3   2
ENDBRANCH   4   3
BRANCH   9  10
ATOM     10  C   UNL     1      -1.227   1.138  24.487  0.00  0.00    +0.051 C 
BRANCH  10  11
ATOM     11  C   UNL     1      -1.406   0.376  24.749  0.00  0.00    +0.100 A 
ATOM     12  N   UNL     1      -0.879  -0.256  24.799  0.00  0.00    -0.082 NA
ATOM     13  O   UNL     1      -1.291  -0.910  25.088  0.00  0.00    -0.358 OA
ATOM     14  C   UNL     1      -2.073  -0.682  25.216  0.00  0.00    +0.154 A 
ATOM     22  C   UNL     1      -2.145   0.113  25.006  0.00  0.00    +0.054 A 
BRANCH  14  15
ATOM     15  C   UNL     1      -2.678  -1.164  25.502  0.00  0.00    +0.067 C 
BRANCH  15  16
ATOM     16  C   UNL     1      -3.174  -1.561  24.975  0.00  0.00    +0.008 C 
ATOM     17  C   UNL     1      -3.795  -1.159  24.610  0.00  0.00    +0.000 C 
ATOM     18  C   UNL     1      -4.290  -1.557  24.083  0.00  0.00    +0.000 C 
ATOM     19  C   UNL     1      -4.164  -2.355  23.922  0.00  0.00    +0.000 C 
ATOM     20  C   UNL     1      -3.543  -2.758  24.287  0.00  0.00    +0.000 C 
ATOM     21  C   UNL     1      -3.048  -2.360  24.814  0.00  0.00    +0.000 C 
ENDBRANCH  15  16
ENDBRANCH  14  15
ENDBRANCH  10  11
ENDBRANCH   9  10
TORSDOF 8
ENDMDL
MODEL 3
REMARK VINA RESULT:     -12.4      1.535      3.551
REMARK  Name = 
REMARK  8 active torsions:
REMARK  status: ('A' for Active; 'I' for Inactive)
REMARK    1  A    between atoms: C_2  and  C_3
REMARK    2  A    between atoms: C_3  and  C_4
REMARK    3  A    between atoms: C_9  and  C_10
REMARK    4  A    between atoms: C_10  and  C_11
REMARK    5  A    between atoms: C_14  and  C_15
REMARK    6  A    between atoms: C_15  and  C_16
REMARK    7  A    between atoms: N_23  and  C_24
REMARK    8  A    between atoms: C_24  and  C_25
REMARK                            x       y       z     vdW  Elec       q    Type
REMARK                         _______ _______ _______ _____ _____    ______ ____
ROOT
ATOM      4  C   UNL     1      -4.415   2.811  24.769  0.00  0.00    +0.012 C 
ATOM      5  C   UNL     1      -4.772   3.388  25.240  0.00  0.00    +0.019 C 
ATOM      6  C   UNL     1      -5.405   3.187  25.729  0.00  0.00    +0.089 C 
ATOM      7  N   UNL     1      -5.682   2.410  25.748  0.00  0.00    -0.218 NA
ATOM      8  C   UNL     1      -5.325   1.834  25.278  0.00  0.00    +0.089 C 
ATOM      9  C   UNL     1      -4.691   2.034  24.788  0.00  0.00    +0.024 C 
ENDROOT
BRANCH   4   3
ATOM      3  C   UNL     1      -3.782   3.012  24.281  0.00  0.00    +0.087 C 
BRANCH   3   2
ATOM      1  O   UNL     1      -3.240   4.244  24.761  0.00  0.00    -0.273 OA
ATOM      2  C   UNL     1      -3.147   3.444  24.584  0.00  0.00    +0.242 C 
ATOM     23  N   UNL     1      -2.420   3.075  24.709  0.00  0.00    -0.200 NA
BRANCH  23  24
ATOM     24  C   UNL     1      -1.786   3.506  25.012  0.00  0.00    +0.143 C 
BRANCH  24  25
ATOM     25  C   UNL     1      -1.092   3.119  25.236  0.00  0.00    +0.019 A 
ATOM     26  C   UNL     1      -0.960   2.936  26.030  0.00  0.00    +0.001 A 
ATOM     27  C   UNL     1      -0.268   2.549  26.254  0.00  0.00    +0.020 A 
ATOM     28  C   UNL     1       0.293   2.343  25.685  0.00  0.00    +0.099 A 
ATOM     29  N   UNL     1       0.161   2.526  24.891  0.00  0.00    -0.243 NA
ATOM     30  C   UNL     1      -0.532   2.914  24.666  0.00  0.00    +0.096 A 
ENDBRANCH  24  25
ENDBRANCH  23  24
ENDBRANCH   3   2
ENDBRANCH   4   3
BRANCH   9  10
ATOM     10  C   UNL     1      -4.335   1.458  24.318  0.00  0.00    +0.051 C 
BRANCH  10  11
ATOM     11  C   UNL     1      -4.336   0.670  24.561  0.00  0.00    +0.100 A 
ATOM     12  N   UNL     1      -4.905   0.104  24.368  0.00  0.00    -0.082 NA
ATOM     13  O   UNL     1      -4.689  -0.607  24.726  0.00  0.00    -0.358 OA
ATOM     14  C   UNL     1      -3.986  -0.482  25.140  0.00  0.00    +0.154 A 
ATOM     22  C   UNL     1      -3.768   0.308  25.038  0.00  0.00    +0.054 A 
BRANCH  14  15
ATOM     15  C   UNL     1      -3.574  -1.045  25.579  0.00  0.00    +0.067 C 
BRANCH  15  16
ATOM     16  C   UNL     1      -3.096  -1.598  25.195  0.00  0.00    +0.008 C 
ATOM     17  C   UNL     1      -2.294  -1.442  25.083  0.00  0.00    +0.000 C 
ATOM     18  C   UNL     1      -1.816  -1.994  24.699  0.00  0.00    +0.000 C 
ATOM     19  C   UNL     1      -2.141  -2.702  24.428  0.00  0.00    +0.000 C 
ATOM     20  C   UNL     1      -2.944  -2.859  24.541  0.00  0.00    +0.000 C 
ATOM     21  C   UNL     1      -3.421  -2.306  24.924  0.00  0.00    +0.000 C 
ENDBRANCH  15  16
ENDBRANCH  14  15
ENDBRANCH  10  11
ENDBRANCH   9  10
TORSDOF 8
ENDMDL
MODEL 4
REMARK VINA RESULT:     -12.2      1.200      4.212
REMARK  Name = 
REMARK  8 active torsions:
REMARK  status: ('A' for Active; 'I' for Inactive)
REMARK    1  A    between atoms: C_2  and  C_3
REMARK    2  A    between atoms: C_3  and  C_4
REMARK    3  A    between atoms: C_9  and  C_10
REMARK    4  A    between atoms: C_10  and  C_11
REMARK    5  A    between atoms: C_14  and  C_15
REMARK    6  A    between atoms: C_15  and  C_16
REMARK    7  A    between atoms: N_23  and  C_24
REMARK    8  A    between atoms: C_24  and  C_25
REMARK                            x       y       z     vdW  Elec       q    Type
REMARK                         _______ _______ _______ _____ _____    ______ ____
ROOT
ATOM      4  C   UNL     1      -0.805   1.768  24.959  0.00  0.00    +0.012 C 
ATOM      5  C   UNL     1      -0.335   1.611  25.619  0.00  0.00    +0.019 C 
ATOM      6  C   UNL     1      -0.170   2.212  26.159  0.00  0.00    +0.089 C 
ATOM      7  N   UNL     1      -0.474   2.969  26.040  0.00  0.00    -0.218 NA
ATOM      8  C   UNL     1      -0.944   3.126  25.381  0.00  0.00    +0.089 C 
ATOM      9  C   UNL     1      -1.110   2.525  24.840  0.00  0.00    +0.024 C 
ENDROOT
BRANCH   4   3
ATOM      3  C   UNL     1      -0.970   1.167  24.419  0.00  0.00    +0.087 C 
BRANCH   3   2
ATOM      1  O   UNL     1      -0.157   0.053  24.793  0.00  0.00    -0.273 OA
ATOM      2  C   UNL     1      -0.902   0.376  24.646  0.00  0.00    +0.242 C 
ATOM     23  N   UNL     1      -1.577  -0.089  24.726  0.00  0.00    -0.200 NA
BRANCH  23  24
ATOM     24  C   UNL     1      -1.509  -0.879  24.953  0.00  0.00    +0.143 C 
BRANCH  24  25
ATOM     25  C   UNL     1      -2.175  -1.366  24.960  0.00  0.00    +0.019 A 
ATOM     26  C   UNL     1      -2.838  -1.153  25.404  0.00  0.00    +0.001 A 
ATOM     27  C   UNL     1      -3.503  -1.639  25.410  0.00  0.00    +0.020 A 
ATOM     28  C   UNL     1      -3.508  -2.340  24.974  0.00  0.00    +0.099 A 
ATOM     29  N   UNL     1      -2.846  -2.553  24.531  0.00  0.00    -0.243 NA
ATOM     30  C   UNL     1      -2.179  -2.066  24.524  0.00  0.00    +0.096 A 
ENDBRANCH  24  25
ENDBRANCH  23  24
ENDBRANCH   3   2
ENDBRANCH   4   3
BRANCH   9  10
ATOM     10  C   UNL     1      -1.579   2.681  24.181  0.00  0.00    +0.051 C 
BRANCH  10  11
ATOM     11  C   UNL     1      -2.314   3.045  24.275  0.00  0.00    +0.100 A 
ATOM     12  N   UNL     1      -2.447   3.797  24.585  0.00  0.00    -0.082 NA
ATOM     13  O   UNL     1      -3.260   3.937  24.577  0.00  0.00    -0.358 OA
ATOM     14  C   UNL     1      -3.630   3.271  24.261  0.00  0.00    +0.154 A 
ATOM     22  C   UNL     1      -3.046   2.719  24.074  0.00  0.00    +0.054 A 
BRANCH  14  15
ATOM     15  C   UNL     1      -4.442   3.173  24.152  0.00  0.00    +0.067 C 
BRANCH  15  16
ATOM     16  C   UNL     1      -4.889   2.774  24.719  0.00  0.00    +0.008 C 
ATOM     17  C   UNL     1      -5.036   1.967  24.635  0.00  0.00    +0.000 C 
ATOM     18  C   UNL     1      -5.484   1.568  25.203  0.00  0.00    +0.000 C 
ATOM     19  C   UNL     1      -5.783   1.977  25.853  0.00  0.00    +0.000 C 
ATOM     20  C   UNL     1      -5.636   2.785  25.937  0.00  0.00    +0.000 C 
ATOM     21  C   UNL     1      -5.189   3.183  25.370  0.00  0.00    +0.000 C 
ENDBRANCH  15  16
ENDBRANCH  14  15
ENDBRANCH  10  11
ENDBRANCH   9  10
TORSDOF 8
ENDMDL
MODEL 5
REMARK VINA RESULT:     -12.0      1.573      5.148
REMARK  Name = 
REMARK  8 active torsions:
REMARK  status: ('A' for Active; 'I' for Inactive)
REMARK    1  A    between atoms: C_2  and  C_3
REMARK    2  A    between atoms: C_3  and  C_4
REMARK    3  A    between atoms: C_9  and  C_10
REMARK    4  A    between atoms: C_10  and  C_11
REMARK    5  A    between atoms: C_14  and  C_15
REMARK    6  A    between atoms: C_15  and  C_16
REMARK    7  A    between atoms: N_23  and  C_24
REMARK    8  A    between atoms: C_24  and  C_25
REMARK                            x       y       z     vdW  Elec       q    Type
REMARK                         _______ _______ _______ _____ _____    ______ ____
ROOT
ATOM      4  C   UNL     1      -4.819   2.019  24.973  0.00  0.00    +0.012 C 
ATOM      5  C   UNL     1      -5.396   1.625  25.413  0.00  0.00    +0.019 C 
ATOM      6  C   UNL     1      -5.855   2.041  25.957  0.00  0.00    +0.089 C 
ATOM      7  N   UNL     1      -5.739   2.851  26.062  0.00  0.00    -0.218 NA
ATOM      8  C   UNL     1      -5.163   3.245  25.622  0.00  0.00    +0.089 C 
ATOM      9  C   UNL     1      -4.703   2.829  25.078  0.00  0.00    +0.024 C 
ENDROOT
BRANCH   4   3
ATOM      3  C   UNL     1      -4.360   1.603  24.428  0.00  0.00    +0.087 C 
BRANCH   3   2
ATOM      1  O   UNL     1      -4.863   0.266  24.452  0.00  0.00    -0.273 OA
ATOM      2  C   UNL     1      -4.233   0.794  24.528  0.00  0.00    +0.242 C 
ATOM     23  N   UNL     1      -3.478   0.514  24.703  0.00  0.00    -0.200 NA
BRANCH  23  24
ATOM     24  C   UNL     1      -3.352  -0.295  24.803  0.00  0.00    +0.143 C 
BRANCH  24  25
ATOM     25  C   UNL     1      -2.596  -0.577  24.979  0.00  0.00    +0.019 A 
ATOM     26  C   UNL     1      -2.363  -0.670  25.765  0.00  0.00    +0.001 A 
ATOM     27  C   UNL     1      -1.608  -0.951  25.940  0.00  0.00    +0.020 A 
ATOM     28  C   UNL     1      -1.085  -1.139  25.330  0.00  0.00    +0.099 A 
ATOM     29  N   UNL     1      -1.317  -1.045  24.544  0.00  0.00    -0.243 NA
ATOM     30  C   UNL     1      -2.074  -0.764  24.368  0.00  0.00    +0.096 A 
ENDBRANCH  24  25
ENDBRANCH  23  24
ENDBRANCH   3   2
ENDBRANCH   4   3
BRANCH   9  10
ATOM     10  C   UNL     1      -4.127   3.223  24.638  0.00  0.00    +0.051 C 
BRANCH  10  11
ATOM     11  C   UNL     1      -3.488   3.579  25.020  0.00  0.00    +0.100 A 
ATOM     12  N   UNL     1      -3.524   4.022  25.715  0.00  0.00    -0.082 NA
ATOM     13  O   UNL     1      -2.759   4.271  25.899  0.00  0.00    -0.358 OA
ATOM     14  C   UNL     1      -2.250   3.981  25.318  0.00  0.00    +0.154 A 
ATOM     22  C   UNL     1      -2.700   3.553  24.774  0.00  0.00    +0.054 A 
BRANCH  14  15
ATOM     15  C   UNL     1      -1.434   4.098  25.285  0.00  0.00    +0.067 C 
BRANCH  15  16
ATOM     16  C   UNL     1      -0.922   3.457  25.381  0.00  0.00    +0.008 C 
ATOM     17  C   UNL     1      -0.772   3.159  26.135  0.00  0.00    +0.000 C 
ATOM     18  C   UNL     1      -0.260   2.519  26.232  0.00  0.00    +0.000 C 
ATOM     19  C   UNL     1       0.102   2.178  25.573  0.00  0.00    +0.000 C 
ATOM     20  C   UNL     1      -0.048   2.477  24.819  0.00  0.00    +0.000 C 
ATOM     21  C   UNL     1      -0.560   3.117  24.723  0.00  0.00    +0.000 C 
ENDBRANCH  15  16
ENDBRANCH  14  15
ENDBRANCH  10  11
ENDBRANCH   9  10
TORSDOF 8
ENDMDL
