MODEL 1
REMARK VINA RESULT:     -12.1      0.000      0.000
REMARK  Name = 
REMARK  5 active torsions:
REMARK  status: ('A' for Active; 'I' for Inactive)
REMARK    1  A    between atoms: O_2  and  C_3
REMARK    2  A    between atoms: C_6  and  S_9
REMARK    3  A    between atoms: S_9  and  N_12
REMARK    4  A    between atoms: N_12  and  C_13
REMARK    5  A    between atoms: C_19  and  C_20
REMARK                            x       y       z     vdW  Elec       q    Type
REMARK                         _______ _______ _______ _____ _____    ______ ____
ROOT
ATOM     13  C   UNL     1      -3.433   1.569  24.324  0.00  0.00    +0.135 C 
ATOM     14  C   UNL     1      -2.924   1.420  23.693  0.00  0.00    +0.200 C 
ATOM     15  O   UNL     1      -2.426   0.767  23.614  0.00  0.00    -0.219 OA
ATOM     16  C   UNL     1      -2.999   2.041  23.154  0.00  0.00    +0.184 C 
ATOM     17  O   UNL     1      -2.590   2.116  22.441  0.00  0.00    -0.220 OA
ATOM     18  C   UNL     1      -3.556   2.572  23.453  0.00  0.00    +0.041 C 
ATOM     19  C   UNL     1      -3.824   2.280  24.176  0.00  0.00    +0.045 C 
ENDROOT
BRANCH  19  20
ATOM     20  C   UNL     1      -4.384   2.638  24.665  0.00  0.00    -0.025 A 
ATOM     21  C   UNL     1      -5.155   2.347  24.693  0.00  0.00    -0.005 A 
ATOM     22  C   UNL     1      -5.715   2.705  25.181  0.00  0.00    -0.000 A 
ATOM     23  C   UNL     1      -5.503   3.356  25.642  0.00  0.00    -0.000 A 
ATOM     24  C   UNL     1      -4.732   3.648  25.615  0.00  0.00    -0.005 A 
ATOM     25  C   UNL     1      -4.172   3.290  25.126  0.00  0.00    -0.026 A 
ATOM     26  C   UNL     1      -3.401   3.582  25.099  0.00  0.00    +0.031 C 
ENDBRANCH  19  20
BRANCH  13  12
ATOM     12  N   UNL     1      -3.535   1.089  24.989  0.00  0.00    -0.076 NA
BRANCH  12   9
ATOM      9  S   UNL     1      -3.569   0.270  24.904  0.00  0.00    +0.077 S 
ATOM     10  O   UNL     1      -2.817   0.205  25.238  0.00  0.00    -0.152 OA
ATOM     11  O   UNL     1      -4.321   0.336  24.571  0.00  0.00    -0.152 OA
BRANCH   9   6
ATOM      3  C   UNL     1      -3.669  -2.190  24.651  0.00  0.00    +0.139 A 
ATOM      4  C   UNL     1      -4.116  -1.705  24.154  0.00  0.00    +0.038 A 
ATOM      5  C   UNL     1      -4.082  -0.886  24.238  0.00  0.00    +0.023 A 
ATOM      6  C   UNL     1      -3.603  -0.550  24.820  0.00  0.00    +0.124 A 
ATOM      7  C   UNL     1      -3.156  -1.035  25.317  0.00  0.00    +0.023 A 
ATOM      8  C   UNL     1      -3.190  -1.855  25.232  0.00  0.00    +0.038 A 
BRANCH   3   2
ATOM      1  C   UNL     1      -3.096  -3.410  24.176  0.00  0.00    +0.252 C 
ATOM      2  O   UNL     1      -3.704  -3.010  24.566  0.00  0.00    -0.471 OA
ENDBRANCH   3   2
ENDBRANCH   9   6
ENDBRANCH  12   9
ENDBRANCH  13  12
TORSDOF 5
ENDMDL
MODEL 2
REMARK VINA RESULT:     -11.9      1.646      4.384
REMARK  Name = 
REMARK  5 active torsions:
REMARK  status: ('A' for Active; 'I' for Inactive)
REMARK    1  A    between atoms: O_2  and  C_3
REMARK    2  A    between atoms: C_6  and  S_9
REMARK    3  A    between atoms: S_9  and  N_12
REMARK    4  A    between atoms: N_12  and  C_13
REMARK    5  A    between atoms: C_19  and  C_20
REMARK                            x       y       z     vdW  Elec       q    Type
REMARK                         _______ _______ _______ _____ _____    ______ ____
ROOT
ATOM     13  C   UNL     1      -3.689   0.806  24.579  0.00  0.00    +0.135 C 
ATOM     14  C   UNL     1      -4.192   1.455  24.503  0.00  0.00    +0.200 C 
ATOM     15  O   UNL     1      -3.982   2.203  24.227  0.00  0.00    -0.219 OA
ATOM     16  C   UNL     1      -4.944   1.224  24.752  0.00  0.00    +0.184 C 
ATOM     17  O   UNL     1      -5.618   1.702  24.769  0.00  0.00    -0.220 OA
ATOM     18  C   UNL     1      -4.906   0.433  24.982  0.00  0.00    +0.041 C 
ATOM     19  C   UNL     1      -4.129   0.174  24.875  0.00  0.00    +0.045 C 
ENDROOT
BRANCH  19  20
ATOM     20  C   UNL     1      -3.845  -0.584  25.035  0.00  0.00    -0.025 A 
ATOM     21  C   UNL     1      -3.445  -0.734  25.740  0.00  0.00    -0.005 A 
ATOM     22  C   UNL     1      -3.161  -1.491  25.901  0.00  0.00    -0.000 A 
ATOM     23  C   UNL     1      -3.277  -2.099  25.355  0.00  0.00    -0.000 A 
ATOM     24  C   UNL     1      -3.677  -1.949  24.649  0.00  0.00    -0.005 A 
ATOM     25  C   UNL     1      -3.961  -1.191  24.489  0.00  0.00    -0.026 A 
ATOM     26  C   UNL     1      -4.361  -1.041  23.783  0.00  0.00    +0.031 C 
ENDBRANCH  19  20
BRANCH  13  12
ATOM     12  N   UNL     1      -2.885   0.791  24.391  0.00  0.00    -0.076 NA
BRANCH  12   9
ATOM      9  S   UNL     1      -2.419   1.459  24.522  0.00  0.00    +0.077 S 
ATOM     10  O   UNL     1      -2.397   1.602  23.709  0.00  0.00    -0.152 OA
ATOM     11  O   UNL     1      -2.442   1.315  25.334  0.00  0.00    -0.152 OA
BRANCH   9   6
ATOM      3  C   UNL     1      -1.020   3.462  24.913  0.00  0.00    +0.139 A 
ATOM      4  C   UNL     1      -1.385   3.083  25.550  0.00  0.00    +0.038 A 
ATOM      5  C   UNL     1      -1.851   2.416  25.419  0.00  0.00    +0.023 A 
ATOM      6  C   UNL     1      -1.953   2.126  24.653  0.00  0.00    +0.124 A 
ATOM      7  C   UNL     1      -1.587   2.505  24.017  0.00  0.00    +0.023 A 
ATOM      8  C   UNL     1      -1.121   3.173  24.148  0.00  0.00    +0.038 A 
BRANCH   3   2
ATOM      1  C   UNL     1      -0.888   4.883  24.995  0.00  0.00    +0.252 C 
ATOM      2  O   UNL     1      -0.553   4.130  25.045  0.00  0.00    -0.471 OA
ENDBRANCH   3   2
ENDBRANCH   9   6
ENDBRANCH  12   9
ENDBRANCH  13  12
TORSDOF 5
ENDMDL
MODEL 3
REMARK VINA RESULT:     -11.7      1.039      2.109
REMARK  Name = 
REMARK  5 active torsions:
REMARK  status: ('A' for Active; 'I' for Inactive)
REMARK    1  A    between atoms: O_2  and  C_3
REMARK    2  A    between atoms: C_6  and  S_9
REMARK    3  A    between atoms: S_9  and  N_12
REMARK    4  A    between atoms: N_12  and  C_13
REMARK    5  A    between atoms: C_19  and  C_20
REMARK                            x       y       z     vdW  Elec       q    Type
REMARK                         _______ _______ _______ _____ _____    ______ ____
ROOT
ATOM     13  C   UNL     1      -4.115   2.104  24.893  0.00  0.00    +0.135 C 
ATOM     14  C   UNL     1      -4.913   1.935  25.012  0.00  0.00    +0.200 C 
ATOM     15  O   UNL     1      -5.307   1.253  24.766  0.00  0.00    -0.219 OA
ATOM     16  C   UNL     1      -5.249   2.568  25.421  0.00  0.00    +0.184 C 
ATOM     17  O   UNL     1      -6.038   2.630  25.656  0.00  0.00    -0.220 OA
ATOM     18  C   UNL     1      -4.658   3.128  25.554  0.00  0.00    +0.041 C 
ATOM     19  C   UNL     1      -3.957   2.841  25.228  0.00  0.00    +0.045 C 
ENDROOT
BRANCH  19  20
ATOM     20  C   UNL     1      -3.226   3.225  25.235  0.00  0.00    -0.025 A 
ATOM     21  C   UNL     1      -2.650   3.007  25.782  0.00  0.00    -0.005 A 
ATOM     22  C   UNL     1      -1.921   3.390  25.790  0.00  0.00    -0.000 A 
ATOM     23  C   UNL     1      -1.767   3.994  25.249  0.00  0.00    -0.000 A 
ATOM     24  C   UNL     1      -2.343   4.214  24.701  0.00  0.00    -0.005 A 
ATOM     25  C   UNL     1      -3.074   3.829  24.693  0.00  0.00    -0.026 A 
ATOM     26  C   UNL     1      -3.650   4.049  24.146  0.00  0.00    +0.031 C 
ENDBRANCH  19  20
BRANCH  13  12
ATOM     12  N   UNL     1      -3.569   1.620  24.505  0.00  0.00    -0.076 NA
BRANCH  12   9
ATOM      9  S   UNL     1      -3.607   0.802  24.596  0.00  0.00    +0.077 S 
ATOM     10  O   UNL     1      -3.851   0.727  23.810  0.00  0.00    -0.152 OA
ATOM     11  O   UNL     1      -3.364   0.877  25.380  0.00  0.00    -0.152 OA
BRANCH   9   6
ATOM      3  C   UNL     1      -3.722  -1.656  24.867  0.00  0.00    +0.139 A 
ATOM      4  C   UNL     1      -3.967  -1.306  24.160  0.00  0.00    +0.038 A 
ATOM      5  C   UNL     1      -3.929  -0.488  24.070  0.00  0.00    +0.023 A 
ATOM      6  C   UNL     1      -3.646  -0.017  24.686  0.00  0.00    +0.124 A 
ATOM      7  C   UNL     1      -3.400  -0.366  25.393  0.00  0.00    +0.023 A 
ATOM      8  C   UNL     1      -3.439  -1.186  25.483  0.00  0.00    +0.038 A 
BRANCH   3   2
ATOM      1  C   UNL     1      -3.306  -2.964  24.473  0.00  0.00    +0.252 C 
ATOM      2  O   UNL     1      -3.760  -2.475  24.957  0.00  0.00    -0.471 OA
ENDBRANCH   3   2
ENDBRANCH   9   6
ENDBRANCH  12   9
ENDBRANCH  13  12
TORSDOF 5
ENDMDL
MODEL 4
REMARK VINA RESULT:     -11.4      1.328      4.373
REMARK  Name = 
REMARK  5 active torsions:
REMARK  status: ('A' for Active; 'I' for Inactive)
REMARK    1  A    between atoms: O_2  and  C_3
REMARK    2  A    between atoms: C_6  and  S_9
REMARK    3  A    between atoms: S_9  and  N_12
REMARK    4  A    between atoms: N_12  and  C_13
REMARK    5  A    between atoms: C_19  and  C_20
REMARK                            x       y       z     vdW  Elec       q    Type
REMARK                         _______ _______ _______ _____ _____    ______ ____
ROOT
ATOM     13  C   UNL     1      -2.448  -0.088  24.841  0.00  0.00    +0.135 C 
ATOM     14  C   UNL     1      -1.930   0.488  25.122  0.00  0.00    +0.200 C 
ATOM     15  O   UNL     1      -1.966   1.296  24.958  0.00  0.00    -0.219 OA
ATOM     16  C   UNL     1      -1.366   0.114  25.596  0.00  0.00    +0.184 C 
ATOM     17  O   UNL     1      -0.741   0.483  25.989  0.00  0.00    -0.220 OA
ATOM     18  C   UNL     1      -1.538  -0.693  25.607  0.00  0.00    +0.041 C 
ATOM     19  C   UNL     1      -2.207  -0.818  25.140  0.00  0.00    +0.045 C 
ENDROOT
BRANCH  19  20
ATOM     20  C   UNL     1      -2.569  -1.545  24.999  0.00  0.00    -0.025 A 
ATOM     21  C   UNL     1      -3.280  -1.733  25.372  0.00  0.00    -0.005 A 
ATOM     22  C   UNL     1      -3.642  -2.460  25.230  0.00  0.00    -0.000 A 
ATOM     23  C   UNL     1      -3.292  -3.001  24.715  0.00  0.00    -0.000 A 
ATOM     24  C   UNL     1      -2.581  -2.814  24.341  0.00  0.00    -0.005 A 
ATOM     25  C   UNL     1      -2.219  -2.086  24.482  0.00  0.00    -0.026 A 
ATOM     26  C   UNL     1      -1.507  -1.899  24.109  0.00  0.00    +0.031 C 
ENDBRANCH  19  20
BRANCH  13  12
ATOM     12  N   UNL     1      -3.096   0.043  24.346  0.00  0.00    -0.076 NA
BRANCH  12   9
ATOM      9  S   UNL     1      -3.601   0.679  24.487  0.00  0.00    +0.077 S 
ATOM     10  O   UNL     1      -3.830   0.338  25.203  0.00  0.00    -0.152 OA
ATOM     11  O   UNL     1      -3.372   1.019  23.771  0.00  0.00    -0.152 OA
BRANCH   9   6
ATOM      3  C   UNL     1      -5.117   2.588  24.913  0.00  0.00    +0.139 A 
ATOM      4  C   UNL     1      -4.520   2.653  24.346  0.00  0.00    +0.038 A 
ATOM      5  C   UNL     1      -4.015   2.017  24.205  0.00  0.00    +0.023 A 
ATOM      6  C   UNL     1      -4.106   1.315  24.629  0.00  0.00    +0.124 A 
ATOM      7  C   UNL     1      -4.703   1.250  25.196  0.00  0.00    +0.023 A 
ATOM      8  C   UNL     1      -5.208   1.887  25.337  0.00  0.00    +0.038 A 
BRANCH   3   2
ATOM      1  C   UNL     1      -5.451   3.760  25.658  0.00  0.00    +0.252 C 
ATOM      2  O   UNL     1      -5.622   3.225  25.054  0.00  0.00    -0.471 OA
ENDBRANCH   3   2
ENDBRANCH   9   6
ENDBRANCH  12   9
ENDBRANCH  13  12
TORSDOF 5
ENDMDL
