MODEL 1
REMARK VINA RESULT:     -10.8      0.000      0.000
REMARK  Name = 
REMARK  5 active torsions:
REMARK  status: ('A' for Active; 'I' for Inactive)
REMARK    1  A    between atoms: C_6  and  C_7
REMARK    2  A    between atoms: C_7  and  N_8
REMARK    3  A    between atoms: C_13  and  O_15
REMARK    4  A    between atoms: O_15  and  C_16
REMARK    5  A    between atoms: C_19  and  C_22
REMARK                            x       y       z     vdW  Elec       q    Type
REMARK                         _______ _______ _______ _____ _____    ______ ____
ROOT
ATOM      8  N   UNL     1      -3.533   1.864  24.068  0.00  0.00    -0.261 NA
ATOM      9  C   UNL     1      -3.103   2.218  23.459  0.00  0.00    +0.105 C 
ATOM     10  C   UNL     1      -2.330   2.058  23.215  0.00  0.00    +0.160 C 
ATOM     11  O   UNL     1      -1.798   1.507  23.521  0.00  0.00    -0.348 OA
ATOM     12  C   UNL     1      -1.906   0.978  24.145  0.00  0.00    +0.187 C 
ATOM     13  C   UNL     1      -2.573   0.871  24.618  0.00  0.00    +0.213 C 
ATOM     14  C   UNL     1      -3.298   1.265  24.584  0.00  0.00    +0.119 C 
ENDROOT
BRANCH   8   7
ATOM      7  C   UNL     1      -4.300   2.148  24.176  0.00  0.00    +0.137 C 
BRANCH   7   6
ATOM      1  C   UNL     1      -5.786   2.306  25.170  0.00  0.00    +0.132 C 
ATOM      2  N   UNL     1      -5.131   2.807  25.193  0.00  0.00    -0.311 N 
ATOM      3  C   UNL     1      -5.044   3.470  25.678  0.00  0.00    +0.098 A 
ATOM      4  C   UNL     1      -4.307   3.806  25.521  0.00  0.00    +0.119 A 
ATOM      5  N   UNL     1      -3.939   3.352  24.939  0.00  0.00    -0.228 NA
ATOM      6  C   UNL     1      -4.448   2.735  24.737  0.00  0.00    +0.137 A 
ENDBRANCH   7   6
ENDBRANCH   8   7
BRANCH  13  15
ATOM     15  O   UNL     1      -2.508   0.293  25.203  0.00  0.00    -0.460 OA
BRANCH  15  16
ATOM     16  C   UNL     1      -2.780  -0.473  25.059  0.00  0.00    +0.225 A 
ATOM     17  C   UNL     1      -3.510  -0.715  25.358  0.00  0.00    +0.058 A 
ATOM     18  C   UNL     1      -3.781  -1.480  25.214  0.00  0.00    +0.010 A 
ATOM     19  C   UNL     1      -3.322  -2.004  24.770  0.00  0.00    +0.091 A 
ATOM     20  C   UNL     1      -2.593  -1.761  24.471  0.00  0.00    +0.106 A 
ATOM     21  N   UNL     1      -2.322  -0.996  24.615  0.00  0.00    -0.210 NA
BRANCH  19  22
ATOM     22  C   UNL     1      -3.594  -2.770  24.625  0.00  0.00    +0.420 C 
ATOM     23  F   UNL     1      -3.865  -3.535  24.481  0.00  0.00    -0.166 F 
ATOM     24  F   UNL     1      -3.891  -2.527  23.896  0.00  0.00    -0.166 F 
ATOM     25  F   UNL     1      -3.295  -3.013  25.355  0.00  0.00    -0.166 F 
ENDBRANCH  19  22
ENDBRANCH  15  16
ENDBRANCH  13  15
TORSDOF 5
ENDMDL
MODEL 2
REMARK VINA RESULT:     -10.5      1.177      1.840
REMARK  Name = 
REMARK  5 active torsions:
REMARK  status: ('A' for Active; 'I' for Inactive)
REMARK    1  A    between atoms: C_6  and  C_7
REMARK    2  A    between atoms: C_7  and  N_8
REMARK    3  A    between atoms: C_13  and  O_15
REMARK    4  A    between atoms: O_15  and  C_16
REMARK    5  A    between atoms: C_19  and  C_22
REMARK                            x       y       z     vdW  Elec       q    Type
REMARK                         _______ _______ _______ _____ _____    ______ ____
ROOT
ATOM      8  N   UNL     1      -1.494   1.429  24.887  0.00  0.00    -0.261 NA
ATOM      9  C   UNL     1      -0.797   1.517  24.454  0.00  0.00    +0.105 C 
ATOM     10  C   UNL     1      -0.225   0.949  24.279  0.00  0.00    +0.160 C 
ATOM     11  O   UNL     1      -0.208   0.152  24.495  0.00  0.00    -0.348 OA
ATOM     12  C   UNL     1      -0.760  -0.273  24.938  0.00  0.00    +0.187 C 
ATOM     13  C   UNL     1      -1.464  -0.006  25.275  0.00  0.00    +0.213 C 
ATOM     14  C   UNL     1      -1.791   0.752  25.253  0.00  0.00    +0.119 C 
ENDROOT
BRANCH   8   7
ATOM      7  C   UNL     1      -1.955   2.109  24.965  0.00  0.00    +0.137 C 
BRANCH   7   6
ATOM      1  C   UNL     1      -3.430   3.100  25.215  0.00  0.00    +0.132 C 
ATOM      2  N   UNL     1      -3.196   2.749  24.506  0.00  0.00    -0.311 N 
ATOM      3  C   UNL     1      -3.599   2.792  23.787  0.00  0.00    +0.098 A 
ATOM      4  C   UNL     1      -3.170   2.363  23.228  0.00  0.00    +0.119 A 
ATOM      5  N   UNL     1      -2.502   2.055  23.601  0.00  0.00    -0.228 NA
ATOM      6  C   UNL     1      -2.518   2.293  24.391  0.00  0.00    +0.137 A 
ENDBRANCH   7   6
ENDBRANCH   8   7
BRANCH  13  15
ATOM     15  O   UNL     1      -1.899  -0.570  25.690  0.00  0.00    -0.460 OA
BRANCH  15  16
ATOM     16  C   UNL     1      -2.433  -1.056  25.290  0.00  0.00    +0.225 A 
ATOM     17  C   UNL     1      -3.245  -0.929  25.370  0.00  0.00    +0.058 A 
ATOM     18  C   UNL     1      -3.779  -1.414  24.970  0.00  0.00    +0.010 A 
ATOM     19  C   UNL     1      -3.501  -2.026  24.490  0.00  0.00    +0.091 A 
ATOM     20  C   UNL     1      -2.690  -2.151  24.410  0.00  0.00    +0.106 A 
ATOM     21  N   UNL     1      -2.157  -1.667  24.810  0.00  0.00    -0.210 NA
BRANCH  19  22
ATOM     22  C   UNL     1      -4.036  -2.511  24.090  0.00  0.00    +0.420 C 
ATOM     23  F   UNL     1      -4.570  -2.996  23.690  0.00  0.00    -0.166 F 
ATOM     24  F   UNL     1      -3.823  -3.144  24.573  0.00  0.00    -0.166 F 
ATOM     25  F   UNL     1      -4.249  -1.877  23.606  0.00  0.00    -0.166 F 
ENDBRANCH  19  22
ENDBRANCH  15  16
ENDBRANCH  13  15
TORSDOF 5
ENDMDL
MODEL 3
REMARK VINA RESULT:     -10.4      1.696      2.566
REMARK  Name = 
REMARK  5 active torsions:
REMARK  status: ('A' for Active; 'I' for Inactive)
REMARK    1  A    between atoms: C_6  and  C_7
REMARK    2  A    between atoms: C_7  and  N_8
REMARK    3  A    between atoms: C_13  and  O_15
REMARK    4  A    between atoms: O_15  and  C_16
REMARK    5  A    between atoms: C_19  and  C_22
REMARK                            x       y       z     vdW  Elec       q    Type
REMARK                         _______ _______ _______ _____ _____    ______ ____
ROOT
ATOM      8  N   UNL     1      -2.645   2.652  24.589  0.00  0.00    -0.261 NA
ATOM      9  C   UNL     1      -3.166   3.072  25.072  0.00  0.00    +0.105 C 
ATOM     10  C   UNL     1      -3.946   2.888  25.269  0.00  0.00    +0.160 C 
ATOM     11  O   UNL     1      -4.397   2.239  25.032  0.00  0.00    -0.348 OA
ATOM     12  C   UNL     1      -4.180   1.614  24.539  0.00  0.00    +0.187 C 
ATOM     13  C   UNL     1      -3.458   1.483  24.162  0.00  0.00    +0.213 C 
ATOM     14  C   UNL     1      -2.775   1.945  24.184  0.00  0.00    +0.119 C 
ENDROOT
BRANCH   8   7
ATOM      7  C   UNL     1      -1.895   2.983  24.499  0.00  0.00    +0.137 C 
BRANCH   7   6
ATOM      1  C   UNL     1      -0.161   2.755  24.098  0.00  0.00    +0.132 C 
ATOM      2  N   UNL     1      -0.497   2.690  24.848  0.00  0.00    -0.311 N 
ATOM      3  C   UNL     1      -0.095   2.509  25.546  0.00  0.00    +0.098 A 
ATOM      4  C   UNL     1      -0.645   2.502  26.162  0.00  0.00    +0.119 A 
ATOM      5  N   UNL     1      -1.386   2.679  25.845  0.00  0.00    -0.228 NA
ATOM      6  C   UNL     1      -1.294   2.795  25.033  0.00  0.00    +0.137 A 
ENDBRANCH   7   6
ENDBRANCH   8   7
BRANCH  13  15
ATOM     15  O   UNL     1      -3.413   0.800  23.701  0.00  0.00    -0.460 OA
BRANCH  15  16
ATOM     16  C   UNL     1      -3.437   0.057  24.061  0.00  0.00    +0.225 A 
ATOM     17  C   UNL     1      -4.136  -0.383  24.051  0.00  0.00    +0.058 A 
ATOM     18  C   UNL     1      -4.160  -1.125  24.410  0.00  0.00    +0.010 A 
ATOM     19  C   UNL     1      -3.486  -1.427  24.779  0.00  0.00    +0.091 A 
ATOM     20  C   UNL     1      -2.789  -0.987  24.788  0.00  0.00    +0.106 A 
ATOM     21  N   UNL     1      -2.765  -0.245  24.429  0.00  0.00    -0.210 NA
BRANCH  19  22
ATOM     22  C   UNL     1      -3.510  -2.170  25.138  0.00  0.00    +0.420 C 
ATOM     23  F   UNL     1      -3.534  -2.912  25.496  0.00  0.00    -0.166 F 
ATOM     24  F   UNL     1      -3.392  -2.528  24.405  0.00  0.00    -0.166 F 
ATOM     25  F   UNL     1      -3.628  -1.811  25.871  0.00  0.00    -0.166 F 
ENDBRANCH  19  22
ENDBRANCH  15  16
ENDBRANCH  13  15
TORSDOF 5
ENDMDL
MODEL 4
REMARK VINA RESULT:     -10.1      2.543      4.335
REMARK  Name = 
REMARK  5 active torsions:
REMARK  status: ('A' for Active; 'I' for Inactive)
REMARK    1  A    between atoms: C_6  and  C_7
REMARK    2  A    between atoms: C_7  and  N_8
REMARK    3  A    between atoms: C_13  and  O_15
REMARK    4  A    between atoms: O_15  and  C_16
REMARK    5  A    between atoms: C_19  and  C_22
REMARK                            x       y       z     vdW  Elec       q    Type
REMARK                         _______ _______ _______ _____ _____    ______ ____
ROOT
ATOM      8  N   UNL     1      -0.819   1.765  24.925  0.00  0.00    -0.261 NA
ATOM      9  C   UNL     1      -0.479   2.073  25.611  0.00  0.00    +0.105 C 
ATOM     10  C   UNL     1      -0.733   2.712  26.069  0.00  0.00    +0.160 C 
ATOM     11  O   UNL     1      -1.388   3.200  25.952  0.00  0.00    -0.348 OA
ATOM     12  C   UNL     1      -1.952   3.170  25.350  0.00  0.00    +0.187 C 
ATOM     13  C   UNL     1      -2.000   2.645  24.716  0.00  0.00    +0.213 C 
ATOM     14  C   UNL     1      -1.495   2.019  24.527  0.00  0.00    +0.119 C 
ENDROOT
BRANCH   8   7
ATOM      7  C   UNL     1      -0.431   1.117  24.594  0.00  0.00    +0.137 C 
BRANCH   7   6
ATOM      1  C   UNL     1       0.017  -0.404  23.755  0.00  0.00    +0.132 C 
ATOM      2  N   UNL     1      -0.412  -0.346  24.457  0.00  0.00    -0.311 N 
ATOM      3  C   UNL     1      -0.711  -0.978  24.897  0.00  0.00    +0.098 A 
ATOM      4  C   UNL     1      -1.101  -0.668  25.555  0.00  0.00    +0.119 A 
ATOM      5  N   UNL     1      -1.044   0.154  25.521  0.00  0.00    -0.228 NA
ATOM      6  C   UNL     1      -0.618   0.353  24.843  0.00  0.00    +0.137 A 
ENDBRANCH   7   6
ENDBRANCH   8   7
BRANCH  13  15
ATOM     15  O   UNL     1      -2.635   2.759  24.203  0.00  0.00    -0.460 OA
BRANCH  15  16
ATOM     16  C   UNL     1      -3.400   2.567  24.445  0.00  0.00    +0.225 A 
ATOM     17  C   UNL     1      -3.898   3.153  24.745  0.00  0.00    +0.058 A 
ATOM     18  C   UNL     1      -4.662   2.961  24.986  0.00  0.00    +0.010 A 
ATOM     19  C   UNL     1      -4.930   2.182  24.927  0.00  0.00    +0.091 A 
ATOM     20  C   UNL     1      -4.433   1.597  24.627  0.00  0.00    +0.106 A 
ATOM     21  N   UNL     1      -3.668   1.789  24.386  0.00  0.00    -0.210 NA
BRANCH  19  22
ATOM     22  C   UNL     1      -5.696   1.990  25.168  0.00  0.00    +0.420 C 
ATOM     23  F   UNL     1      -6.460   1.797  25.409  0.00  0.00    -0.166 F 
ATOM     24  F   UNL     1      -5.952   2.030  24.386  0.00  0.00    -0.166 F 
ATOM     25  F   UNL     1      -5.439   1.950  25.951  0.00  0.00    -0.166 F 
ENDBRANCH  19  22
ENDBRANCH  15  16
ENDBRANCH  13  15
TORSDOF 5
ENDMDL
