MODEL 1
REMARK VINA RESULT:     -12.0      0.000      0.000
REMARK  Name = 
REMARK  6 active torsions:
REMARK  status: ('A' for Active; 'I' for Inactive)
REMARK    1  A    between atoms: O_2  and  C_3
REMARK    2  A    between atoms: C_6  and  C_7
REMARK    3  A    between atoms: C_7  and  N_8
REMARK    4  A    between atoms: N_8  and  C_9
REMARK    5  A    between atoms: C_11  and  C_14
REMARK    6  A    between atoms: N_17  and  C_21
REMARK                            x       y       z     vdW  Elec       q    Type
REMARK                         _______ _______ _______ _____ _____    ______ ____
ROOT
ATOM      9  C   UNL     1      -4.736   1.171  24.678  0.00  0.00    +0.095 C 
ATOM     10  C   UNL     1      -4.090   1.606  24.950  0.00  0.00    +0.031 C 
ATOM     11  C   UNL     1      -4.320   2.398  24.998  0.00  0.00    +0.048 C 
ATOM     12  C   UNL     1      -5.106   2.450  24.755  0.00  0.00    -0.025 C 
ATOM     13  C   UNL     1      -5.363   1.691  24.557  0.00  0.00    -0.013 C 
ENDROOT
BRANCH  11  14
ATOM     14  C   UNL     1      -3.845   3.026  25.244  0.00  0.00    +0.010 A 
ATOM     15  C   UNL     1      -3.111   3.231  24.930  0.00  0.00    +0.058 A 
ATOM     16  C   UNL     1      -2.721   2.845  24.314  0.00  0.00    +0.052 C 
ATOM     17  N   UNL     1      -2.834   3.892  25.341  0.00  0.00    -0.234 N 
ATOM     18  N   UNL     1      -3.397   4.094  25.909  0.00  0.00    -0.170 NA
ATOM     19  C   UNL     1      -4.023   3.559  25.849  0.00  0.00    +0.077 A 
ATOM     20  C   UNL     1      -4.705   3.557  26.313  0.00  0.00    +0.054 C 
BRANCH  17  21
ATOM     21  C   UNL     1      -2.119   4.281  25.207  0.00  0.00    +0.083 A 
ATOM     22  C   UNL     1      -1.407   3.866  25.257  0.00  0.00    +0.026 A 
ATOM     23  C   UNL     1      -0.693   4.256  25.123  0.00  0.00    +0.036 A 
ATOM     24 BR   UNL     1       0.018   3.841  25.172  0.00  0.00    -0.049 Br
ATOM     25  C   UNL     1      -0.689   5.060  24.940  0.00  0.00    +0.007 A 
ATOM     26  C   UNL     1      -1.400   5.475  24.890  0.00  0.00    +0.002 A 
ATOM     27  C   UNL     1      -2.116   5.086  25.024  0.00  0.00    +0.019 A 
ENDBRANCH  17  21
ENDBRANCH  11  14
BRANCH   9   8
ATOM      8  N   UNL     1      -4.750   0.356  24.549  0.00  0.00    -0.210 NA
BRANCH   8   7
ATOM      7  C   UNL     1      -4.464  -0.159  25.127  0.00  0.00    +0.115 C 
BRANCH   7   6
ATOM      3  C   UNL     1      -3.493  -2.339  24.472  0.00  0.00    +0.139 A 
ATOM      4  C   UNL     1      -4.034  -1.964  23.976  0.00  0.00    +0.037 A 
ATOM      5  C   UNL     1      -4.358  -1.236  24.195  0.00  0.00    +0.000 A 
ATOM      6  C   UNL     1      -4.140  -0.885  24.908  0.00  0.00    -0.005 A 
ATOM     28  C   UNL     1      -3.599  -1.261  25.404  0.00  0.00    +0.000 A 
ATOM     29  C   UNL     1      -3.275  -1.989  25.185  0.00  0.00    +0.037 A 
BRANCH   3   2
ATOM      1  C   UNL     1      -2.351  -3.158  24.216  0.00  0.00    +0.252 C 
ATOM      2  O   UNL     1      -3.169  -3.066  24.253  0.00  0.00    -0.471 OA
ENDBRANCH   3   2
ENDBRANCH   7   6
ENDBRANCH   8   7
ENDBRANCH   9   8
TORSDOF 6
ENDMDL
MODEL 2
REMARK VINA RESULT:     -11.2      3.556      5.052
REMARK  Name = 
REMARK  6 active torsions:
REMARK  status: ('A' for Active; 'I' for Inactive)
REMARK    1  A    between atoms: O_2  and  C_3
REMARK    2  A    between atoms: C_6  and  C_7
REMARK    3  A    between atoms: C_7  and  N_8
REMARK    4  A    between atoms: N_8  and  C_9
REMARK    5  A    between atoms: C_11  and  C_14
REMARK    6  A    between atoms: N_17  and  C_21
REMARK                            x       y       z     vdW  Elec       q    Type
REMARK                         _______ _______ _______ _____ _____    ______ ____
ROOT
ATOM      9  C   UNL     1      -0.777  -0.477  24.469  0.00  0.00    +0.095 C 
ATOM     10  C   UNL     1      -1.474  -0.138  24.187  0.00  0.00    +0.031 C 
ATOM     11  C   UNL     1      -2.064  -0.263  24.751  0.00  0.00    +0.048 C 
ATOM     12  C   UNL     1      -1.731  -0.679  25.381  0.00  0.00    -0.025 C 
ATOM     13  C   UNL     1      -0.935  -0.811  25.206  0.00  0.00    -0.013 C 
ENDROOT
BRANCH  11  14
ATOM     14  C   UNL     1      -2.849  -0.016  24.694  0.00  0.00    +0.010 A 
ATOM     15  C   UNL     1      -3.130   0.744  24.849  0.00  0.00    +0.058 A 
ATOM     16  C   UNL     1      -2.677   1.390  25.089  0.00  0.00    +0.052 C 
ATOM     17  N   UNL     1      -3.946   0.744  24.723  0.00  0.00    -0.234 N 
ATOM     18  N   UNL     1      -4.168  -0.015  24.489  0.00  0.00    -0.170 NA
ATOM     19  C   UNL     1      -3.490  -0.485  24.471  0.00  0.00    +0.077 A 
ATOM     20  C   UNL     1      -3.459  -1.284  24.267  0.00  0.00    +0.054 C 
BRANCH  17  21
ATOM     21  C   UNL     1      -4.451   1.391  24.814  0.00  0.00    +0.083 A 
ATOM     22  C   UNL     1      -5.042   1.374  25.389  0.00  0.00    +0.026 A 
ATOM     23  C   UNL     1      -5.546   2.020  25.480  0.00  0.00    +0.036 A 
ATOM     24 BR   UNL     1      -6.138   2.004  26.054  0.00  0.00    -0.049 Br
ATOM     25  C   UNL     1      -5.460   2.683  24.996  0.00  0.00    +0.007 A 
ATOM     26  C   UNL     1      -4.868   2.700  24.422  0.00  0.00    +0.002 A 
ATOM     27  C   UNL     1      -4.363   2.053  24.330  0.00  0.00    +0.019 A 
ENDBRANCH  17  21
ENDBRANCH  11  14
BRANCH   9   8
ATOM      8  N   UNL     1      -0.049  -0.481  24.082  0.00  0.00    -0.210 NA
BRANCH   8   7
ATOM      7  C   UNL     1       0.133   0.112  23.538  0.00  0.00    +0.115 C 
BRANCH   7   6
ATOM      3  C   UNL     1       2.422   0.288  22.614  0.00  0.00    +0.139 A 
ATOM      4  C   UNL     1       2.183   0.791  23.222  0.00  0.00    +0.037 A 
ATOM      5  C   UNL     1       1.419   0.732  23.531  0.00  0.00    +0.000 A 
ATOM      6  C   UNL     1       0.896   0.171  23.230  0.00  0.00    -0.005 A 
ATOM     28  C   UNL     1       1.134  -0.331  22.621  0.00  0.00    +0.000 A 
ATOM     29  C   UNL     1       1.898  -0.273  22.313  0.00  0.00    +0.037 A 
BRANCH   3   2
ATOM      1  C   UNL     1       3.767   0.756  22.722  0.00  0.00    +0.252 C 
ATOM      2  O   UNL     1       3.185   0.347  22.306  0.00  0.00    -0.471 OA
ENDBRANCH   3   2
ENDBRANCH   7   6
ENDBRANCH   8   7
ENDBRANCH   9   8
TORSDOF 6
ENDMDL
MODEL 3
REMARK VINA RESULT:     -11.0      2.217      5.547
REMARK  Name = 
REMARK  6 active torsions:
REMARK  status: ('A' for Active; 'I' for Inactive)
REMARK    1  A    between atoms: O_2  and  C_3
REMARK    2  A    between atoms: C_6  and  C_7
REMARK    3  A    between atoms: C_7  and  N_8
REMARK    4  A    between atoms: N_8  and  C_9
REMARK    5  A    between atoms: C_11  and  C_14
REMARK    6  A    between atoms: N_17  and  C_21
REMARK                            x       y       z     vdW  Elec       q    Type
REMARK                         _______ _______ _______ _____ _____    ______ ____
ROOT
ATOM      9  C   UNL     1      -4.022   2.953  24.669  0.00  0.00    +0.095 C 
ATOM     10  C   UNL     1      -3.830   2.192  24.925  0.00  0.00    +0.031 C 
ATOM     11  C   UNL     1      -4.443   1.687  24.701  0.00  0.00    +0.048 C 
ATOM     12  C   UNL     1      -5.013   2.135  24.308  0.00  0.00    -0.025 C 
ATOM     13  C   UNL     1      -4.752   2.918  24.289  0.00  0.00    -0.013 C 
ENDROOT
BRANCH  11  14
ATOM     14  C   UNL     1      -4.479   0.876  24.846  0.00  0.00    +0.010 A 
ATOM     15  C   UNL     1      -4.057   0.292  24.445  0.00  0.00    +0.058 A 
ATOM     16  C   UNL     1      -3.524   0.417  23.828  0.00  0.00    +0.052 C 
ATOM     17  N   UNL     1      -4.261  -0.439  24.768  0.00  0.00    -0.234 N 
ATOM     18  N   UNL     1      -4.810  -0.308  25.370  0.00  0.00    -0.170 NA
ATOM     19  C   UNL     1      -4.945   0.505  25.418  0.00  0.00    +0.077 A 
ATOM     20  C   UNL     1      -5.456   0.882  25.946  0.00  0.00    +0.054 C 
BRANCH  17  21
ATOM     21  C   UNL     1      -3.968  -1.174  24.532  0.00  0.00    +0.083 A 
ATOM     22  C   UNL     1      -3.260  -1.456  24.847  0.00  0.00    +0.026 A 
ATOM     23  C   UNL     1      -2.967  -2.189  24.610  0.00  0.00    +0.036 A 
ATOM     24 BR   UNL     1      -2.259  -2.471  24.925  0.00  0.00    -0.049 Br
ATOM     25  C   UNL     1      -3.382  -2.642  24.059  0.00  0.00    +0.007 A 
ATOM     26  C   UNL     1      -4.090  -2.359  23.744  0.00  0.00    +0.002 A 
ATOM     27  C   UNL     1      -4.384  -1.625  23.981  0.00  0.00    +0.019 A 
ENDBRANCH  17  21
ENDBRANCH  11  14
BRANCH   9   8
ATOM      8  N   UNL     1      -3.563   3.630  24.776  0.00  0.00    -0.210 NA
BRANCH   8   7
ATOM      7  C   UNL     1      -2.979   3.645  25.359  0.00  0.00    +0.115 C 
BRANCH   7   6
ATOM      3  C   UNL     1      -0.917   4.970  25.013  0.00  0.00    +0.139 A 
ATOM      4  C   UNL     1      -0.881   4.147  25.026  0.00  0.00    +0.037 A 
ATOM      5  C   UNL     1      -1.569   3.704  25.141  0.00  0.00    +0.000 A 
ATOM      6  C   UNL     1      -2.292   4.087  25.244  0.00  0.00    -0.005 A 
ATOM     28  C   UNL     1      -2.329   4.910  25.231  0.00  0.00    +0.000 A 
ATOM     29  C   UNL     1      -1.641   5.352  25.115  0.00  0.00    +0.037 A 
BRANCH   3   2
ATOM      1  C   UNL     1       0.110   5.457  24.148  0.00  0.00    +0.252 C 
ATOM      2  O   UNL     1      -0.230   5.412  24.898  0.00  0.00    -0.471 OA
ENDBRANCH   3   2
ENDBRANCH   7   6
ENDBRANCH   8   7
ENDBRANCH   9   8
TORSDOF 6
ENDMDL
MODEL 4
REMARK VINA RESULT:     -10.9      2.112      2.966
REMARK  Name = 
REMARK  6 active torsions:
REMARK  status: ('A' for Active; 'I' for Inactive)
REMARK    1  A    between atoms: O_2  and  C_3
REMARK    2  A    between atoms: C_6  and  C_7
REMARK    3  A    between atoms: C_7  and  N_8
REMARK    4  A    between atoms: N_8  and  C_9
REMARK    5  A    between atoms: C_11  and  C_14
REMARK    6  A    between atoms: N_17  and  C_21
REMARK                            x       y       z     vdW  Elec       q    Type
REMARK                         _______ _______ _______ _____ _____    ______ ____
ROOT
ATOM      9  C   UNL     1      -0.590   0.068  24.450  0.00  0.00    +0.095 C 
ATOM     10  C   UNL     1      -0.881   0.690  24.908  0.00  0.00    +0.031 C 
ATOM     11  C   UNL     1      -0.392   1.344  24.787  0.00  0.00    +0.048 C 
ATOM     12  C   UNL     1       0.199   1.126  24.255  0.00  0.00    -0.025 C 
ATOM     13  C   UNL     1       0.076   0.337  24.047  0.00  0.00    -0.013 C 
ENDROOT
BRANCH  11  14
ATOM     14  C   UNL     1      -0.480   2.086  25.138  0.00  0.00    +0.010 A 
ATOM     15  C   UNL     1      -0.946   2.704  24.854  0.00  0.00    +0.058 A 
ATOM     16  C   UNL     1      -1.407   2.690  24.169  0.00  0.00    +0.052 C 
ATOM     17  N   UNL     1      -0.871   3.340  25.374  0.00  0.00    -0.234 N 
ATOM     18  N   UNL     1      -0.359   3.115  25.980  0.00  0.00    -0.170 NA
ATOM     19  C   UNL     1      -0.117   2.339  25.834  0.00  0.00    +0.077 A 
ATOM     20  C   UNL     1       0.398   1.895  26.302  0.00  0.00    +0.054 C 
BRANCH  17  21
ATOM     21  C   UNL     1      -1.244   4.073  25.302  0.00  0.00    +0.083 A 
ATOM     22  C   UNL     1      -2.009   4.177  25.591  0.00  0.00    +0.026 A 
ATOM     23  C   UNL     1      -2.381   4.910  25.519  0.00  0.00    +0.036 A 
ATOM     24 BR   UNL     1      -3.146   5.014  25.808  0.00  0.00    -0.049 Br
ATOM     25  C   UNL     1      -1.988   5.538  25.157  0.00  0.00    +0.007 A 
ATOM     26  C   UNL     1      -1.223   5.434  24.867  0.00  0.00    +0.002 A 
ATOM     27  C   UNL     1      -0.850   4.701  24.940  0.00  0.00    +0.019 A 
ENDBRANCH  17  21
ENDBRANCH  11  14
BRANCH   9   8
ATOM      8  N   UNL     1      -0.912  -0.690  24.404  0.00  0.00    -0.210 NA
BRANCH   8   7
ATOM      7  C   UNL     1      -1.372  -0.982  25.023  0.00  0.00    +0.115 C 
BRANCH   7   6
ATOM      3  C   UNL     1      -3.200  -2.584  24.560  0.00  0.00    +0.139 A 
ATOM      4  C   UNL     1      -2.426  -2.771  24.349  0.00  0.00    +0.037 A 
ATOM      5  C   UNL     1      -1.815  -2.236  24.503  0.00  0.00    +0.000 A 
ATOM      6  C   UNL     1      -1.981  -1.516  24.869  0.00  0.00    -0.005 A 
ATOM     28  C   UNL     1      -2.756  -1.330  25.080  0.00  0.00    +0.000 A 
ATOM     29  C   UNL     1      -3.366  -1.864  24.926  0.00  0.00    +0.037 A 
BRANCH   3   2
ATOM      1  C   UNL     1      -4.355  -2.960  23.808  0.00  0.00    +0.252 C 
ATOM      2  O   UNL     1      -3.810  -3.119  24.406  0.00  0.00    -0.471 OA
ENDBRANCH   3   2
ENDBRANCH   7   6
ENDBRANCH   8   7
ENDBRANCH   9   8
TORSDOF 6
ENDMDL
MODEL 5
REMARK VINA RESULT:     -10.4      4.437      5.686
REMARK  Name = 
REMARK  6 active torsions:
REMARK  status: ('A' for Active; 'I' for Inactive)
REMARK    1  A    between atoms: O_2  and  C_3
REMARK    2  A    between atoms: C_6  and  C_7
REMARK    3  A    between atoms: C_7  and  N_8
REMARK    4  A    between atoms: N_8  and  C_9
REMARK    5  A    between atoms: C_11  and  C_14
REMARK    6  A    between atoms: N_17  and  C_21
REMARK                            x       y       z     vdW  Elec       q    Type
REMARK                         _______ _______ _______ _____ _____    ______ ____
ROOT
ATOM      9  C   UNL     1       0.676   0.453  23.468  0.00  0.00    +0.095 C 
ATOM     10  C   UNL     1       0.158   0.869  23.956  0.00  0.00    +0.031 C 
ATOM     11  C   UNL     1      -0.566   0.474  23.954  0.00  0.00    +0.048 C 
ATOM     12  C   UNL     1      -0.495  -0.186  23.464  0.00  0.00    -0.025 C 
ATOM     13  C   UNL     1       0.274  -0.199  23.164  0.00  0.00    -0.013 C 
ENDROOT
BRANCH  11  14
ATOM     14  C   UNL     1      -1.243   0.699  24.368  0.00  0.00    +0.010 A 
ATOM     15  C   UNL     1      -1.809   1.243  24.114  0.00  0.00    +0.058 A 
ATOM     16  C   UNL     1      -1.798   1.657  23.401  0.00  0.00    +0.052 C 
ATOM     17  N   UNL     1      -2.388   1.300  24.700  0.00  0.00    -0.234 N 
ATOM     18  N   UNL     1      -2.180   0.792  25.315  0.00  0.00    -0.170 NA
ATOM     19  C   UNL     1      -1.472   0.421  25.111  0.00  0.00    +0.077 A 
ATOM     20  C   UNL     1      -1.065  -0.133  25.568  0.00  0.00    +0.054 C 
BRANCH  17  21
ATOM     21  C   UNL     1      -3.058   1.782  24.673  0.00  0.00    +0.083 A 
ATOM     22  C   UNL     1      -3.051   2.519  25.044  0.00  0.00    +0.026 A 
ATOM     23  C   UNL     1      -3.721   2.999  25.017  0.00  0.00    +0.036 A 
ATOM     24 BR   UNL     1      -3.714   3.736  25.388  0.00  0.00    -0.049 Br
ATOM     25  C   UNL     1      -4.398   2.743  24.621  0.00  0.00    +0.007 A 
ATOM     26  C   UNL     1      -4.405   2.006  24.251  0.00  0.00    +0.002 A 
ATOM     27  C   UNL     1      -3.735   1.525  24.277  0.00  0.00    +0.019 A 
ENDBRANCH  17  21
ENDBRANCH  11  14
BRANCH   9   8
ATOM      8  N   UNL     1       1.461   0.654  23.311  0.00  0.00    -0.210 NA
BRANCH   8   7
ATOM      7  C   UNL     1       1.930   0.158  22.848  0.00  0.00    +0.115 C 
BRANCH   7   6
ATOM      3  C   UNL     1       4.397   0.331  22.955  0.00  0.00    +0.139 A 
ATOM      4  C   UNL     1       4.025  -0.382  23.139  0.00  0.00    +0.037 A 
ATOM      5  C   UNL     1       3.202  -0.439  23.103  0.00  0.00    +0.000 A 
ATOM      6  C   UNL     1       2.752   0.215  22.884  0.00  0.00    -0.005 A 
ATOM     28  C   UNL     1       3.123   0.928  22.699  0.00  0.00    +0.000 A 
ATOM     29  C   UNL     1       3.947   0.986  22.735  0.00  0.00    +0.037 A 
BRANCH   3   2
ATOM      1  C   UNL     1       5.624   0.106  23.650  0.00  0.00    +0.252 C 
ATOM      2  O   UNL     1       5.219   0.389  22.990  0.00  0.00    -0.471 OA
ENDBRANCH   3   2
ENDBRANCH   7   6
ENDBRANCH   8   7
ENDBRANCH   9   8
TORSDOF 6
ENDMDL
MODEL 6
REMARK VINA RESULT:     -10.3      4.349      6.219
REMARK  Name = 
REMARK  6 active torsions:
REMARK  status: ('A' for Active; 'I' for Inactive)
REMARK    1  A    between atoms: O_2  and  C_3
REMARK    2  A    between atoms: C_6  and  C_7
REMARK    3  A    between atoms: C_7  and  N_8
REMARK    4  A    between atoms: N_8  and  C_9
REMARK    5  A    between atoms: C_11  and  C_14
REMARK    6  A    between atoms: N_17  and  C_21
REMARK                            x       y       z     vdW  Elec       q    Type
REMARK                         _______ _______ _______ _____ _____    ______ ____
ROOT
ATOM      9  C   UNL     1       0.743   1.402  23.934  0.00  0.00    +0.095 C 
ATOM     10  C   UNL     1       0.105   0.909  23.758  0.00  0.00    +0.031 C 
ATOM     11  C   UNL     1      -0.525   1.126  24.245  0.00  0.00    +0.048 C 
ATOM     12  C   UNL     1      -0.276   1.752  24.721  0.00  0.00    -0.025 C 
ATOM     13  C   UNL     1       0.508   1.922  24.528  0.00  0.00    -0.013 C 
ENDROOT
BRANCH  11  14
ATOM     14  C   UNL     1      -1.273   0.777  24.255  0.00  0.00    +0.010 A 
ATOM     15  C   UNL     1      -1.491   0.110  24.688  0.00  0.00    +0.058 A 
ATOM     16  C   UNL     1      -1.001  -0.327  25.187  0.00  0.00    +0.052 C 
ATOM     17  N   UNL     1      -2.287  -0.045  24.533  0.00  0.00    -0.234 N 
ATOM     18  N   UNL     1      -2.560   0.527  24.005  0.00  0.00    -0.170 NA
ATOM     19  C   UNL     1      -1.933   1.035  23.833  0.00  0.00    +0.077 A 
ATOM     20  C   UNL     1      -1.962   1.687  23.328  0.00  0.00    +0.054 C 
BRANCH  17  21
ATOM     21  C   UNL     1      -2.732  -0.663  24.851  0.00  0.00    +0.083 A 
ATOM     22  C   UNL     1      -2.944  -1.305  24.378  0.00  0.00    +0.026 A 
ATOM     23  C   UNL     1      -3.388  -1.922  24.696  0.00  0.00    +0.036 A 
ATOM     24 BR   UNL     1      -3.600  -2.564  24.223  0.00  0.00    -0.049 Br
ATOM     25  C   UNL     1      -3.621  -1.899  25.487  0.00  0.00    +0.007 A 
ATOM     26  C   UNL     1      -3.409  -1.257  25.960  0.00  0.00    +0.002 A 
ATOM     27  C   UNL     1      -2.964  -0.639  25.642  0.00  0.00    +0.019 A 
ENDBRANCH  17  21
ENDBRANCH  11  14
BRANCH   9   8
ATOM      8  N   UNL     1       1.486   1.377  23.576  0.00  0.00    -0.210 NA
BRANCH   8   7
ATOM      7  C   UNL     1       1.734   0.694  23.186  0.00  0.00    +0.115 C 
BRANCH   7   6
ATOM      3  C   UNL     1       4.149   0.274  22.840  0.00  0.00    +0.139 A 
ATOM      4  C   UNL     1       3.646  -0.349  23.038  0.00  0.00    +0.037 A 
ATOM      5  C   UNL     1       2.841  -0.209  23.154  0.00  0.00    +0.000 A 
ATOM      6  C   UNL     1       2.539   0.554  23.071  0.00  0.00    -0.005 A 
ATOM     28  C   UNL     1       3.041   1.177  22.873  0.00  0.00    +0.000 A 
ATOM     29  C   UNL     1       3.847   1.037  22.757  0.00  0.00    +0.037 A 
BRANCH   3   2
ATOM      1  C   UNL     1       5.479   0.204  23.356  0.00  0.00    +0.252 C 
ATOM      2  O   UNL     1       4.954   0.134  22.725  0.00  0.00    -0.471 OA
ENDBRANCH   3   2
ENDBRANCH   7   6
ENDBRANCH   8   7
ENDBRANCH   9   8
TORSDOF 6
ENDMDL
MODEL 7
REMARK VINA RESULT:     -10.3      3.320      4.739
REMARK  Name = 
REMARK  6 active torsions:
REMARK  status: ('A' for Active; 'I' for Inactive)
REMARK    1  A    between atoms: O_2  and  C_3
REMARK    2  A    between atoms: C_6  and  C_7
REMARK    3  A    between atoms: C_7  and  N_8
REMARK    4  A    between atoms: N_8  and  C_9
REMARK    5  A    between atoms: C_11  and  C_14
REMARK    6  A    between atoms: N_17  and  C_21
REMARK                            x       y       z     vdW  Elec       q    Type
REMARK                         _______ _______ _______ _____ _____    ______ ____
ROOT
ATOM      9  C   UNL     1      -0.199   2.169  24.862  0.00  0.00    +0.095 C 
ATOM     10  C   UNL     1      -0.950   2.369  24.585  0.00  0.00    +0.031 C 
ATOM     11  C   UNL     1      -1.395   2.634  25.227  0.00  0.00    +0.048 C 
ATOM     12  C   UNL     1      -0.920   2.597  25.900  0.00  0.00    -0.025 C 
ATOM     13  C   UNL     1      -0.180   2.309  25.674  0.00  0.00    -0.013 C 
ENDROOT
BRANCH  11  14
ATOM     14  C   UNL     1      -2.179   2.890  25.200  0.00  0.00    +0.010 A 
ATOM     15  C   UNL     1      -2.844   2.409  25.125  0.00  0.00    +0.058 A 
ATOM     16  C   UNL     1      -2.844   1.587  25.064  0.00  0.00    +0.052 C 
ATOM     17  N   UNL     1      -3.511   2.895  25.122  0.00  0.00    -0.234 N 
ATOM     18  N   UNL     1      -3.258   3.677  25.195  0.00  0.00    -0.170 NA
ATOM     19  C   UNL     1      -2.434   3.674  25.244  0.00  0.00    +0.077 A 
ATOM     20  C   UNL     1      -1.950   4.338  25.322  0.00  0.00    +0.054 C 
BRANCH  17  21
ATOM     21  C   UNL     1      -4.295   2.644  25.057  0.00  0.00    +0.083 A 
ATOM     22  C   UNL     1      -4.792   2.669  25.715  0.00  0.00    +0.026 A 
ATOM     23  C   UNL     1      -5.575   2.418  25.650  0.00  0.00    +0.036 A 
ATOM     24 BR   UNL     1      -6.072   2.444  26.307  0.00  0.00    -0.049 Br
ATOM     25  C   UNL     1      -5.861   2.140  24.927  0.00  0.00    +0.007 A 
ATOM     26  C   UNL     1      -5.363   2.115  24.270  0.00  0.00    +0.002 A 
ATOM     27  C   UNL     1      -4.580   2.366  24.335  0.00  0.00    +0.019 A 
ENDBRANCH  17  21
ENDBRANCH  11  14
BRANCH   9   8
ATOM      8  N   UNL     1       0.424   1.878  24.406  0.00  0.00    -0.210 NA
BRANCH   8   7
ATOM      7  C   UNL     1       0.341   1.165  23.999  0.00  0.00    +0.115 C 
BRANCH   7   6
ATOM      3  C   UNL     1       2.237   0.253  22.696  0.00  0.00    +0.139 A 
ATOM      4  C   UNL     1       1.512  -0.141  22.701  0.00  0.00    +0.037 A 
ATOM      5  C   UNL     1       0.880   0.164  23.136  0.00  0.00    +0.000 A 
ATOM      6  C   UNL     1       0.973   0.861  23.565  0.00  0.00    -0.005 A 
ATOM     28  C   UNL     1       1.697   1.255  23.560  0.00  0.00    +0.000 A 
ATOM     29  C   UNL     1       2.330   0.950  23.126  0.00  0.00    +0.037 A 
BRANCH   3   2
ATOM      1  C   UNL     1       3.596   0.336  22.267  0.00  0.00    +0.252 C 
ATOM      2  O   UNL     1       2.869  -0.051  22.262  0.00  0.00    -0.471 OA
ENDBRANCH   3   2
ENDBRANCH   7   6
ENDBRANCH   8   7
ENDBRANCH   9   8
TORSDOF 6
ENDMDL
MODEL 8
REMARK VINA RESULT:     -10.1      2.849      4.613
REMARK  Name = 
REMARK  6 active torsions:
REMARK  status: ('A' for Active; 'I' for Inactive)
REMARK    1  A    between atoms: O_2  and  C_3
REMARK    2  A    between atoms: C_6  and  C_7
REMARK    3  A    between atoms: C_7  and  N_8
REMARK    4  A    between atoms: N_8  and  C_9
REMARK    5  A    between atoms: C_11  and  C_14
REMARK    6  A    between atoms: N_17  and  C_21
REMARK                            x       y       z     vdW  Elec       q    Type
REMARK                         _______ _______ _______ _____ _____    ______ ____
ROOT
ATOM      9  C   UNL     1      -2.271   3.649  25.238  0.00  0.00    +0.095 C 
ATOM     10  C   UNL     1      -1.878   2.925  25.205  0.00  0.00    +0.031 C 
ATOM     11  C   UNL     1      -1.086   3.074  25.026  0.00  0.00    +0.048 C 
ATOM     12  C   UNL     1      -0.991   3.890  24.948  0.00  0.00    -0.025 C 
ATOM     13  C   UNL     1      -1.725   4.245  25.079  0.00  0.00    -0.013 C 
ENDROOT
BRANCH  11  14
ATOM     14  C   UNL     1      -0.494   2.506  24.939  0.00  0.00    +0.010 A 
ATOM     15  C   UNL     1      -0.387   2.012  24.288  0.00  0.00    +0.058 A 
ATOM     16  C   UNL     1      -0.853   1.998  23.608  0.00  0.00    +0.052 C 
ATOM     17  N   UNL     1       0.269   1.533  24.436  0.00  0.00    -0.234 N 
ATOM     18  N   UNL     1       0.568   1.732  25.179  0.00  0.00    -0.170 NA
ATOM     19  C   UNL     1       0.096   2.334  25.490  0.00  0.00    +0.077 A 
ATOM     20  C   UNL     1       0.197   2.699  26.224  0.00  0.00    +0.054 C 
BRANCH  17  21
ATOM     21  C   UNL     1       0.573   0.957  23.929  0.00  0.00    +0.083 A 
ATOM     22  C   UNL     1       1.331   1.042  23.616  0.00  0.00    +0.026 A 
ATOM     23  C   UNL     1       1.635   0.466  23.110  0.00  0.00    +0.036 A 
ATOM     24 BR   UNL     1       2.393   0.551  22.796  0.00  0.00    -0.049 Br
ATOM     25  C   UNL     1       1.181  -0.196  22.917  0.00  0.00    +0.007 A 
ATOM     26  C   UNL     1       0.423  -0.280  23.231  0.00  0.00    +0.002 A 
ATOM     27  C   UNL     1       0.118   0.296  23.737  0.00  0.00    +0.019 A 
ENDBRANCH  17  21
ENDBRANCH  11  14
BRANCH   9   8
ATOM      8  N   UNL     1      -3.073   3.758  25.401  0.00  0.00    -0.210 NA
BRANCH   8   7
ATOM      7  C   UNL     1      -3.633   3.656  24.804  0.00  0.00    +0.115 C 
BRANCH   7   6
ATOM      3  C   UNL     1      -5.772   2.511  25.295  0.00  0.00    +0.139 A 
ATOM      4  C   UNL     1      -5.275   2.221  24.705  0.00  0.00    +0.037 A 
ATOM      5  C   UNL     1      -4.561   2.603  24.541  0.00  0.00    +0.000 A 
ATOM      6  C   UNL     1      -4.346   3.275  24.968  0.00  0.00    -0.005 A 
ATOM     28  C   UNL     1      -4.843   3.565  25.558  0.00  0.00    +0.000 A 
ATOM     29  C   UNL     1      -5.556   3.183  25.722  0.00  0.00    +0.037 A 
BRANCH   3   2
ATOM      1  C   UNL     1      -6.560   1.672  26.140  0.00  0.00    +0.252 C 
ATOM      2  O   UNL     1      -6.484   2.129  25.458  0.00  0.00    -0.471 OA
ENDBRANCH   3   2
ENDBRANCH   7   6
ENDBRANCH   8   7
ENDBRANCH   9   8
TORSDOF 6
ENDMDL
MODEL 9
REMARK VINA RESULT:     -10.1      3.060      4.697
REMARK  Name = 
REMARK  6 active torsions:
REMARK  status: ('A' for Active; 'I' for Inactive)
REMARK    1  A    between atoms: O_2  and  C_3
REMARK    2  A    between atoms: C_6  and  C_7
REMARK    3  A    between atoms: C_7  and  N_8
REMARK    4  A    between atoms: N_8  and  C_9
REMARK    5  A    between atoms: C_11  and  C_14
REMARK    6  A    between atoms: N_17  and  C_21
REMARK                            x       y       z     vdW  Elec       q    Type
REMARK                         _______ _______ _______ _____ _____    ______ ____
ROOT
ATOM      9  C   UNL     1      -3.764  -0.193  25.002  0.00  0.00    +0.095 C 
ATOM     10  C   UNL     1      -2.964   0.008  25.024  0.00  0.00    +0.031 C 
ATOM     11  C   UNL     1      -2.539  -0.605  24.671  0.00  0.00    +0.048 C 
ATOM     12  C   UNL     1      -3.076  -1.184  24.433  0.00  0.00    -0.025 C 
ATOM     13  C   UNL     1      -3.834  -0.928  24.637  0.00  0.00    -0.013 C 
ENDROOT
BRANCH  11  14
ATOM     14  C   UNL     1      -1.720  -0.634  24.575  0.00  0.00    +0.010 A 
ATOM     15  C   UNL     1      -1.260  -0.082  24.171  0.00  0.00    +0.058 A 
ATOM     16  C   UNL     1      -1.537   0.597  23.792  0.00  0.00    +0.052 C 
ATOM     17  N   UNL     1      -0.473  -0.327  24.212  0.00  0.00    -0.234 N 
ATOM     18  N   UNL     1      -0.447  -1.030  24.642  0.00  0.00    -0.170 NA
ATOM     19  C   UNL     1      -1.218  -1.221  24.866  0.00  0.00    +0.077 A 
ATOM     20  C   UNL     1      -1.447  -1.881  25.305  0.00  0.00    +0.054 C 
BRANCH  17  21
ATOM     21  C   UNL     1       0.175   0.063  23.882  0.00  0.00    +0.083 A 
ATOM     22  C   UNL     1       0.599  -0.288  23.268  0.00  0.00    +0.026 A 
ATOM     23  C   UNL     1       1.246   0.102  22.938  0.00  0.00    +0.036 A 
ATOM     24 BR   UNL     1       1.670  -0.249  22.324  0.00  0.00    -0.049 Br
ATOM     25  C   UNL     1       1.470   0.844  23.221  0.00  0.00    +0.007 A 
ATOM     26  C   UNL     1       1.046   1.196  23.835  0.00  0.00    +0.002 A 
ATOM     27  C   UNL     1       0.398   0.805  24.166  0.00  0.00    +0.019 A 
ENDBRANCH  17  21
ENDBRANCH  11  14
BRANCH   9   8
ATOM      8  N   UNL     1      -4.386   0.264  25.295  0.00  0.00    -0.210 NA
BRANCH   8   7
ATOM      7  C   UNL     1      -4.838   0.724  24.781  0.00  0.00    +0.115 C 
BRANCH   7   6
ATOM      3  C   UNL     1      -5.709   2.919  25.522  0.00  0.00    +0.139 A 
ATOM      4  C   UNL     1      -5.197   2.875  24.878  0.00  0.00    +0.037 A 
ATOM      5  C   UNL     1      -4.906   2.143  24.630  0.00  0.00    +0.000 A 
ATOM      6  C   UNL     1      -5.129   1.455  25.028  0.00  0.00    -0.005 A 
ATOM     28  C   UNL     1      -5.641   1.499  25.672  0.00  0.00    +0.000 A 
ATOM     29  C   UNL     1      -5.931   2.232  25.920  0.00  0.00    +0.037 A 
BRANCH   3   2
ATOM      1  C   UNL     1      -5.534   4.326  25.690  0.00  0.00    +0.252 C 
ATOM      2  O   UNL     1      -5.999   3.650  25.769  0.00  0.00    -0.471 OA
ENDBRANCH   3   2
ENDBRANCH   7   6
ENDBRANCH   8   7
ENDBRANCH   9   8
TORSDOF 6
ENDMDL
