MODEL 1
REMARK VINA RESULT:      -9.9      0.000      0.000
REMARK  Name = 
REMARK  5 active torsions:
REMARK  status: ('A' for Active; 'I' for Inactive)
REMARK    1  A    between atoms: N_3  and  C_4
REMARK    2  A    between atoms: C_4  and  C_5
REMARK    3  A    between atoms: N_11  and  C_12
REMARK    4  A    between atoms: C_16  and  N_20
REMARK    5  A    between atoms: C_22  and  C_25
REMARK                            x       y       z     vdW  Elec       q    Type
REMARK                         _______ _______ _______ _____ _____    ______ ____
ROOT
ATOM     12  C   UNL     1      -1.179   1.174  24.221  0.00  0.00    +0.156 C 
ATOM     13  C   UNL     1      -0.772   1.823  23.916  0.00  0.00    +0.166 C 
ATOM     14  O   UNL     1      -0.081   1.547  23.562  0.00  0.00    -0.350 OA
ATOM     15  C   UNL     1      -0.060   0.727  23.647  0.00  0.00    +0.169 C 
ATOM     16  C   UNL     1       0.379   0.049  23.482  0.00  0.00    +0.166 C 
ATOM     17  C   UNL     1      -0.028  -0.601  23.786  0.00  0.00    +0.169 C 
ATOM     18  O   UNL     1      -0.719  -0.324  24.141  0.00  0.00    -0.350 OA
ATOM     19  C   UNL     1      -0.740   0.497  24.055  0.00  0.00    +0.167 C 
ENDROOT
BRANCH  16  20
ATOM     20  N   UNL     1       1.100   0.025  23.081  0.00  0.00    -0.227 N 
ATOM     21  C   UNL     1       1.843   0.172  23.409  0.00  0.00    +0.119 A 
ATOM     22  C   UNL     1       2.406   0.087  22.813  0.00  0.00    +0.141 A 
ATOM     23  N   UNL     1       2.012  -0.112  22.116  0.00  0.00    -0.127 NA
ATOM     24  N   UNL     1       1.205  -0.151  22.282  0.00  0.00    -0.064 NA
BRANCH  22  25
ATOM     25  C   UNL     1       3.222   0.185  22.898  0.00  0.00    +0.102 A 
ATOM     26  N   UNL     1       3.680  -0.429  23.205  0.00  0.00    -0.242 NA
ATOM     27  C   UNL     1       4.495  -0.331  23.290  0.00  0.00    +0.099 A 
ATOM     28  C   UNL     1       4.851   0.380  23.069  0.00  0.00    +0.021 A 
ATOM     29  C   UNL     1       4.391   0.993  22.763  0.00  0.00    +0.003 A 
ATOM     30  C   UNL     1       3.577   0.895  22.677  0.00  0.00    +0.021 A 
ENDBRANCH  22  25
ENDBRANCH  16  20
BRANCH  12  11
ATOM      1  O   UNL     1      -2.387   2.163  23.687  0.00  0.00    -0.249 OA
ATOM      2  C   UNL     1      -2.505   1.692  24.355  0.00  0.00    +0.340 C 
ATOM      3  N   UNL     1      -3.225   1.717  24.755  0.00  0.00    -0.182 NA
ATOM     11  N   UNL     1      -1.901   1.198  24.622  0.00  0.00    -0.184 NA
BRANCH   3   4
ATOM      4  C   UNL     1      -3.830   2.211  24.489  0.00  0.00    +0.143 C 
BRANCH   4   5
ATOM      5  C   UNL     1      -4.541   2.254  24.903  0.00  0.00    -0.001 A 
ATOM      6  C   UNL     1      -5.097   1.649  24.832  0.00  0.00    -0.003 A 
ATOM      7  C   UNL     1      -5.809   1.692  25.247  0.00  0.00    -0.000 A 
ATOM      8  C   UNL     1      -5.965   2.340  25.733  0.00  0.00    -0.000 A 
ATOM      9  C   UNL     1      -5.409   2.946  25.803  0.00  0.00    -0.000 A 
ATOM     10  C   UNL     1      -4.697   2.903  25.389  0.00  0.00    -0.003 A 
ENDBRANCH   4   5
ENDBRANCH   3   4
ENDBRANCH  12  11
TORSDOF 5
ENDMDL
MODEL 2
REMARK VINA RESULT:      -9.3      0.970      7.086
REMARK  Name = 
REMARK  5 active torsions:
REMARK  status: ('A' for Active; 'I' for Inactive)
REMARK    1  A    between atoms: N_3  and  C_4
REMARK    2  A    between atoms: C_4  and  C_5
REMARK    3  A    between atoms: N_11  and  C_12
REMARK    4  A    between atoms: C_16  and  N_20
REMARK    5  A    between atoms: C_22  and  C_25
REMARK                            x       y       z     vdW  Elec       q    Type
REMARK                         _______ _______ _______ _____ _____    ______ ____
ROOT
ATOM     12  C   UNL     1       0.091   1.282  23.942  0.00  0.00    +0.156 C 
ATOM     13  C   UNL     1      -0.390   0.632  23.780  0.00  0.00    +0.166 C 
ATOM     14  O   UNL     1      -1.175   0.885  23.802  0.00  0.00    -0.350 OA
ATOM     15  C   UNL     1      -1.179   1.691  23.976  0.00  0.00    +0.169 C 
ATOM     16  C   UNL     1      -1.665   2.346  24.097  0.00  0.00    +0.166 C 
ATOM     17  C   UNL     1      -1.184   2.996  24.259  0.00  0.00    +0.169 C 
ATOM     18  O   UNL     1      -0.399   2.743  24.237  0.00  0.00    -0.350 OA
ATOM     19  C   UNL     1      -0.396   1.936  24.063  0.00  0.00    +0.167 C 
ENDROOT
BRANCH  16  20
ATOM     20  N   UNL     1      -2.490   2.350  24.063  0.00  0.00    -0.227 N 
ATOM     21  C   UNL     1      -3.003   2.326  24.709  0.00  0.00    +0.119 A 
ATOM     22  C   UNL     1      -3.776   2.340  24.421  0.00  0.00    +0.141 A 
ATOM     23  N   UNL     1      -3.741   2.373  23.598  0.00  0.00    -0.127 NA
ATOM     24  N   UNL     1      -2.946   2.380  23.377  0.00  0.00    -0.064 NA
BRANCH  22  25
ATOM     25  C   UNL     1      -4.463   2.323  24.878  0.00  0.00    +0.102 A 
ATOM     26  N   UNL     1      -4.701   2.998  25.288  0.00  0.00    -0.242 NA
ATOM     27  C   UNL     1      -5.389   2.982  25.745  0.00  0.00    +0.099 A 
ATOM     28  C   UNL     1      -5.838   2.291  25.790  0.00  0.00    +0.021 A 
ATOM     29  C   UNL     1      -5.599   1.617  25.378  0.00  0.00    +0.003 A 
ATOM     30  C   UNL     1      -4.912   1.633  24.923  0.00  0.00    +0.021 A 
ENDBRANCH  22  25
ENDBRANCH  16  20
BRANCH  12  11
ATOM      1  O   UNL     1       0.957   0.368  22.875  0.00  0.00    -0.249 OA
ATOM      2  C   UNL     1       1.349   0.821  23.443  0.00  0.00    +0.340 C 
ATOM      3  N   UNL     1       2.173   0.817  23.477  0.00  0.00    -0.182 NA
ATOM     11  N   UNL     1       0.916   1.278  23.976  0.00  0.00    -0.184 NA
BRANCH   3   4
ATOM      4  C   UNL     1       2.606   0.360  22.944  0.00  0.00    +0.143 C 
BRANCH   4   5
ATOM      5  C   UNL     1       3.424   0.293  23.027  0.00  0.00    -0.001 A 
ATOM      6  C   UNL     1       3.751  -0.395  23.343  0.00  0.00    -0.003 A 
ATOM      7  C   UNL     1       4.569  -0.462  23.426  0.00  0.00    -0.000 A 
ATOM      8  C   UNL     1       5.060   0.158  23.193  0.00  0.00    -0.000 A 
ATOM      9  C   UNL     1       4.732   0.847  22.876  0.00  0.00    -0.000 A 
ATOM     10  C   UNL     1       3.915   0.914  22.793  0.00  0.00    -0.003 A 
ENDBRANCH   4   5
ENDBRANCH   3   4
ENDBRANCH  12  11
TORSDOF 5
ENDMDL
MODEL 3
REMARK VINA RESULT:      -7.1     14.386     16.447
REMARK  Name = 
REMARK  5 active torsions:
REMARK  status: ('A' for Active; 'I' for Inactive)
REMARK    1  A    between atoms: N_3  and  C_4
REMARK    2  A    between atoms: C_4  and  C_5
REMARK    3  A    between atoms: N_11  and  C_12
REMARK    4  A    between atoms: C_16  and  N_20
REMARK    5  A    between atoms: C_22  and  C_25
REMARK                            x       y       z     vdW  Elec       q    Type
REMARK                         _______ _______ _______ _____ _____    ______ ____
ROOT
ATOM     12  C   UNL     1      -5.505 -10.393  14.956  0.00  0.00    +0.156 C 
ATOM     13  C   UNL     1      -6.209 -10.753  14.723  0.00  0.00    +0.166 C 
ATOM     14  O   UNL     1      -6.785 -10.571  15.284  0.00  0.00    -0.350 OA
ATOM     15  C   UNL     1      -6.438 -10.099  15.863  0.00  0.00    +0.169 C 
ATOM     16  C   UNL     1      -6.578  -9.694  16.568  0.00  0.00    +0.166 C 
ATOM     17  C   UNL     1      -5.874  -9.333  16.801  0.00  0.00    +0.169 C 
ATOM     18  O   UNL     1      -5.298  -9.515  16.240  0.00  0.00    -0.350 OA
ATOM     19  C   UNL     1      -5.646  -9.988  15.660  0.00  0.00    +0.167 C 
ENDROOT
BRANCH  16  20
ATOM     20  N   UNL     1      -7.298  -9.656  16.970  0.00  0.00    -0.227 N 
ATOM     21  C   UNL     1      -7.924  -9.146  16.798  0.00  0.00    +0.119 A 
ATOM     22  C   UNL     1      -8.531  -9.297  17.336  0.00  0.00    +0.141 A 
ATOM     23  N   UNL     1      -8.280  -9.899  17.840  0.00  0.00    -0.127 NA
ATOM     24  N   UNL     1      -7.518 -10.121  17.614  0.00  0.00    -0.064 NA
BRANCH  22  25
ATOM     25  C   UNL     1      -9.261  -8.912  17.364  0.00  0.00    +0.102 A 
ATOM     26  N   UNL     1      -9.329  -8.137  17.090  0.00  0.00    -0.242 NA
ATOM     27  C   UNL     1     -10.058  -7.753  17.119  0.00  0.00    +0.099 A 
ATOM     28  C   UNL     1     -10.719  -8.143  17.420  0.00  0.00    +0.021 A 
ATOM     29  C   UNL     1     -10.650  -8.919  17.694  0.00  0.00    +0.003 A 
ATOM     30  C   UNL     1      -9.921  -9.303  17.666  0.00  0.00    +0.021 A 
ENDBRANCH  22  25
ENDBRANCH  16  20
BRANCH  12  11
ATOM      1  O   UNL     1      -5.480 -10.388  13.306  0.00  0.00    -0.249 OA
ATOM      2  C   UNL     1      -4.772 -10.428  13.729  0.00  0.00    +0.340 C 
ATOM      3  N   UNL     1      -4.053 -10.466  13.327  0.00  0.00    -0.182 NA
ATOM     11  N   UNL     1      -4.785 -10.430  14.554  0.00  0.00    -0.184 NA
BRANCH   3   4
ATOM      4  C   UNL     1      -4.040 -10.463  12.502  0.00  0.00    +0.143 C 
BRANCH   4   5
ATOM      5  C   UNL     1      -3.332 -10.330  12.101  0.00  0.00    -0.001 A 
ATOM      6  C   UNL     1      -2.616 -10.558  12.441  0.00  0.00    -0.003 A 
ATOM      7  C   UNL     1      -1.907 -10.424  12.039  0.00  0.00    -0.000 A 
ATOM      8  C   UNL     1      -1.915 -10.063  11.297  0.00  0.00    -0.000 A 
ATOM      9  C   UNL     1      -2.632  -9.835  10.958  0.00  0.00    -0.000 A 
ATOM     10  C   UNL     1      -3.340  -9.969  11.359  0.00  0.00    -0.003 A 
ENDBRANCH   4   5
ENDBRANCH   3   4
ENDBRANCH  12  11
TORSDOF 5
ENDMDL
MODEL 4
REMARK VINA RESULT:      -6.4     15.369     16.414
REMARK  Name = 
REMARK  5 active torsions:
REMARK  status: ('A' for Active; 'I' for Inactive)
REMARK    1  A    between atoms: N_3  and  C_4
REMARK    2  A    between atoms: C_4  and  C_5
REMARK    3  A    between atoms: N_11  and  C_12
REMARK    4  A    between atoms: C_16  and  N_20
REMARK    5  A    between atoms: C_22  and  C_25
REMARK                            x       y       z     vdW  Elec       q    Type
REMARK                         _______ _______ _______ _____ _____    ______ ____
ROOT
ATOM     12  C   UNL     1      -5.986 -10.137  14.296  0.00  0.00    +0.156 C 
ATOM     13  C   UNL     1      -5.184 -10.170  14.107  0.00  0.00    +0.166 C 
ATOM     14  O   UNL     1      -5.094  -9.903  13.332  0.00  0.00    -0.350 OA
ATOM     15  C   UNL     1      -5.840  -9.704  13.042  0.00  0.00    +0.169 C 
ATOM     16  C   UNL     1      -6.247  -9.416  12.385  0.00  0.00    +0.166 C 
ATOM     17  C   UNL     1      -7.049  -9.383  12.574  0.00  0.00    +0.169 C 
ATOM     18  O   UNL     1      -7.138  -9.650  13.349  0.00  0.00    -0.350 OA
ATOM     19  C   UNL     1      -6.391  -9.849  13.639  0.00  0.00    +0.167 C 
ENDROOT
BRANCH  16  20
ATOM     20  N   UNL     1      -5.909  -9.200  11.663  0.00  0.00    -0.227 N 
ATOM     21  C   UNL     1      -5.840  -9.680  10.996  0.00  0.00    +0.119 A 
ATOM     22  C   UNL     1      -5.470  -9.242  10.404  0.00  0.00    +0.141 A 
ATOM     23  N   UNL     1      -5.311  -8.491  10.704  0.00  0.00    -0.127 NA
ATOM     24  N   UNL     1      -5.582  -8.465  11.482  0.00  0.00    -0.064 NA
BRANCH  22  25
ATOM     25  C   UNL     1      -5.290  -9.509   9.643  0.00  0.00    +0.102 A 
ATOM     26  N   UNL     1      -5.789  -9.323   9.013  0.00  0.00    -0.242 NA
ATOM     27  C   UNL     1      -5.610  -9.589   8.253  0.00  0.00    +0.099 A 
ATOM     28  C   UNL     1      -4.932 -10.041   8.124  0.00  0.00    +0.021 A 
ATOM     29  C   UNL     1      -4.434 -10.227   8.754  0.00  0.00    +0.003 A 
ATOM     30  C   UNL     1      -4.612  -9.961   9.514  0.00  0.00    +0.021 A 
ENDBRANCH  22  25
ENDBRANCH  16  20
BRANCH  12  11
ATOM      1  O   UNL     1      -5.313  -9.618  15.711  0.00  0.00    -0.249 OA
ATOM      2  C   UNL     1      -5.987 -10.095  15.725  0.00  0.00    +0.340 C 
ATOM      3  N   UNL     1      -6.324 -10.311  16.446  0.00  0.00    -0.182 NA
ATOM     11  N   UNL     1      -6.324 -10.354  15.018  0.00  0.00    -0.184 NA
BRANCH   3   4
ATOM      4  C   UNL     1      -5.988 -10.052  17.154  0.00  0.00    +0.143 C 
BRANCH   4   5
ATOM      5  C   UNL     1      -6.325 -10.268  17.874  0.00  0.00    -0.001 A 
ATOM      6  C   UNL     1      -7.138 -10.187  17.990  0.00  0.00    -0.003 A 
ATOM      7  C   UNL     1      -7.475 -10.403  18.712  0.00  0.00    -0.000 A 
ATOM      8  C   UNL     1      -7.000 -10.700  19.317  0.00  0.00    -0.000 A 
ATOM      9  C   UNL     1      -6.187 -10.781  19.201  0.00  0.00    -0.000 A 
ATOM     10  C   UNL     1      -5.850 -10.565  18.480  0.00  0.00    -0.003 A 
ENDBRANCH   4   5
ENDBRANCH   3   4
ENDBRANCH  12  11
TORSDOF 5
ENDMDL
MODEL 5
REMARK VINA RESULT:      -6.2     15.087     15.819
REMARK  Name = 
REMARK  5 active torsions:
REMARK  status: ('A' for Active; 'I' for Inactive)
REMARK    1  A    between atoms: N_3  and  C_4
REMARK    2  A    between atoms: C_4  and  C_5
REMARK    3  A    between atoms: N_11  and  C_12
REMARK    4  A    between atoms: C_16  and  N_20
REMARK    5  A    between atoms: C_22  and  C_25
REMARK                            x       y       z     vdW  Elec       q    Type
REMARK                         _______ _______ _______ _____ _____    ______ ____
ROOT
ATOM     12  C   UNL     1      -7.112 -10.046  14.182  0.00  0.00    +0.156 C 
ATOM     13  C   UNL     1      -6.549 -10.582  14.457  0.00  0.00    +0.166 C 
ATOM     14  O   UNL     1      -5.968 -10.659  13.877  0.00  0.00    -0.350 OA
ATOM     15  C   UNL     1      -6.172 -10.173  13.244  0.00  0.00    +0.169 C 
ATOM     16  C   UNL     1      -5.940  -9.919  12.494  0.00  0.00    +0.166 C 
ATOM     17  C   UNL     1      -6.504  -9.384  12.219  0.00  0.00    +0.169 C 
ATOM     18  O   UNL     1      -7.085  -9.306  12.799  0.00  0.00    -0.350 OA
ATOM     19  C   UNL     1      -6.880  -9.794  13.433  0.00  0.00    +0.167 C 
ENDROOT
BRANCH  16  20
ATOM     20  N   UNL     1      -5.262 -10.159  12.090  0.00  0.00    -0.227 N 
ATOM     21  C   UNL     1      -4.493  -9.893  12.230  0.00  0.00    +0.119 A 
ATOM     22  C   UNL     1      -3.990 -10.277  11.701  0.00  0.00    +0.141 A 
ATOM     23  N   UNL     1      -4.447 -10.781  11.235  0.00  0.00    -0.127 NA
ATOM     24  N   UNL     1      -5.233 -10.708  11.475  0.00  0.00    -0.064 NA
BRANCH  22  25
ATOM     25  C   UNL     1      -3.172 -10.176  11.649  0.00  0.00    +0.102 A 
ATOM     26  N   UNL     1      -2.678 -10.511  12.218  0.00  0.00    -0.242 NA
ATOM     27  C   UNL     1      -1.861 -10.409  12.166  0.00  0.00    +0.099 A 
ATOM     28  C   UNL     1      -1.538  -9.973  11.544  0.00  0.00    +0.021 A 
ATOM     29  C   UNL     1      -2.033  -9.638  10.975  0.00  0.00    +0.003 A 
ATOM     30  C   UNL     1      -2.850  -9.740  11.027  0.00  0.00    +0.021 A 
ENDBRANCH  22  25
ENDBRANCH  16  20
BRANCH  12  11
ATOM      1  O   UNL     1      -7.045  -9.753  15.804  0.00  0.00    -0.249 OA
ATOM      2  C   UNL     1      -7.758  -9.659  15.398  0.00  0.00    +0.340 C 
ATOM      3  N   UNL     1      -8.435  -9.419  15.802  0.00  0.00    -0.182 NA
ATOM     11  N   UNL     1      -7.791  -9.806  14.586  0.00  0.00    -0.184 NA
BRANCH   3   4
ATOM      4  C   UNL     1      -8.402  -9.272  16.613  0.00  0.00    +0.143 C 
BRANCH   4   5
ATOM      5  C   UNL     1      -9.066  -8.986  17.008  0.00  0.00    -0.001 A 
ATOM      6  C   UNL     1      -9.339  -8.223  16.856  0.00  0.00    -0.003 A 
ATOM      7  C   UNL     1     -10.005  -7.936  17.251  0.00  0.00    -0.000 A 
ATOM      8  C   UNL     1     -10.397  -8.412  17.799  0.00  0.00    -0.000 A 
ATOM      9  C   UNL     1     -10.123  -9.176  17.951  0.00  0.00    -0.000 A 
ATOM     10  C   UNL     1      -9.458  -9.463  17.556  0.00  0.00    -0.003 A 
ENDBRANCH   4   5
ENDBRANCH   3   4
ENDBRANCH  12  11
TORSDOF 5
ENDMDL
