MODEL 1
REMARK VINA RESULT:      -8.4      0.000      0.000
REMARK  Name = 
REMARK  6 active torsions:
REMARK  status: ('A' for Active; 'I' for Inactive)
REMARK    1  A    between atoms: C_5  and  N_8
REMARK    2  A    between atoms: N_8  and  C_9
REMARK    3  A    between atoms: C_9  and  C_10
REMARK    4  A    between atoms: C_10  and  C_11
REMARK    5  A    between atoms: C_14  and  C_15
REMARK    6  A    between atoms: C_15  and  C_16
REMARK                            x       y       z     vdW  Elec       q    Type
REMARK                         _______ _______ _______ _____ _____    ______ ____
ROOT
ATOM      9  C   UNL     1      -3.864   2.254  24.718  0.00  0.00    +0.119 C 
ATOM     19  C   UNL     1      -4.252   2.905  25.045  0.00  0.00    +0.161 C 
ATOM     20  O   UNL     1      -4.857   2.825  24.490  0.00  0.00    -0.351 OA
ATOM     21  C   UNL     1      -4.470   2.174  24.163  0.00  0.00    +0.161 C 
ENDROOT
BRANCH   9   8
ATOM      8  N   UNL     1      -3.260   2.335  25.273  0.00  0.00    -0.217 NA
BRANCH   8   5
ATOM      1  C   UNL     1      -1.164   4.876  25.075  0.00  0.00    +0.090 C 
ATOM      2  N   UNL     1      -1.688   4.241  25.125  0.00  0.00    -0.271 NA
ATOM      3  C   UNL     1      -2.311   4.260  25.666  0.00  0.00    +0.074 C 
ATOM      4  C   UNL     1      -2.834   3.625  25.715  0.00  0.00    +0.035 C 
ATOM      5  C   UNL     1      -2.736   2.970  25.224  0.00  0.00    +0.076 C 
ATOM      6  C   UNL     1      -2.113   2.951  24.682  0.00  0.00    +0.035 C 
ATOM      7  C   UNL     1      -1.589   3.586  24.633  0.00  0.00    +0.074 C 
ENDBRANCH   8   5
ENDBRANCH   9   8
BRANCH   9  10
ATOM     10  C   UNL     1      -3.477   1.604  24.390  0.00  0.00    +0.070 C 
BRANCH  10  11
ATOM     11  C   UNL     1      -3.761   0.842  24.529  0.00  0.00    +0.102 A 
ATOM     12  N   UNL     1      -4.152   0.586  25.210  0.00  0.00    -0.082 NA
ATOM     13  O   UNL     1      -4.336  -0.212  25.113  0.00  0.00    -0.358 OA
ATOM     14  C   UNL     1      -4.060  -0.450  24.374  0.00  0.00    +0.157 A 
ATOM     18  C   UNL     1      -3.704   0.201  24.012  0.00  0.00    +0.054 A 
BRANCH  14  15
ATOM     15  C   UNL     1      -4.127  -1.207  24.051  0.00  0.00    +0.103 C 
BRANCH  15  16
ATOM     16  C   UNL     1      -3.803  -1.854  24.447  0.00  0.00    +0.190 C 
ATOM     17  O   UNL     1      -3.895  -2.614  24.139  0.00  0.00    -0.220 OA
ENDBRANCH  15  16
ENDBRANCH  14  15
ENDBRANCH  10  11
ENDBRANCH   9  10
TORSDOF 6
ENDMDL
MODEL 2
REMARK VINA RESULT:      -8.3      1.433      4.385
REMARK  Name = 
REMARK  6 active torsions:
REMARK  status: ('A' for Active; 'I' for Inactive)
REMARK    1  A    between atoms: C_5  and  N_8
REMARK    2  A    between atoms: N_8  and  C_9
REMARK    3  A    between atoms: C_9  and  C_10
REMARK    4  A    between atoms: C_10  and  C_11
REMARK    5  A    between atoms: C_14  and  C_15
REMARK    6  A    between atoms: C_15  and  C_16
REMARK                            x       y       z     vdW  Elec       q    Type
REMARK                         _______ _______ _______ _____ _____    ______ ____
ROOT
ATOM      9  C   UNL     1      -4.392   1.690  24.848  0.00  0.00    +0.119 C 
ATOM     19  C   UNL     1      -5.000   1.263  25.206  0.00  0.00    +0.161 C 
ATOM     20  O   UNL     1      -5.547   1.821  24.944  0.00  0.00    -0.351 OA
ATOM     21  C   UNL     1      -4.940   2.248  24.586  0.00  0.00    +0.161 C 
ENDROOT
BRANCH   9   8
ATOM      8  N   UNL     1      -3.845   1.131  25.111  0.00  0.00    -0.217 NA
BRANCH   8   5
ATOM      1  C   UNL     1      -3.997  -1.976  24.008  0.00  0.00    +0.090 C 
ATOM      2  N   UNL     1      -3.959  -1.199  24.284  0.00  0.00    -0.271 NA
ATOM      3  C   UNL     1      -4.025  -1.044  25.092  0.00  0.00    +0.074 C 
ATOM      4  C   UNL     1      -3.987  -0.267  25.367  0.00  0.00    +0.035 C 
ATOM      5  C   UNL     1      -3.883   0.355  24.836  0.00  0.00    +0.076 C 
ATOM      6  C   UNL     1      -3.817   0.199  24.028  0.00  0.00    +0.035 C 
ATOM      7  C   UNL     1      -3.855  -0.577  23.752  0.00  0.00    +0.074 C 
ENDBRANCH   8   5
ENDBRANCH   9   8
BRANCH   9  10
ATOM     10  C   UNL     1      -3.784   2.117  24.490  0.00  0.00    +0.070 C 
BRANCH  10  11
ATOM     11  C   UNL     1      -3.446   2.760  24.880  0.00  0.00    +0.102 A 
ATOM     12  N   UNL     1      -3.839   3.282  25.386  0.00  0.00    -0.082 NA
ATOM     13  O   UNL     1      -3.291   3.839  25.652  0.00  0.00    -0.358 OA
ATOM     14  C   UNL     1      -2.562   3.663  25.311  0.00  0.00    +0.157 A 
ATOM     18  C   UNL     1      -2.656   2.996  24.835  0.00  0.00    +0.054 A 
BRANCH  14  15
ATOM     15  C   UNL     1      -1.859   4.080  25.427  0.00  0.00    +0.103 C 
BRANCH  15  16
ATOM     16  C   UNL     1      -1.785   4.851  25.143  0.00  0.00    +0.190 C 
ATOM     17  O   UNL     1      -1.045   5.215  25.123  0.00  0.00    -0.220 OA
ENDBRANCH  15  16
ENDBRANCH  14  15
ENDBRANCH  10  11
ENDBRANCH   9  10
TORSDOF 6
ENDMDL
MODEL 3
REMARK VINA RESULT:      -8.3      2.031      4.554
REMARK  Name = 
REMARK  6 active torsions:
REMARK  status: ('A' for Active; 'I' for Inactive)
REMARK    1  A    between atoms: C_5  and  N_8
REMARK    2  A    between atoms: N_8  and  C_9
REMARK    3  A    between atoms: C_9  and  C_10
REMARK    4  A    between atoms: C_10  and  C_11
REMARK    5  A    between atoms: C_14  and  C_15
REMARK    6  A    between atoms: C_15  and  C_16
REMARK                            x       y       z     vdW  Elec       q    Type
REMARK                         _______ _______ _______ _____ _____    ______ ____
ROOT
ATOM      9  C   UNL     1      -3.297   0.581  24.590  0.00  0.00    +0.119 C 
ATOM     19  C   UNL     1      -2.620   0.269  24.945  0.00  0.00    +0.161 C 
ATOM     20  O   UNL     1      -2.151   0.789  24.510  0.00  0.00    -0.351 OA
ATOM     21  C   UNL     1      -2.827   1.101  24.154  0.00  0.00    +0.161 C 
ENDROOT
BRANCH   9   8
ATOM      8  N   UNL     1      -3.766   0.061  25.025  0.00  0.00    -0.217 NA
BRANCH   8   5
ATOM      1  C   UNL     1      -3.627  -3.182  24.431  0.00  0.00    +0.090 C 
ATOM      2  N   UNL     1      -3.661  -2.372  24.580  0.00  0.00    -0.271 NA
ATOM      3  C   UNL     1      -3.374  -2.069  25.292  0.00  0.00    +0.074 C 
ATOM      4  C   UNL     1      -3.409  -1.259  25.440  0.00  0.00    +0.035 C 
ATOM      5  C   UNL     1      -3.731  -0.750  24.877  0.00  0.00    +0.076 C 
ATOM      6  C   UNL     1      -4.019  -1.052  24.165  0.00  0.00    +0.035 C 
ATOM      7  C   UNL     1      -3.984  -1.863  24.016  0.00  0.00    +0.074 C 
ENDBRANCH   8   5
ENDBRANCH   9   8
BRANCH   9  10
ATOM     10  C   UNL     1      -3.972   0.892  24.234  0.00  0.00    +0.070 C 
BRANCH  10  11
ATOM     11  C   UNL     1      -4.233   1.648  24.436  0.00  0.00    +0.102 A 
ATOM     12  N   UNL     1      -3.936   2.359  24.138  0.00  0.00    -0.082 NA
ATOM     13  O   UNL     1      -4.357   2.977  24.489  0.00  0.00    -0.358 OA
ATOM     14  C   UNL     1      -4.913   2.649  25.001  0.00  0.00    +0.157 A 
ATOM     18  C   UNL     1      -4.837   1.828  24.969  0.00  0.00    +0.054 A 
BRANCH  14  15
ATOM     15  C   UNL     1      -5.451   3.068  25.466  0.00  0.00    +0.103 C 
BRANCH  15  16
ATOM     16  C   UNL     1      -5.431   3.893  25.479  0.00  0.00    +0.190 C 
ATOM     17  O   UNL     1      -6.047   4.315  25.828  0.00  0.00    -0.220 OA
ENDBRANCH  15  16
ENDBRANCH  14  15
ENDBRANCH  10  11
ENDBRANCH   9  10
TORSDOF 6
ENDMDL
MODEL 4
REMARK VINA RESULT:      -8.0      1.550      2.123
REMARK  Name = 
REMARK  6 active torsions:
REMARK  status: ('A' for Active; 'I' for Inactive)
REMARK    1  A    between atoms: C_5  and  N_8
REMARK    2  A    between atoms: N_8  and  C_9
REMARK    3  A    between atoms: C_9  and  C_10
REMARK    4  A    between atoms: C_10  and  C_11
REMARK    5  A    between atoms: C_14  and  C_15
REMARK    6  A    between atoms: C_15  and  C_16
REMARK                            x       y       z     vdW  Elec       q    Type
REMARK                         _______ _______ _______ _____ _____    ______ ____
ROOT
ATOM      9  C   UNL     1      -3.515   1.398  24.147  0.00  0.00    +0.119 C 
ATOM     19  C   UNL     1      -3.029   2.057  24.041  0.00  0.00    +0.161 C 
ATOM     20  O   UNL     1      -2.896   1.832  23.259  0.00  0.00    -0.351 OA
ATOM     21  C   UNL     1      -3.381   1.174  23.365  0.00  0.00    +0.161 C 
ENDROOT
BRANCH   9   8
ATOM      8  N   UNL     1      -3.648   1.623  24.930  0.00  0.00    -0.217 NA
BRANCH   8   5
ATOM      1  C   UNL     1      -5.652   4.158  25.602  0.00  0.00    +0.090 C 
ATOM      2  N   UNL     1      -5.151   3.524  25.434  0.00  0.00    -0.271 NA
ATOM      3  C   UNL     1      -4.333   3.632  25.437  0.00  0.00    +0.074 C 
ATOM      4  C   UNL     1      -3.832   2.998  25.269  0.00  0.00    +0.035 C 
ATOM      5  C   UNL     1      -4.149   2.257  25.098  0.00  0.00    +0.076 C 
ATOM      6  C   UNL     1      -4.967   2.149  25.094  0.00  0.00    +0.035 C 
ATOM      7  C   UNL     1      -5.468   2.782  25.262  0.00  0.00    +0.074 C 
ENDBRANCH   8   5
ENDBRANCH   9   8
BRANCH   9  10
ATOM     10  C   UNL     1      -4.001   0.741  24.253  0.00  0.00    +0.070 C 
BRANCH  10  11
ATOM     11  C   UNL     1      -3.668  -0.010  24.329  0.00  0.00    +0.102 A 
ATOM     12  N   UNL     1      -2.899  -0.177  24.580  0.00  0.00    -0.082 NA
ATOM     13  O   UNL     1      -2.801  -0.996  24.573  0.00  0.00    -0.358 OA
ATOM     14  C   UNL     1      -3.507  -1.336  24.319  0.00  0.00    +0.157 A 
ATOM     18  C   UNL     1      -4.044  -0.728  24.168  0.00  0.00    +0.054 A 
BRANCH  14  15
ATOM     15  C   UNL     1      -3.653  -2.144  24.230  0.00  0.00    +0.103 C 
BRANCH  15  16
ATOM     16  C   UNL     1      -3.381  -2.677  24.798  0.00  0.00    +0.190 C 
ATOM     17  O   UNL     1      -3.577  -3.476  24.742  0.00  0.00    -0.220 OA
ENDBRANCH  15  16
ENDBRANCH  14  15
ENDBRANCH  10  11
ENDBRANCH   9  10
TORSDOF 6
ENDMDL
MODEL 5
REMARK VINA RESULT:      -8.0      1.510      4.562
REMARK  Name = 
REMARK  6 active torsions:
REMARK  status: ('A' for Active; 'I' for Inactive)
REMARK    1  A    between atoms: C_5  and  N_8
REMARK    2  A    between atoms: N_8  and  C_9
REMARK    3  A    between atoms: C_9  and  C_10
REMARK    4  A    between atoms: C_10  and  C_11
REMARK    5  A    between atoms: C_14  and  C_15
REMARK    6  A    between atoms: C_15  and  C_16
REMARK                            x       y       z     vdW  Elec       q    Type
REMARK                         _______ _______ _______ _____ _____    ______ ____
ROOT
ATOM      9  C   UNL     1      -3.063   1.216  24.187  0.00  0.00    +0.119 C 
ATOM     19  C   UNL     1      -3.470   0.911  23.538  0.00  0.00    +0.161 C 
ATOM     20  O   UNL     1      -2.963   1.316  23.029  0.00  0.00    -0.351 OA
ATOM     21  C   UNL     1      -2.556   1.622  23.677  0.00  0.00    +0.161 C 
ENDROOT
BRANCH   9   8
ATOM      8  N   UNL     1      -3.569   0.811  24.696  0.00  0.00    -0.217 NA
BRANCH   8   5
ATOM      1  C   UNL     1      -3.458  -2.483  24.860  0.00  0.00    +0.090 C 
ATOM      2  N   UNL     1      -3.487  -1.659  24.819  0.00  0.00    -0.271 NA
ATOM      3  C   UNL     1      -4.088  -1.287  24.393  0.00  0.00    +0.074 C 
ATOM      4  C   UNL     1      -4.115  -0.464  24.353  0.00  0.00    +0.035 C 
ATOM      5  C   UNL     1      -3.542  -0.012  24.737  0.00  0.00    +0.076 C 
ATOM      6  C   UNL     1      -2.941  -0.384  25.162  0.00  0.00    +0.035 C 
ATOM      7  C   UNL     1      -2.913  -1.208  25.203  0.00  0.00    +0.074 C 
ENDBRANCH   8   5
ENDBRANCH   9   8
BRANCH   9  10
ATOM     10  C   UNL     1      -2.655   1.522  24.836  0.00  0.00    +0.070 C 
BRANCH  10  11
ATOM     11  C   UNL     1      -2.734   2.319  25.034  0.00  0.00    +0.102 A 
ATOM     12  N   UNL     1      -3.441   2.744  25.064  0.00  0.00    -0.082 NA
ATOM     13  O   UNL     1      -3.264   3.519  25.286  0.00  0.00    -0.358 OA
ATOM     14  C   UNL     1      -2.448   3.572  25.394  0.00  0.00    +0.157 A 
ATOM     18  C   UNL     1      -2.120   2.832  25.238  0.00  0.00    +0.054 A 
BRANCH  14  15
ATOM     15  C   UNL     1      -2.032   4.249  25.618  0.00  0.00    +0.103 C 
BRANCH  15  16
ATOM     16  C   UNL     1      -1.697   4.737  25.043  0.00  0.00    +0.190 C 
ATOM     17  O   UNL     1      -1.345   5.450  25.261  0.00  0.00    -0.220 OA
ENDBRANCH  15  16
ENDBRANCH  14  15
ENDBRANCH  10  11
ENDBRANCH   9  10
TORSDOF 6
ENDMDL
