MODEL 1
REMARK VINA RESULT:      -8.9      0.000      0.000
REMARK  Name = 
REMARK  9 active torsions:
REMARK  status: ('A' for Active; 'I' for Inactive)
REMARK    1  A    between atoms: O_2  and  C_3
REMARK    2  A    between atoms: C_8  and  C_9
REMARK    3  A    between atoms: C_9  and  C_10
REMARK    4  A    between atoms: C_12  and  C_13
REMARK    5  A    between atoms: C_16  and  C_17
REMARK    6  A    between atoms: C_17  and  N_18
REMARK    7  A    between atoms: C_19  and  C_21
REMARK    8  A    between atoms: C_21  and  C_22
REMARK    9  A    between atoms: C_22  and  C_23
REMARK                            x       y       z     vdW  Elec       q    Type
REMARK                         _______ _______ _______ _____ _____    ______ ____
ROOT
ATOM     10  C   UNL     1      -2.414   2.251  23.645  0.00  0.00    +0.026 C 
ATOM     11  C   UNL     1      -2.074   2.147  24.389  0.00  0.00    +0.005 C 
ATOM     12  C   UNL     1      -1.425   1.644  24.480  0.00  0.00    +0.006 C 
ATOM     16  C   UNL     1      -1.118   1.246  23.827  0.00  0.00    +0.043 C 
ATOM     26  C   UNL     1      -1.458   1.350  23.082  0.00  0.00    -0.033 C 
ATOM     27  C   UNL     1      -2.105   1.852  22.991  0.00  0.00    -0.048 C 
ATOM     28  C   UNL     1      -2.446   1.956  22.247  0.00  0.00    +0.026 C 
ENDROOT
BRANCH  12  13
ATOM     13  C   UNL     1      -1.085   1.541  25.225  0.00  0.00    +0.000 C 
ATOM     14  C   UNL     1      -1.286   0.884  25.682  0.00  0.00    +0.000 C 
ATOM     15  C   UNL     1      -0.544   2.094  25.511  0.00  0.00    +0.000 C 
ENDBRANCH  12  13
BRANCH  10   9
ATOM      9  C   UNL     1      -3.062   2.752  23.554  0.00  0.00    +0.070 C 
BRANCH   9   8
ATOM      3  C   UNL     1      -5.871   2.214  25.653  0.00  0.00    +0.140 A 
ATOM      4  C   UNL     1      -5.438   1.889  25.030  0.00  0.00    +0.058 A 
ATOM      5  C   UNL     1      -4.778   2.286  24.735  0.00  0.00    +0.103 A 
ATOM      6  C   UNL     1      -4.551   3.008  25.062  0.00  0.00    +0.100 A 
ATOM      7  N   UNL     1      -3.880   3.271  24.660  0.00  0.00    -0.229 NA
ATOM      8  C   UNL     1      -3.693   2.711  24.084  0.00  0.00    +0.139 A 
ATOM     29  N   UNL     1      -4.248   2.102  24.130  0.00  0.00    -0.229 NA
ATOM     30  C   UNL     1      -4.983   3.334  25.685  0.00  0.00    +0.024 A 
ATOM     31  C   UNL     1      -5.644   2.936  25.980  0.00  0.00    +0.039 A 
BRANCH   3   2
ATOM      1  C   UNL     1      -6.534   1.543  26.726  0.00  0.00    +0.252 C 
ATOM      2  O   UNL     1      -6.531   1.817  25.948  0.00  0.00    -0.471 OA
ENDBRANCH   3   2
ENDBRANCH   9   8
ENDBRANCH  10   9
BRANCH  16  17
ATOM     17  C   UNL     1      -0.469   0.744  23.918  0.00  0.00    +0.119 C 
BRANCH  17  18
ATOM     18  N   UNL     1       0.118   0.719  23.338  0.00  0.00    -0.205 NA
ATOM     19  C   UNL     1       0.600   0.053  23.269  0.00  0.00    +0.242 C 
ATOM     20  O   UNL     1       0.496  -0.587  23.779  0.00  0.00    -0.273 OA
BRANCH  19  21
ATOM     21  C   UNL     1       1.187   0.028  22.689  0.00  0.00    +0.099 C 
BRANCH  21  22
ATOM     22  C   UNL     1       1.977  -0.060  22.907  0.00  0.00    +0.124 C 
BRANCH  22  23
ATOM     23  C   UNL     1       2.576   0.105  22.363  0.00  0.00    +0.365 C 
ATOM     24  O   UNL     1       3.273   0.467  22.615  0.00  0.00    -0.246 OA
ATOM     25  O   UNL     1       2.477  -0.093  21.568  0.00  0.00    -0.246 OA
ENDBRANCH  22  23
ENDBRANCH  21  22
ENDBRANCH  19  21
ENDBRANCH  17  18
ENDBRANCH  16  17
TORSDOF 9
ENDMDL
MODEL 2
REMARK VINA RESULT:      -8.6      1.244      1.579
REMARK  Name = 
REMARK  9 active torsions:
REMARK  status: ('A' for Active; 'I' for Inactive)
REMARK    1  A    between atoms: O_2  and  C_3
REMARK    2  A    between atoms: C_8  and  C_9
REMARK    3  A    between atoms: C_9  and  C_10
REMARK    4  A    between atoms: C_12  and  C_13
REMARK    5  A    between atoms: C_16  and  C_17
REMARK    6  A    between atoms: C_17  and  N_18
REMARK    7  A    between atoms: C_19  and  C_21
REMARK    8  A    between atoms: C_21  and  C_22
REMARK    9  A    between atoms: C_22  and  C_23
REMARK                            x       y       z     vdW  Elec       q    Type
REMARK                         _______ _______ _______ _____ _____    ______ ____
ROOT
ATOM     10  C   UNL     1      -1.138   2.620  25.063  0.00  0.00    +0.026 C 
ATOM     11  C   UNL     1      -1.420   1.861  25.222  0.00  0.00    +0.005 C 
ATOM     12  C   UNL     1      -1.045   1.204  24.891  0.00  0.00    +0.006 C 
ATOM     16  C   UNL     1      -0.390   1.308  24.401  0.00  0.00    +0.043 C 
ATOM     26  C   UNL     1      -0.108   2.067  24.243  0.00  0.00    -0.033 C 
ATOM     27  C   UNL     1      -0.482   2.723  24.574  0.00  0.00    -0.048 C 
ATOM     28  C   UNL     1      -0.201   3.482  24.415  0.00  0.00    +0.026 C 
ENDROOT
BRANCH  12  13
ATOM     13  C   UNL     1      -1.327   0.445  25.049  0.00  0.00    +0.000 C 
ATOM     14  C   UNL     1      -1.054   0.034  25.709  0.00  0.00    +0.000 C 
ATOM     15  C   UNL     1      -1.882   0.098  24.547  0.00  0.00    +0.000 C 
ENDBRANCH  12  13
BRANCH  10   9
ATOM      9  C   UNL     1      -1.513   3.276  25.394  0.00  0.00    +0.070 C 
BRANCH   9   8
ATOM      3  C   UNL     1      -5.051   3.483  25.554  0.00  0.00    +0.140 A 
ATOM      4  C   UNL     1      -4.379   3.289  25.992  0.00  0.00    +0.058 A 
ATOM      5  C   UNL     1      -3.632   3.348  25.648  0.00  0.00    +0.103 A 
ATOM      6  C   UNL     1      -3.556   3.600  24.866  0.00  0.00    +0.100 A 
ATOM      7  N   UNL     1      -2.753   3.604  24.676  0.00  0.00    -0.229 NA
ATOM      8  C   UNL     1      -2.332   3.354  25.340  0.00  0.00    +0.139 A 
ATOM     29  N   UNL     1      -2.875   3.196  25.941  0.00  0.00    -0.229 NA
ATOM     30  C   UNL     1      -4.227   3.794  24.428  0.00  0.00    +0.024 A 
ATOM     31  C   UNL     1      -4.976   3.735  24.772  0.00  0.00    +0.039 A 
BRANCH   3   2
ATOM      1  C   UNL     1      -6.202   2.705  25.888  0.00  0.00    +0.252 C 
ATOM      2  O   UNL     1      -5.798   3.424  25.898  0.00  0.00    -0.471 OA
ENDBRANCH   3   2
ENDBRANCH   9   8
ENDBRANCH  10   9
BRANCH  16  17
ATOM     17  C   UNL     1      -0.015   0.651  24.070  0.00  0.00    +0.119 C 
BRANCH  17  18
ATOM     18  N   UNL     1       0.576   0.756  23.504  0.00  0.00    -0.205 NA
ATOM     19  C   UNL     1       0.984   0.102  23.210  0.00  0.00    +0.242 C 
ATOM     20  O   UNL     1       0.803  -0.655  23.482  0.00  0.00    -0.273 OA
BRANCH  19  21
ATOM     21  C   UNL     1       1.576   0.207  22.643  0.00  0.00    +0.099 C 
BRANCH  21  22
ATOM     22  C   UNL     1       2.349  -0.027  22.807  0.00  0.00    +0.124 C 
BRANCH  22  23
ATOM     23  C   UNL     1       2.972   0.252  22.342  0.00  0.00    +0.365 C 
ATOM     24  O   UNL     1       3.573   0.701  22.685  0.00  0.00    -0.246 OA
ATOM     25  O   UNL     1       2.993   0.082  21.535  0.00  0.00    -0.246 OA
ENDBRANCH  22  23
ENDBRANCH  21  22
ENDBRANCH  19  21
ENDBRANCH  17  18
ENDBRANCH  16  17
TORSDOF 9
ENDMDL
MODEL 3
REMARK VINA RESULT:      -8.0      2.987      4.953
REMARK  Name = 
REMARK  9 active torsions:
REMARK  status: ('A' for Active; 'I' for Inactive)
REMARK    1  A    between atoms: O_2  and  C_3
REMARK    2  A    between atoms: C_8  and  C_9
REMARK    3  A    between atoms: C_9  and  C_10
REMARK    4  A    between atoms: C_12  and  C_13
REMARK    5  A    between atoms: C_16  and  C_17
REMARK    6  A    between atoms: C_17  and  N_18
REMARK    7  A    between atoms: C_19  and  C_21
REMARK    8  A    between atoms: C_21  and  C_22
REMARK    9  A    between atoms: C_22  and  C_23
REMARK                            x       y       z     vdW  Elec       q    Type
REMARK                         _______ _______ _______ _____ _____    ______ ____
ROOT
ATOM     10  C   UNL     1      -3.923   1.131  23.788  0.00  0.00    +0.026 C 
ATOM     11  C   UNL     1      -4.500   1.257  24.364  0.00  0.00    +0.005 C 
ATOM     12  C   UNL     1      -4.493   1.952  24.810  0.00  0.00    +0.006 C 
ATOM     16  C   UNL     1      -3.908   2.519  24.680  0.00  0.00    +0.043 C 
ATOM     26  C   UNL     1      -3.331   2.392  24.103  0.00  0.00    -0.033 C 
ATOM     27  C   UNL     1      -3.339   1.699  23.658  0.00  0.00    -0.048 C 
ATOM     28  C   UNL     1      -2.762   1.572  23.082  0.00  0.00    +0.026 C 
ENDROOT
BRANCH  12  13
ATOM     13  C   UNL     1      -5.069   2.078  25.386  0.00  0.00    +0.000 C 
ATOM     14  C   UNL     1      -5.727   2.545  25.215  0.00  0.00    +0.000 C 
ATOM     15  C   UNL     1      -4.988   1.736  26.133  0.00  0.00    +0.000 C 
ENDBRANCH  12  13
BRANCH  10   9
ATOM      9  C   UNL     1      -3.931   0.437  23.342  0.00  0.00    +0.070 C 
BRANCH   9   8
ATOM      3  C   UNL     1      -2.586  -2.470  24.870  0.00  0.00    +0.140 A 
ATOM      4  C   UNL     1      -2.399  -1.706  24.621  0.00  0.00    +0.058 A 
ATOM      5  C   UNL     1      -2.976  -1.232  24.271  0.00  0.00    +0.103 A 
ATOM      6  C   UNL     1      -3.741  -1.522  24.169  0.00  0.00    +0.100 A 
ATOM      7  N   UNL     1      -4.192  -0.932  23.809  0.00  0.00    -0.229 NA
ATOM      8  C   UNL     1      -3.705  -0.278  23.688  0.00  0.00    +0.139 A 
ATOM     29  N   UNL     1      -2.953  -0.463  23.974  0.00  0.00    -0.229 NA
ATOM     30  C   UNL     1      -3.930  -2.286  24.417  0.00  0.00    +0.024 A 
ATOM     31  C   UNL     1      -3.352  -2.760  24.768  0.00  0.00    +0.039 A 
BRANCH   3   2
ATOM      1  C   UNL     1      -1.212  -2.816  25.051  0.00  0.00    +0.252 C 
ATOM      2  O   UNL     1      -2.009  -2.943  25.220  0.00  0.00    -0.471 OA
ENDBRANCH   3   2
ENDBRANCH   9   8
ENDBRANCH  10   9
BRANCH  16  17
ATOM     17  C   UNL     1      -3.901   3.213  25.126  0.00  0.00    +0.119 C 
BRANCH  17  18
ATOM     18  N   UNL     1      -3.374   3.819  24.936  0.00  0.00    -0.205 NA
ATOM     19  C   UNL     1      -3.042   4.278  25.536  0.00  0.00    +0.242 C 
ATOM     20  O   UNL     1      -3.237   4.132  26.324  0.00  0.00    -0.273 OA
BRANCH  19  21
ATOM     21  C   UNL     1      -2.514   4.884  25.347  0.00  0.00    +0.099 C 
BRANCH  21  22
ATOM     22  C   UNL     1      -1.706   4.780  25.471  0.00  0.00    +0.124 C 
BRANCH  22  23
ATOM     23  C   UNL     1      -1.162   5.253  25.067  0.00  0.00    +0.365 C 
ATOM     24  O   UNL     1      -1.317   6.055  24.956  0.00  0.00    -0.246 OA
ATOM     25  O   UNL     1      -0.465   4.922  24.775  0.00  0.00    -0.246 OA
ENDBRANCH  22  23
ENDBRANCH  21  22
ENDBRANCH  19  21
ENDBRANCH  17  18
ENDBRANCH  16  17
TORSDOF 9
ENDMDL
MODEL 4
REMARK VINA RESULT:      -7.6      2.924      4.420
REMARK  Name = 
REMARK  9 active torsions:
REMARK  status: ('A' for Active; 'I' for Inactive)
REMARK    1  A    between atoms: O_2  and  C_3
REMARK    2  A    between atoms: C_8  and  C_9
REMARK    3  A    between atoms: C_9  and  C_10
REMARK    4  A    between atoms: C_12  and  C_13
REMARK    5  A    between atoms: C_16  and  C_17
REMARK    6  A    between atoms: C_17  and  N_18
REMARK    7  A    between atoms: C_19  and  C_21
REMARK    8  A    between atoms: C_21  and  C_22
REMARK    9  A    between atoms: C_22  and  C_23
REMARK                            x       y       z     vdW  Elec       q    Type
REMARK                         _______ _______ _______ _____ _____    ______ ____
ROOT
ATOM     10  C   UNL     1      -4.402   2.100  24.690  0.00  0.00    +0.026 C 
ATOM     11  C   UNL     1      -3.771   1.946  24.181  0.00  0.00    +0.005 C 
ATOM     12  C   UNL     1      -3.657   1.184  23.885  0.00  0.00    +0.006 C 
ATOM     16  C   UNL     1      -4.173   0.577  24.098  0.00  0.00    +0.043 C 
ATOM     26  C   UNL     1      -4.804   0.731  24.606  0.00  0.00    -0.033 C 
ATOM     27  C   UNL     1      -4.918   1.492  24.902  0.00  0.00    -0.048 C 
ATOM     28  C   UNL     1      -5.549   1.646  25.411  0.00  0.00    +0.026 C 
ENDROOT
BRANCH  12  13
ATOM     13  C   UNL     1      -3.026   1.030  23.376  0.00  0.00    +0.000 C 
ATOM     14  C   UNL     1      -3.121   1.121  22.562  0.00  0.00    +0.000 C 
ATOM     15  C   UNL     1      -2.300   0.785  23.682  0.00  0.00    +0.000 C 
ENDBRANCH  12  13
BRANCH  10   9
ATOM      9  C   UNL     1      -4.517   2.861  24.986  0.00  0.00    +0.070 C 
BRANCH   9   8
ATOM      3  C   UNL     1      -1.781   5.106  25.243  0.00  0.00    +0.140 A 
ATOM      4  C   UNL     1      -2.383   4.851  24.740  0.00  0.00    +0.058 A 
ATOM      5  C   UNL     1      -2.906   4.263  24.986  0.00  0.00    +0.103 A 
ATOM      6  C   UNL     1      -2.828   3.930  25.737  0.00  0.00    +0.100 A 
ATOM      7  N   UNL     1      -3.422   3.364  25.828  0.00  0.00    -0.229 NA
ATOM      8  C   UNL     1      -3.867   3.347  25.134  0.00  0.00    +0.139 A 
ATOM     29  N   UNL     1      -3.549   3.903  24.613  0.00  0.00    -0.229 NA
ATOM     30  C   UNL     1      -2.227   4.185  26.241  0.00  0.00    +0.024 A 
ATOM     31  C   UNL     1      -1.703   4.773  25.994  0.00  0.00    +0.039 A 
BRANCH   3   2
ATOM      1  C   UNL     1      -0.543   5.487  24.642  0.00  0.00    +0.252 C 
ATOM      2  O   UNL     1      -1.258   5.694  24.997  0.00  0.00    -0.471 OA
ENDBRANCH   3   2
ENDBRANCH   9   8
ENDBRANCH  10   9
BRANCH  16  17
ATOM     17  C   UNL     1      -4.059  -0.185  23.801  0.00  0.00    +0.119 C 
BRANCH  17  18
ATOM     18  N   UNL     1      -3.955  -0.818  24.320  0.00  0.00    -0.205 NA
ATOM     19  C   UNL     1      -4.093  -1.589  24.061  0.00  0.00    +0.242 C 
ATOM     20  O   UNL     1      -4.333  -1.727  23.284  0.00  0.00    -0.273 OA
BRANCH  19  21
ATOM     21  C   UNL     1      -3.990  -2.222  24.581  0.00  0.00    +0.099 C 
BRANCH  21  22
ATOM     22  C   UNL     1      -3.416  -2.794  24.424  0.00  0.00    +0.124 C 
BRANCH  22  23
ATOM     23  C   UNL     1      -2.937  -3.075  25.036  0.00  0.00    +0.365 C 
ATOM     24  O   UNL     1      -3.280  -3.344  25.736  0.00  0.00    -0.246 OA
ATOM     25  O   UNL     1      -2.117  -3.088  24.945  0.00  0.00    -0.246 OA
ENDBRANCH  22  23
ENDBRANCH  21  22
ENDBRANCH  19  21
ENDBRANCH  17  18
ENDBRANCH  16  17
TORSDOF 9
ENDMDL
MODEL 5
REMARK VINA RESULT:      -7.5      1.181      6.365
REMARK  Name = 
REMARK  9 active torsions:
REMARK  status: ('A' for Active; 'I' for Inactive)
REMARK    1  A    between atoms: O_2  and  C_3
REMARK    2  A    between atoms: C_8  and  C_9
REMARK    3  A    between atoms: C_9  and  C_10
REMARK    4  A    between atoms: C_12  and  C_13
REMARK    5  A    between atoms: C_16  and  C_17
REMARK    6  A    between atoms: C_17  and  N_18
REMARK    7  A    between atoms: C_19  and  C_21
REMARK    8  A    between atoms: C_21  and  C_22
REMARK    9  A    between atoms: C_22  and  C_23
REMARK                            x       y       z     vdW  Elec       q    Type
REMARK                         _______ _______ _______ _____ _____    ______ ____
ROOT
ATOM     10  C   UNL     1      -0.908   0.452  24.506  0.00  0.00    +0.026 C 
ATOM     11  C   UNL     1      -0.625   1.215  24.641  0.00  0.00    +0.005 C 
ATOM     12  C   UNL     1      -1.154   1.844  24.718  0.00  0.00    +0.006 C 
ATOM     16  C   UNL     1      -1.966   1.709  24.660  0.00  0.00    +0.043 C 
ATOM     26  C   UNL     1      -2.249   0.946  24.526  0.00  0.00    -0.033 C 
ATOM     27  C   UNL     1      -1.720   0.318  24.449  0.00  0.00    -0.048 C 
ATOM     28  C   UNL     1      -2.004  -0.445  24.315  0.00  0.00    +0.026 C 
ENDROOT
BRANCH  12  13
ATOM     13  C   UNL     1      -0.871   2.607  24.852  0.00  0.00    +0.000 C 
ATOM     14  C   UNL     1      -0.719   3.109  24.216  0.00  0.00    +0.000 C 
ATOM     15  C   UNL     1      -0.739   2.868  25.624  0.00  0.00    +0.000 C 
ENDBRANCH  12  13
BRANCH  10   9
ATOM      9  C   UNL     1      -0.380  -0.176  24.429  0.00  0.00    +0.070 C 
BRANCH   9   8
ATOM      3  C   UNL     1       2.511   0.169  22.401  0.00  0.00    +0.140 A 
ATOM      4  C   UNL     1       2.222   0.278  23.166  0.00  0.00    +0.058 A 
ATOM      5  C   UNL     1       1.439   0.089  23.343  0.00  0.00    +0.103 A 
ATOM      6  C   UNL     1       0.944  -0.208  22.754  0.00  0.00    +0.100 A 
ATOM      7  N   UNL     1       0.202  -0.344  23.090  0.00  0.00    -0.229 NA
ATOM      8  C   UNL     1       0.239  -0.130  23.886  0.00  0.00    +0.139 A 
ATOM     29  N   UNL     1       1.004   0.138  24.042  0.00  0.00    -0.229 NA
ATOM     30  C   UNL     1       1.231  -0.317  21.989  0.00  0.00    +0.024 A 
ATOM     31  C   UNL     1       2.015  -0.129  21.812  0.00  0.00    +0.039 A 
BRANCH   3   2
ATOM      1  C   UNL     1       3.709   0.887  22.701  0.00  0.00    +0.252 C 
ATOM      2  O   UNL     1       3.294   0.357  22.224  0.00  0.00    -0.471 OA
ENDBRANCH   3   2
ENDBRANCH   9   8
ENDBRANCH  10   9
BRANCH  16  17
ATOM     17  C   UNL     1      -2.495   2.338  24.738  0.00  0.00    +0.119 C 
BRANCH  17  18
ATOM     18  N   UNL     1      -3.302   2.190  24.815  0.00  0.00    -0.205 NA
ATOM     19  C   UNL     1      -3.840   2.815  24.785  0.00  0.00    +0.242 C 
ATOM     20  O   UNL     1      -3.570   3.587  24.677  0.00  0.00    -0.273 OA
BRANCH  19  21
ATOM     21  C   UNL     1      -4.649   2.667  24.862  0.00  0.00    +0.099 C 
BRANCH  21  22
ATOM     22  C   UNL     1      -5.068   2.993  25.493  0.00  0.00    +0.124 C 
BRANCH  22  23
ATOM     23  C   UNL     1      -5.774   2.645  25.742  0.00  0.00    +0.365 C 
ATOM     24  O   UNL     1      -5.990   2.676  26.538  0.00  0.00    -0.246 OA
ATOM     25  O   UNL     1      -6.263   2.267  25.196  0.00  0.00    -0.246 OA
ENDBRANCH  22  23
ENDBRANCH  21  22
ENDBRANCH  19  21
ENDBRANCH  17  18
ENDBRANCH  16  17
TORSDOF 9
ENDMDL
MODEL 6
REMARK VINA RESULT:      -7.4      1.674      2.698
REMARK  Name = 
REMARK  9 active torsions:
REMARK  status: ('A' for Active; 'I' for Inactive)
REMARK    1  A    between atoms: O_2  and  C_3
REMARK    2  A    between atoms: C_8  and  C_9
REMARK    3  A    between atoms: C_9  and  C_10
REMARK    4  A    between atoms: C_12  and  C_13
REMARK    5  A    between atoms: C_16  and  C_17
REMARK    6  A    between atoms: C_17  and  N_18
REMARK    7  A    between atoms: C_19  and  C_21
REMARK    8  A    between atoms: C_21  and  C_22
REMARK    9  A    between atoms: C_22  and  C_23
REMARK                            x       y       z     vdW  Elec       q    Type
REMARK                         _______ _______ _______ _____ _____    ______ ____
ROOT
ATOM     10  C   UNL     1      -0.977  -0.413  24.773  0.00  0.00    +0.026 C 
ATOM     11  C   UNL     1      -0.920   0.380  24.554  0.00  0.00    +0.005 C 
ATOM     12  C   UNL     1      -0.325   0.624  24.036  0.00  0.00    +0.006 C 
ATOM     16  C   UNL     1       0.213   0.074  23.739  0.00  0.00    +0.043 C 
ATOM     26  C   UNL     1       0.156  -0.719  23.958  0.00  0.00    -0.033 C 
ATOM     27  C   UNL     1      -0.439  -0.962  24.475  0.00  0.00    -0.048 C 
ATOM     28  C   UNL     1      -0.496  -1.756  24.694  0.00  0.00    +0.026 C 
ENDROOT
BRANCH  12  13
ATOM     13  C   UNL     1      -0.268   1.417  23.817  0.00  0.00    +0.000 C 
ATOM     14  C   UNL     1      -0.654   1.686  23.140  0.00  0.00    +0.000 C 
ATOM     15  C   UNL     1       0.175   1.941  24.275  0.00  0.00    +0.000 C 
ENDBRANCH  12  13
BRANCH  10   9
ATOM      9  C   UNL     1      -1.572  -0.656  25.290  0.00  0.00    +0.070 C 
BRANCH   9   8
ATOM      3  C   UNL     1      -4.843   0.693  25.028  0.00  0.00    +0.140 A 
ATOM      4  C   UNL     1      -4.114   0.792  25.401  0.00  0.00    +0.058 A 
ATOM      5  C   UNL     1      -3.494   0.272  25.242  0.00  0.00    +0.103 A 
ATOM      6  C   UNL     1      -3.604  -0.349  24.710  0.00  0.00    +0.100 A 
ATOM      7  N   UNL     1      -2.896  -0.772  24.664  0.00  0.00    -0.229 NA
ATOM      8  C   UNL     1      -2.350  -0.413  25.166  0.00  0.00    +0.139 A 
ATOM     29  N   UNL     1      -2.720   0.233  25.524  0.00  0.00    -0.229 NA
ATOM     30  C   UNL     1      -4.332  -0.450  24.337  0.00  0.00    +0.024 A 
ATOM     31  C   UNL     1      -4.952   0.072  24.496  0.00  0.00    +0.039 A 
BRANCH   3   2
ATOM      1  C   UNL     1      -5.505   1.937  24.793  0.00  0.00    +0.252 C 
ATOM      2  O   UNL     1      -5.462   1.213  25.187  0.00  0.00    -0.471 OA
ENDBRANCH   3   2
ENDBRANCH   9   8
ENDBRANCH  10   9
BRANCH  16  17
ATOM     17  C   UNL     1       0.808   0.318  23.221  0.00  0.00    +0.119 C 
BRANCH  17  18
ATOM     18  N   UNL     1       1.596   0.145  23.390  0.00  0.00    -0.205 NA
ATOM     19  C   UNL     1       2.144   0.080  22.776  0.00  0.00    +0.242 C 
ATOM     20  O   UNL     1       1.902   0.187  21.994  0.00  0.00    -0.273 OA
BRANCH  19  21
ATOM     21  C   UNL     1       2.933  -0.094  22.944  0.00  0.00    +0.099 C 
BRANCH  21  22
ATOM     22  C   UNL     1       3.526   0.436  22.726  0.00  0.00    +0.124 C 
BRANCH  22  23
ATOM     23  C   UNL     1       4.279   0.373  23.061  0.00  0.00    +0.365 C 
ATOM     24  O   UNL     1       4.654  -0.360  23.094  0.00  0.00    -0.246 OA
ATOM     25  O   UNL     1       4.654   1.044  23.361  0.00  0.00    -0.246 OA
ENDBRANCH  22  23
ENDBRANCH  21  22
ENDBRANCH  19  21
ENDBRANCH  17  18
ENDBRANCH  16  17
TORSDOF 9
ENDMDL
