MODEL 1
REMARK VINA RESULT:     -11.1      0.000      0.000
REMARK  Name = 
REMARK  7 active torsions:
REMARK  status: ('A' for Active; 'I' for Inactive)
REMARK    1  A    between atoms: O_2  and  C_3
REMARK    2  A    between atoms: C_3  and  C_5
REMARK    3  A    between atoms: C_5  and  C_6
REMARK    4  A    between atoms: C_5  and  N_13
REMARK    5  A    between atoms: C_6  and  C_7
REMARK    6  A    between atoms: C_14  and  C_16
REMARK    7  A    between atoms: N_24  and  C_25
REMARK                            x       y       z     vdW  Elec       q    Type
REMARK                         _______ _______ _______ _____ _____    ______ ____
ROOT
ATOM     13  N   UNL     1      -2.556   2.045  24.453  0.00  0.00    -0.194 NA
ATOM     14  C   UNL     1      -2.780   1.408  24.924  0.00  0.00    +0.261 C 
ATOM     15  O   UNL     1      -3.305   1.522  25.551  0.00  0.00    -0.271 OA
ENDROOT
BRANCH  14  16
ATOM     16  C   UNL     1      -2.481   0.655  24.770  0.00  0.00    +0.172 C 
ATOM     17  C   UNL     1      -1.683   0.560  24.584  0.00  0.00    +0.118 C 
ATOM     18  N   UNL     1      -1.382  -0.194  24.430  0.00  0.00    -0.214 NA
ATOM     19  C   UNL     1      -1.880  -0.851  24.462  0.00  0.00    +0.110 C 
ATOM     20  C   UNL     1      -2.679  -0.754  24.647  0.00  0.00    +0.114 C 
ATOM     21  N   UNL     1      -2.979  -0.002  24.801  0.00  0.00    -0.253 N 
ATOM     22  C   UNL     1      -3.776   0.094  24.987  0.00  0.00    +0.324 C 
ATOM     23  O   UNL     1      -4.077   0.846  25.141  0.00  0.00    -0.251 OA
ATOM     24  N   UNL     1      -4.275  -0.564  25.018  0.00  0.00    -0.190 NA
BRANCH  24  25
ATOM     25  C   UNL     1      -3.975  -1.316  24.864  0.00  0.00    +0.097 C 
ATOM     26  C   UNL     1      -4.037  -1.638  24.108  0.00  0.00    +0.022 C 
ATOM     27  C   UNL     1      -3.737  -2.391  23.953  0.00  0.00    +0.002 C 
ATOM     28  C   UNL     1      -3.374  -2.822  24.556  0.00  0.00    +0.000 C 
ATOM     29  C   UNL     1      -3.311  -2.500  25.314  0.00  0.00    +0.002 C 
ATOM     30  C   UNL     1      -3.612  -1.747  25.467  0.00  0.00    +0.022 C 
ENDBRANCH  24  25
ENDBRANCH  14  16
BRANCH  13   5
ATOM      5  C   UNL     1      -2.856   2.799  24.607  0.00  0.00    +0.198 C 
BRANCH   5   3
ATOM      3  C   UNL     1      -3.441   3.118  24.120  0.00  0.00    +0.337 C 
ATOM      4  O   UNL     1      -4.092   3.499  24.454  0.00  0.00    -0.248 OA
BRANCH   3   2
ATOM      1  C   UNL     1      -3.983   3.329  22.816  0.00  0.00    +0.256 C 
ATOM      2  O   UNL     1      -3.375   3.055  23.301  0.00  0.00    -0.443 OA
ENDBRANCH   3   2
ENDBRANCH   5   3
BRANCH   5   6
ATOM      6  C   UNL     1      -2.571   3.233  25.248  0.00  0.00    +0.061 C 
BRANCH   6   7
ATOM      7  C   UNL     1      -1.963   3.780  25.137  0.00  0.00    -0.001 A 
ATOM      8  C   UNL     1      -2.082   4.574  25.328  0.00  0.00    -0.001 A 
ATOM      9  C   UNL     1      -1.475   5.120  25.217  0.00  0.00    +0.020 A 
ATOM     10  C   UNL     1      -0.747   4.873  24.915  0.00  0.00    +0.099 A 
ATOM     11  N   UNL     1      -0.628   4.080  24.725  0.00  0.00    -0.243 NA
ATOM     12  C   UNL     1      -1.235   3.533  24.835  0.00  0.00    +0.095 A 
ENDBRANCH   6   7
ENDBRANCH   5   6
ENDBRANCH  13   5
TORSDOF 7
ENDMDL
MODEL 2
REMARK VINA RESULT:     -10.9      1.394      5.216
REMARK  Name = 
REMARK  7 active torsions:
REMARK  status: ('A' for Active; 'I' for Inactive)
REMARK    1  A    between atoms: O_2  and  C_3
REMARK    2  A    between atoms: C_3  and  C_5
REMARK    3  A    between atoms: C_5  and  C_6
REMARK    4  A    between atoms: C_5  and  N_13
REMARK    5  A    between atoms: C_6  and  C_7
REMARK    6  A    between atoms: C_14  and  C_16
REMARK    7  A    between atoms: N_24  and  C_25
REMARK                            x       y       z     vdW  Elec       q    Type
REMARK                         _______ _______ _______ _____ _____    ______ ____
ROOT
ATOM     13  N   UNL     1      -2.166   0.174  24.487  0.00  0.00    -0.194 NA
ATOM     14  C   UNL     1      -2.212   0.836  24.976  0.00  0.00    +0.261 C 
ATOM     15  O   UNL     1      -2.126   0.752  25.793  0.00  0.00    -0.271 OA
ENDROOT
BRANCH  14  16
ATOM     16  C   UNL     1      -2.344   1.582  24.650  0.00  0.00    +0.172 C 
ATOM     17  C   UNL     1      -2.865   1.667  24.016  0.00  0.00    +0.118 C 
ATOM     18  N   UNL     1      -2.998   2.414  23.689  0.00  0.00    -0.214 NA
ATOM     19  C   UNL     1      -2.610   3.074  23.997  0.00  0.00    +0.110 C 
ATOM     20  C   UNL     1      -2.089   2.987  24.631  0.00  0.00    +0.114 C 
ATOM     21  N   UNL     1      -1.956   2.241  24.958  0.00  0.00    -0.253 N 
ATOM     22  C   UNL     1      -1.436   2.155  25.591  0.00  0.00    +0.324 C 
ATOM     23  O   UNL     1      -1.303   1.409  25.918  0.00  0.00    -0.251 OA
ATOM     24  N   UNL     1      -1.048   2.816  25.900  0.00  0.00    -0.190 NA
BRANCH  24  25
ATOM     25  C   UNL     1      -1.180   3.561  25.573  0.00  0.00    +0.097 C 
ATOM     26  C   UNL     1      -1.822   4.013  25.825  0.00  0.00    +0.022 C 
ATOM     27  C   UNL     1      -1.955   4.759  25.498  0.00  0.00    +0.002 C 
ATOM     28  C   UNL     1      -1.446   5.053  24.920  0.00  0.00    +0.000 C 
ATOM     29  C   UNL     1      -0.803   4.600  24.668  0.00  0.00    +0.002 C 
ATOM     30  C   UNL     1      -0.671   3.855  24.995  0.00  0.00    +0.022 C 
ENDBRANCH  24  25
ENDBRANCH  14  16
BRANCH  13   5
ATOM      5  C   UNL     1      -2.034  -0.573  24.813  0.00  0.00    +0.198 C 
BRANCH   5   3
ATOM      3  C   UNL     1      -1.290  -0.925  24.749  0.00  0.00    +0.337 C 
ATOM      4  O   UNL     1      -0.952  -1.294  25.405  0.00  0.00    -0.248 OA
BRANCH   3   2
ATOM      1  C   UNL     1      -0.087  -1.109  24.002  0.00  0.00    +0.256 C 
ATOM      2  O   UNL     1      -0.886  -0.908  24.031  0.00  0.00    -0.443 OA
ENDBRANCH   3   2
ENDBRANCH   5   3
BRANCH   5   6
ATOM      6  C   UNL     1      -2.645  -0.966  25.204  0.00  0.00    +0.061 C 
BRANCH   6   7
ATOM      7  C   UNL     1      -3.130  -1.489  24.788  0.00  0.00    -0.001 A 
ATOM      8  C   UNL     1      -3.727  -1.199  24.300  0.00  0.00    -0.001 A 
ATOM      9  C   UNL     1      -4.211  -1.722  23.885  0.00  0.00    +0.020 A 
ATOM     10  C   UNL     1      -4.097  -2.537  23.959  0.00  0.00    +0.099 A 
ATOM     11  N   UNL     1      -3.500  -2.827  24.447  0.00  0.00    -0.243 NA
ATOM     12  C   UNL     1      -3.016  -2.304  24.862  0.00  0.00    +0.095 A 
ENDBRANCH   6   7
ENDBRANCH   5   6
ENDBRANCH  13   5
TORSDOF 7
ENDMDL
MODEL 3
REMARK VINA RESULT:     -10.5      1.571      2.158
REMARK  Name = 
REMARK  7 active torsions:
REMARK  status: ('A' for Active; 'I' for Inactive)
REMARK    1  A    between atoms: O_2  and  C_3
REMARK    2  A    between atoms: C_3  and  C_5
REMARK    3  A    between atoms: C_5  and  C_6
REMARK    4  A    between atoms: C_5  and  N_13
REMARK    5  A    between atoms: C_6  and  C_7
REMARK    6  A    between atoms: C_14  and  C_16
REMARK    7  A    between atoms: N_24  and  C_25
REMARK                            x       y       z     vdW  Elec       q    Type
REMARK                         _______ _______ _______ _____ _____    ______ ____
ROOT
ATOM     13  N   UNL     1      -1.360   1.788  24.775  0.00  0.00    -0.194 NA
ATOM     14  C   UNL     1      -1.697   1.144  25.164  0.00  0.00    +0.261 C 
ATOM     15  O   UNL     1      -1.437   0.935  25.919  0.00  0.00    -0.271 OA
ENDROOT
BRANCH  14  16
ATOM     16  C   UNL     1      -2.295   0.709  24.799  0.00  0.00    +0.172 C 
ATOM     17  C   UNL     1      -2.839   1.088  24.308  0.00  0.00    +0.118 C 
ATOM     18  N   UNL     1      -3.438   0.652  23.943  0.00  0.00    -0.214 NA
ATOM     19  C   UNL     1      -3.492  -0.162  24.069  0.00  0.00    +0.110 C 
ATOM     20  C   UNL     1      -2.947  -0.539  24.560  0.00  0.00    +0.114 C 
ATOM     21  N   UNL     1      -2.349  -0.105  24.925  0.00  0.00    -0.253 N 
ATOM     22  C   UNL     1      -1.806  -0.483  25.416  0.00  0.00    +0.324 C 
ATOM     23  O   UNL     1      -1.207  -0.048  25.782  0.00  0.00    -0.251 OA
ATOM     24  N   UNL     1      -1.860  -1.297  25.542  0.00  0.00    -0.190 NA
BRANCH  24  25
ATOM     25  C   UNL     1      -2.458  -1.732  25.177  0.00  0.00    +0.097 C 
ATOM     26  C   UNL     1      -2.315  -2.105  24.456  0.00  0.00    +0.022 C 
ATOM     27  C   UNL     1      -2.913  -2.540  24.091  0.00  0.00    +0.002 C 
ATOM     28  C   UNL     1      -3.655  -2.602  24.447  0.00  0.00    +0.000 C 
ATOM     29  C   UNL     1      -3.798  -2.228  25.170  0.00  0.00    +0.002 C 
ATOM     30  C   UNL     1      -3.199  -1.793  25.534  0.00  0.00    +0.022 C 
ENDBRANCH  24  25
ENDBRANCH  14  16
BRANCH  13   5
ATOM      5  C   UNL     1      -0.762   2.224  25.141  0.00  0.00    +0.198 C 
BRANCH   5   3
ATOM      3  C   UNL     1       0.025   2.117  24.912  0.00  0.00    +0.337 C 
ATOM      4  O   UNL     1       0.622   2.111  25.481  0.00  0.00    -0.248 OA
BRANCH   3   2
ATOM      1  C   UNL     1       0.969   1.773  23.898  0.00  0.00    +0.256 C 
ATOM      2  O   UNL     1       0.212   2.018  24.116  0.00  0.00    -0.443 OA
ENDBRANCH   3   2
ENDBRANCH   5   3
BRANCH   5   6
ATOM      6  C   UNL     1      -0.949   2.765  25.735  0.00  0.00    +0.061 C 
BRANCH   6   7
ATOM      7  C   UNL     1      -1.188   3.530  25.535  0.00  0.00    -0.001 A 
ATOM      8  C   UNL     1      -1.945   3.790  25.730  0.00  0.00    -0.001 A 
ATOM      9  C   UNL     1      -2.183   4.554  25.530  0.00  0.00    +0.020 A 
ATOM     10  C   UNL     1      -1.662   5.058  25.134  0.00  0.00    +0.099 A 
ATOM     11  N   UNL     1      -0.904   4.797  24.939  0.00  0.00    -0.243 NA
ATOM     12  C   UNL     1      -0.667   4.034  25.139  0.00  0.00    +0.095 A 
ENDBRANCH   6   7
ENDBRANCH   5   6
ENDBRANCH  13   5
TORSDOF 7
ENDMDL
MODEL 4
REMARK VINA RESULT:      -9.6      1.400      2.218
REMARK  Name = 
REMARK  7 active torsions:
REMARK  status: ('A' for Active; 'I' for Inactive)
REMARK    1  A    between atoms: O_2  and  C_3
REMARK    2  A    between atoms: C_3  and  C_5
REMARK    3  A    between atoms: C_5  and  C_6
REMARK    4  A    between atoms: C_5  and  N_13
REMARK    5  A    between atoms: C_6  and  C_7
REMARK    6  A    between atoms: C_14  and  C_16
REMARK    7  A    between atoms: N_24  and  C_25
REMARK                            x       y       z     vdW  Elec       q    Type
REMARK                         _______ _______ _______ _____ _____    ______ ____
ROOT
ATOM     13  N   UNL     1      -2.798   1.832  24.994  0.00  0.00    -0.194 NA
ATOM     14  C   UNL     1      -2.514   1.197  24.551  0.00  0.00    +0.261 C 
ATOM     15  O   UNL     1      -2.445   1.264  23.731  0.00  0.00    -0.271 OA
ENDROOT
BRANCH  14  16
ATOM     16  C   UNL     1      -2.297   0.496  24.927  0.00  0.00    +0.172 C 
ATOM     17  C   UNL     1      -1.732   0.508  25.528  0.00  0.00    +0.118 C 
ATOM     18  N   UNL     1      -1.515  -0.194  25.904  0.00  0.00    -0.214 NA
ATOM     19  C   UNL     1      -1.863  -0.907  25.680  0.00  0.00    +0.110 C 
ATOM     20  C   UNL     1      -2.429  -0.918  25.079  0.00  0.00    +0.114 C 
ATOM     21  N   UNL     1      -2.646  -0.218  24.703  0.00  0.00    -0.253 N 
ATOM     22  C   UNL     1      -3.211  -0.229  24.103  0.00  0.00    +0.324 C 
ATOM     23  O   UNL     1      -3.429   0.472  23.726  0.00  0.00    -0.251 OA
ATOM     24  N   UNL     1      -3.560  -0.943  23.878  0.00  0.00    -0.190 NA
BRANCH  24  25
ATOM     25  C   UNL     1      -3.343  -1.644  24.255  0.00  0.00    +0.097 C 
ATOM     26  C   UNL     1      -3.754  -1.897  24.923  0.00  0.00    +0.022 C 
ATOM     27  C   UNL     1      -3.537  -2.599  25.300  0.00  0.00    +0.002 C 
ATOM     28  C   UNL     1      -2.909  -3.047  25.007  0.00  0.00    +0.000 C 
ATOM     29  C   UNL     1      -2.498  -2.793  24.337  0.00  0.00    +0.002 C 
ATOM     30  C   UNL     1      -2.716  -2.092  23.961  0.00  0.00    +0.022 C 
ENDBRANCH  24  25
ENDBRANCH  14  16
BRANCH  13   5
ATOM      5  C   UNL     1      -3.015   2.534  24.617  0.00  0.00    +0.198 C 
BRANCH   5   3
ATOM      3  C   UNL     1      -2.462   3.140  24.525  0.00  0.00    +0.337 C 
ATOM      4  O   UNL     1      -2.323   3.461  23.778  0.00  0.00    -0.248 OA
BRANCH   3   2
ATOM      1  C   UNL     1      -1.477   4.011  25.084  0.00  0.00    +0.256 C 
ATOM      2  O   UNL     1      -2.049   3.424  25.180  0.00  0.00    -0.443 OA
ENDBRANCH   3   2
ENDBRANCH   5   3
BRANCH   5   6
ATOM      6  C   UNL     1      -3.783   2.630  24.333  0.00  0.00    +0.061 C 
BRANCH   6   7
ATOM      7  C   UNL     1      -4.376   2.909  24.835  0.00  0.00    -0.001 A 
ATOM      8  C   UNL     1      -4.838   2.378  25.263  0.00  0.00    -0.001 A 
ATOM      9  C   UNL     1      -5.431   2.657  25.764  0.00  0.00    +0.020 A 
ATOM     10  C   UNL     1      -5.561   3.470  25.836  0.00  0.00    +0.099 A 
ATOM     11  N   UNL     1      -5.099   4.001  25.407  0.00  0.00    -0.243 NA
ATOM     12  C   UNL     1      -4.506   3.721  24.907  0.00  0.00    +0.095 A 
ENDBRANCH   6   7
ENDBRANCH   5   6
ENDBRANCH  13   5
TORSDOF 7
ENDMDL
