REMARK  Name = 
REMARK  7 active torsions:
REMARK  status: ('A' for Active; 'I' for Inactive)
REMARK    1  A    between atoms: S_2  and  C_3
REMARK    2  A    between atoms: C_3  and  C_4
REMARK    3  A    between atoms: C_8  and  N_19
REMARK    4  A    between atoms: C_10  and  C_11
REMARK    5  A    between atoms: N_13  and  C_15
REMARK    6  A    between atoms: C_15  and  C_16
REMARK    7  A    between atoms: N_22  and  C_23
REMARK                            x       y       z     vdW  Elec       q    Type
REMARK                         _______ _______ _______ _____ _____    ______ ____
ROOT
ATOM      4  C   UNL     1      -4.339  -2.596   0.000  0.00  0.00    +0.237 C 
ATOM      5  O   UNL     1      -4.511  -3.403   0.000  0.00  0.00    -0.274 OA
ATOM      6  N   UNL     1      -3.555  -2.341   0.000  0.00  0.00    -0.270 N 
ATOM      7  C   UNL     1      -3.300  -1.556   0.000  0.00  0.00    +0.116 C 
ATOM      8  C   UNL     1      -2.475  -1.556   0.000  0.00  0.00    +0.119 C 
ATOM      9  C   UNL     1      -2.220  -2.341   0.000  0.00  0.00    +0.053 C 
ATOM     10  C   UNL     1      -2.887  -2.826   0.000  0.00  0.00    +0.154 C 
ENDROOT
BRANCH  10  11
ATOM     11  C   UNL     1      -2.887  -3.651   0.000  0.00  0.00    +0.244 C 
ATOM     12  O   UNL     1      -3.602  -4.063   0.000  0.00  0.00    -0.273 OA
ATOM     13  N   UNL     1      -2.173  -4.063   0.000  0.00  0.00    -0.268 N 
ATOM     14  C   UNL     1      -2.173  -4.888   0.000  0.00  0.00    +0.115 C 
BRANCH  13  15
ATOM     15  C   UNL     1      -1.458  -3.651   0.000  0.00  0.00    +0.183 C 
BRANCH  15  16
ATOM     16  C   UNL     1      -0.744  -4.063   0.000  0.00  0.00    +0.281 C 
ATOM     17  N   UNL     1      -0.029  -3.651   0.000  0.00  0.00    -0.086 NA
ATOM     18  O   UNL     1      -0.744  -4.888   0.000  0.00  0.00    -0.270 OA
ENDBRANCH  15  16
ENDBRANCH  13  15
ENDBRANCH  10  11
BRANCH   8  19
ATOM     19  N   UNL     1      -1.990  -0.889   0.000  0.00  0.00    -0.187 NA
ATOM     20  C   UNL     1      -1.169  -0.975   0.000  0.00  0.00    +0.344 C 
ATOM     21  O   UNL     1      -0.834  -1.728   0.000  0.00  0.00    -0.249 OA
ATOM     22  N   UNL     1      -0.684  -0.307   0.000  0.00  0.00    -0.159 NA
BRANCH  22  23
ATOM     23  C   UNL     1      -1.020   0.446   0.000  0.00  0.00    +0.102 A 
ATOM     24  C   UNL     1      -1.841   0.532   0.000  0.00  0.00    +0.158 A 
ATOM     25  F   UNL     1      -2.325  -0.135   0.000  0.00  0.00    -0.203 F 
ATOM     26  C   UNL     1      -2.176   1.286   0.000  0.00  0.00    +0.061 A 
ATOM     27  C   UNL     1      -1.691   1.954   0.000  0.00  0.00    +0.142 A 
ATOM     28  F   UNL     1      -2.027   2.707   0.000  0.00  0.00    -0.204 F 
ATOM     29  C   UNL     1      -0.871   1.867   0.000  0.00  0.00    +0.031 A 
ATOM     30  C   UNL     1      -0.535   1.114   0.000  0.00  0.00    +0.021 A 
ENDBRANCH  22  23
ENDBRANCH   8  19
BRANCH   4   3
ATOM      3  C   UNL     1      -4.952  -2.044   0.000  0.00  0.00    +0.143 C 
BRANCH   3   2
ATOM      1  C   UNL     1      -5.394  -0.685   0.000  0.00  0.00    +0.070 C 
ATOM      2  S   UNL     1      -4.781  -1.237   0.000  0.00  0.00    -0.130 S 
ENDBRANCH   3   2
ENDBRANCH   4   3
TORSDOF 7
