REMARK  Name = 
REMARK  5 active torsions:
REMARK  status: ('A' for Active; 'I' for Inactive)
REMARK    1  A    between atoms: C_2  and  C_27
REMARK    2  A    between atoms: N_3  and  C_4
REMARK    3  A    between atoms: C_8  and  N_12
REMARK    4  A    between atoms: C_15  and  C_19
REMARK    5  A    between atoms: C_23  and  C_25
REMARK                            x       y       z     vdW  Elec       q    Type
REMARK                         _______ _______ _______ _____ _____    ______ ____
ROOT
ATOM      4  C   UNL     1       1.270  -0.922   0.000  0.00  0.00    +0.155 C 
ATOM      5  C   UNL     1       0.785  -0.255   0.000  0.00  0.00    +0.166 C 
ATOM      6  O   UNL     1       1.270   0.412   0.000  0.00  0.00    -0.350 OA
ATOM      7  C   UNL     1       2.054   0.158   0.000  0.00  0.00    +0.166 C 
ATOM      8  C   UNL     1       2.839   0.412   0.000  0.00  0.00    +0.154 C 
ATOM      9  C   UNL     1       3.324  -0.255   0.000  0.00  0.00    +0.166 C 
ATOM     10  O   UNL     1       2.839  -0.922   0.000  0.00  0.00    -0.350 OA
ATOM     11  C   UNL     1       2.054  -0.667   0.000  0.00  0.00    +0.166 C 
ENDROOT
BRANCH   8  12
ATOM     12  N   UNL     1       3.094   1.197   0.000  0.00  0.00    -0.200 NA
ATOM     13  C   UNL     1       3.901   1.369   0.000  0.00  0.00    +0.237 A 
ATOM     14  N   UNL     1       4.156   2.153   0.000  0.00  0.00    -0.212 NA
ATOM     15  C   UNL     1       4.963   2.325   0.000  0.00  0.00    +0.086 A 
ATOM     16  C   UNL     1       5.515   1.712   0.000  0.00  0.00    +0.040 A 
ATOM     17  C   UNL     1       5.260   0.927   0.000  0.00  0.00    +0.103 A 
ATOM     18  N   UNL     1       4.453   0.756   0.000  0.00  0.00    -0.211 NA
BRANCH  15  19
ATOM     19  C   UNL     1       5.218   3.109   0.000  0.00  0.00    +0.018 A 
ATOM     20  C   UNL     1       4.665   3.723   0.000  0.00  0.00    +0.002 A 
ATOM     21  C   UNL     1       4.920   4.507   0.000  0.00  0.00    +0.001 A 
ATOM     22  C   UNL     1       5.727   4.679   0.000  0.00  0.00    +0.010 A 
ATOM     23  C   UNL     1       6.279   4.066   0.000  0.00  0.00    +0.068 A 
ATOM     24  C   UNL     1       6.024   3.281   0.000  0.00  0.00    +0.012 A 
BRANCH  23  25
ATOM     25  C   UNL     1       7.086   4.237   0.000  0.00  0.00    +0.100 C 
ATOM     26  N   UNL     1       7.893   4.409   0.000  0.00  0.00    -0.191 NA
ENDBRANCH  23  25
ENDBRANCH  15  19
ENDBRANCH   8  12
BRANCH   4   3
ATOM      1  O   UNL     1       2.374  -2.149   0.000  0.00  0.00    -0.265 OA
ATOM      2  C   UNL     1       1.567  -2.320   0.000  0.00  0.00    +0.300 C 
ATOM      3  N   UNL     1       1.015  -1.707   0.000  0.00  0.00    -0.196 NA
BRANCH   2  27
ATOM     27  C   UNL     1       1.312  -3.105   0.000  0.00  0.00    +0.200 A 
ATOM     28  C   UNL     1       1.797  -3.772   0.000  0.00  0.00    +0.046 A 
ATOM     29  C   UNL     1       1.312  -4.440   0.000  0.00  0.00    +0.044 A 
ATOM     30  C   UNL     1       0.527  -4.185   0.000  0.00  0.00    +0.180 A 
ATOM     31  O   UNL     1       0.527  -3.360   0.000  0.00  0.00    -0.446 OA
ENDBRANCH   2  27
ENDBRANCH   4   3
TORSDOF 5
