MODEL 1
REMARK VINA RESULT:     -10.4      0.000      0.000
REMARK  Name = 
REMARK  8 active torsions:
REMARK  status: ('A' for Active; 'I' for Inactive)
REMARK    1  A    between atoms: C_2  and  O_3
REMARK    2  A    between atoms: O_3  and  C_4
REMARK    3  A    between atoms: C_4  and  C_5
REMARK    4  A    between atoms: C_5  and  N_6
REMARK    5  A    between atoms: C_7  and  C_13
REMARK    6  A    between atoms: C_13  and  C_15
REMARK    7  A    between atoms: C_18  and  N_19
REMARK    8  A    between atoms: C_20  and  C_22
REMARK                            x       y       z     vdW  Elec       q    Type
REMARK                         _______ _______ _______ _____ _____    ______ ____
ROOT
ATOM     13  C   UNL     1      -3.931   2.580  24.174  0.00  0.00    +0.195 C 
ATOM     14  O   UNL     1      -3.697   3.028  23.522  0.00  0.00    -0.216 OA
ENDROOT
BRANCH  13   7
ATOM      6  N   UNL     1      -3.690   3.397  25.322  0.00  0.00    -0.271 N 
ATOM      7  C   UNL     1      -4.208   2.956  24.854  0.00  0.00    +0.139 C 
ATOM      8  C   UNL     1      -5.002   2.891  25.066  0.00  0.00    +0.165 C 
ATOM      9  O   UNL     1      -5.280   3.267  25.746  0.00  0.00    -0.343 OA
ATOM     10  C   UNL     1      -4.763   3.708  26.214  0.00  0.00    +0.227 C 
ATOM     11  C   UNL     1      -3.968   3.773  26.002  0.00  0.00    +0.256 C 
ATOM     12  O   UNL     1      -3.451   4.214  26.470  0.00  0.00    -0.272 OA
BRANCH   6   5
ATOM      5  C   UNL     1      -2.896   3.462  25.110  0.00  0.00    +0.126 C 
BRANCH   5   4
ATOM      4  C   UNL     1      -2.475   4.146  25.293  0.00  0.00    +0.164 C 
BRANCH   4   3
ATOM      3  O   UNL     1      -1.674   4.202  25.101  0.00  0.00    -0.352 OA
BRANCH   3   2
ATOM      1  C   UNL     1      -0.564   5.019  24.724  0.00  0.00    +0.035 C 
ATOM      2  C   UNL     1      -1.306   4.940  25.074  0.00  0.00    +0.142 C 
ENDBRANCH   3   2
ENDBRANCH   4   3
ENDBRANCH   5   4
ENDBRANCH   6   5
ENDBRANCH  13   7
BRANCH  13  15
ATOM     15  C   UNL     1      -3.888   1.757  24.147  0.00  0.00    +0.010 A 
ATOM     16  C   UNL     1      -3.184   1.388  23.923  0.00  0.00    -0.000 A 
ATOM     17  C   UNL     1      -3.141   0.564  23.896  0.00  0.00    +0.016 A 
ATOM     18  C   UNL     1      -3.800   0.110  24.092  0.00  0.00    +0.073 A 
ATOM     26  C   UNL     1      -4.504   0.479  24.316  0.00  0.00    +0.016 A 
ATOM     27  C   UNL     1      -4.548   1.302  24.344  0.00  0.00    -0.000 A 
BRANCH  18  19
ATOM     19  N   UNL     1      -3.758  -0.714  24.065  0.00  0.00    -0.179 NA
ATOM     20  C   UNL     1      -3.603  -1.141  24.753  0.00  0.00    +0.245 C 
ATOM     21  O   UNL     1      -3.491  -0.745  25.469  0.00  0.00    -0.273 OA
BRANCH  20  22
ATOM     22  C   UNL     1      -3.560  -1.964  24.728  0.00  0.00    +0.079 C 
ATOM     23  C   UNL     1      -3.880  -2.551  24.245  0.00  0.00    +0.009 C 
ATOM     24  C   UNL     1      -3.499  -3.129  24.692  0.00  0.00    +0.001 C 
ATOM     25  C   UNL     1      -3.178  -2.542  25.176  0.00  0.00    +0.009 C 
ENDBRANCH  20  22
ENDBRANCH  18  19
ENDBRANCH  13  15
TORSDOF 8
ENDMDL
MODEL 2
REMARK VINA RESULT:      -9.4      1.038      2.272
REMARK  Name = 
REMARK  8 active torsions:
REMARK  status: ('A' for Active; 'I' for Inactive)
REMARK    1  A    between atoms: C_2  and  O_3
REMARK    2  A    between atoms: O_3  and  C_4
REMARK    3  A    between atoms: C_4  and  C_5
REMARK    4  A    between atoms: C_5  and  N_6
REMARK    5  A    between atoms: C_7  and  C_13
REMARK    6  A    between atoms: C_13  and  C_15
REMARK    7  A    between atoms: C_18  and  N_19
REMARK    8  A    between atoms: C_20  and  C_22
REMARK                            x       y       z     vdW  Elec       q    Type
REMARK                         _______ _______ _______ _____ _____    ______ ____
ROOT
ATOM     13  C   UNL     1      -2.565   2.299  24.056  0.00  0.00    +0.195 C 
ATOM     14  O   UNL     1      -2.927   2.630  23.393  0.00  0.00    -0.216 OA
ENDROOT
BRANCH  13   7
ATOM      6  N   UNL     1      -2.491   3.445  24.905  0.00  0.00    -0.271 N 
ATOM      7  C   UNL     1      -2.137   2.777  24.574  0.00  0.00    +0.139 C 
ATOM      8  C   UNL     1      -1.356   2.588  24.760  0.00  0.00    +0.165 C 
ATOM      9  O   UNL     1      -0.929   3.067  25.279  0.00  0.00    -0.343 OA
ATOM     10  C   UNL     1      -1.281   3.735  25.610  0.00  0.00    +0.227 C 
ATOM     11  C   UNL     1      -2.063   3.924  25.423  0.00  0.00    +0.256 C 
ATOM     12  O   UNL     1      -2.415   4.592  25.755  0.00  0.00    -0.272 OA
BRANCH   6   5
ATOM      5  C   UNL     1      -3.271   3.635  24.719  0.00  0.00    +0.126 C 
BRANCH   5   4
ATOM      4  C   UNL     1      -3.800   3.838  25.317  0.00  0.00    +0.164 C 
BRANCH   4   3
ATOM      3  O   UNL     1      -4.599   3.950  25.142  0.00  0.00    -0.352 OA
BRANCH   3   2
ATOM      1  C   UNL     1      -5.817   3.381  25.627  0.00  0.00    +0.035 C 
ATOM      2  C   UNL     1      -5.167   3.877  25.736  0.00  0.00    +0.142 C 
ENDBRANCH   3   2
ENDBRANCH   4   3
ENDBRANCH   5   4
ENDBRANCH   6   5
ENDBRANCH  13   7
BRANCH  13  15
ATOM     15  C   UNL     1      -2.630   1.490  24.201  0.00  0.00    +0.010 A 
ATOM     16  C   UNL     1      -3.206   1.209  24.723  0.00  0.00    -0.000 A 
ATOM     17  C   UNL     1      -3.270   0.399  24.867  0.00  0.00    +0.016 A 
ATOM     18  C   UNL     1      -2.761  -0.129  24.492  0.00  0.00    +0.073 A 
ATOM     26  C   UNL     1      -2.185   0.151  23.971  0.00  0.00    +0.016 A 
ATOM     27  C   UNL     1      -2.120   0.960  23.826  0.00  0.00    -0.000 A 
BRANCH  18  19
ATOM     19  N   UNL     1      -2.826  -0.939  24.637  0.00  0.00    -0.179 NA
ATOM     20  C   UNL     1      -3.441  -1.371  24.296  0.00  0.00    +0.245 C 
ATOM     21  O   UNL     1      -3.991  -0.993  23.810  0.00  0.00    -0.273 OA
BRANCH  20  22
ATOM     22  C   UNL     1      -3.507  -2.180  24.440  0.00  0.00    +0.079 C 
ATOM     23  C   UNL     1      -3.851  -2.817  24.046  0.00  0.00    +0.009 C 
ATOM     24  C   UNL     1      -3.599  -3.325  24.645  0.00  0.00    +0.001 C 
ATOM     25  C   UNL     1      -3.254  -2.688  25.040  0.00  0.00    +0.009 C 
ENDBRANCH  20  22
ENDBRANCH  18  19
ENDBRANCH  13  15
TORSDOF 8
ENDMDL
MODEL 3
REMARK VINA RESULT:      -9.2      1.843      2.947
REMARK  Name = 
REMARK  8 active torsions:
REMARK  status: ('A' for Active; 'I' for Inactive)
REMARK    1  A    between atoms: C_2  and  O_3
REMARK    2  A    between atoms: O_3  and  C_4
REMARK    3  A    between atoms: C_4  and  C_5
REMARK    4  A    between atoms: C_5  and  N_6
REMARK    5  A    between atoms: C_7  and  C_13
REMARK    6  A    between atoms: C_13  and  C_15
REMARK    7  A    between atoms: C_18  and  N_19
REMARK    8  A    between atoms: C_20  and  C_22
REMARK                            x       y       z     vdW  Elec       q    Type
REMARK                         _______ _______ _______ _____ _____    ______ ____
ROOT
ATOM     13  C   UNL     1      -0.840   1.627  25.610  0.00  0.00    +0.195 C 
ATOM     14  O   UNL     1      -0.739   1.727  26.423  0.00  0.00    -0.216 OA
ENDROOT
BRANCH  13   7
ATOM      6  N   UNL     1      -0.758   2.985  25.175  0.00  0.00    -0.271 N 
ATOM      7  C   UNL     1      -0.547   2.192  25.086  0.00  0.00    +0.139 C 
ATOM      8  C   UNL     1      -0.044   1.965  24.473  0.00  0.00    +0.165 C 
ATOM      9  O   UNL     1       0.249   2.530  23.949  0.00  0.00    -0.343 OA
ATOM     10  C   UNL     1       0.039   3.323  24.037  0.00  0.00    +0.227 C 
ATOM     11  C   UNL     1      -0.465   3.551  24.650  0.00  0.00    +0.256 C 
ATOM     12  O   UNL     1      -0.675   4.343  24.738  0.00  0.00    -0.272 OA
BRANCH   6   5
ATOM      5  C   UNL     1      -1.261   3.213  25.787  0.00  0.00    +0.126 C 
BRANCH   5   4
ATOM      4  C   UNL     1      -1.853   3.769  25.649  0.00  0.00    +0.164 C 
BRANCH   4   3
ATOM      3  O   UNL     1      -2.431   3.908  26.222  0.00  0.00    -0.352 OA
BRANCH   3   2
ATOM      1  C   UNL     1      -3.857   3.966  26.146  0.00  0.00    +0.035 C 
ATOM      2  C   UNL     1      -3.120   4.316  26.023  0.00  0.00    +0.142 C 
ENDBRANCH   3   2
ENDBRANCH   4   3
ENDBRANCH   5   4
ENDBRANCH   6   5
ENDBRANCH  13   7
BRANCH  13  15
ATOM     15  C   UNL     1      -1.235   0.963  25.322  0.00  0.00    +0.010 A 
ATOM     16  C   UNL     1      -0.884   0.217  25.380  0.00  0.00    -0.000 A 
ATOM     17  C   UNL     1      -1.279  -0.447  25.091  0.00  0.00    +0.016 A 
ATOM     18  C   UNL     1      -2.023  -0.368  24.745  0.00  0.00    +0.073 A 
ATOM     26  C   UNL     1      -2.373   0.378  24.687  0.00  0.00    +0.016 A 
ATOM     27  C   UNL     1      -1.979   1.042  24.975  0.00  0.00    -0.000 A 
BRANCH  18  19
ATOM     19  N   UNL     1      -2.418  -1.032  24.456  0.00  0.00    -0.179 NA
ATOM     20  C   UNL     1      -3.006  -1.391  24.910  0.00  0.00    +0.245 C 
ATOM     21  O   UNL     1      -3.199  -1.086  25.652  0.00  0.00    -0.273 OA
BRANCH  20  22
ATOM     22  C   UNL     1      -3.402  -2.056  24.622  0.00  0.00    +0.079 C 
ATOM     23  C   UNL     1      -3.979  -2.189  24.050  0.00  0.00    +0.009 C 
ATOM     24  C   UNL     1      -3.960  -2.996  24.217  0.00  0.00    +0.001 C 
ATOM     25  C   UNL     1      -3.382  -2.863  24.790  0.00  0.00    +0.009 C 
ENDBRANCH  20  22
ENDBRANCH  18  19
ENDBRANCH  13  15
TORSDOF 8
ENDMDL
MODEL 4
REMARK VINA RESULT:      -8.9      2.044      5.856
REMARK  Name = 
REMARK  8 active torsions:
REMARK  status: ('A' for Active; 'I' for Inactive)
REMARK    1  A    between atoms: C_2  and  O_3
REMARK    2  A    between atoms: O_3  and  C_4
REMARK    3  A    between atoms: C_4  and  C_5
REMARK    4  A    between atoms: C_5  and  N_6
REMARK    5  A    between atoms: C_7  and  C_13
REMARK    6  A    between atoms: C_13  and  C_15
REMARK    7  A    between atoms: C_18  and  N_19
REMARK    8  A    between atoms: C_20  and  C_22
REMARK                            x       y       z     vdW  Elec       q    Type
REMARK                         _______ _______ _______ _____ _____    ______ ____
ROOT
ATOM     13  C   UNL     1      -1.682  -0.123  25.544  0.00  0.00    +0.195 C 
ATOM     14  O   UNL     1      -2.222  -0.346  26.127  0.00  0.00    -0.216 OA
ENDROOT
BRANCH  13   7
ATOM      6  N   UNL     1      -1.639  -1.381  24.868  0.00  0.00    -0.271 N 
ATOM      7  C   UNL     1      -1.258  -0.699  25.134  0.00  0.00    +0.139 C 
ATOM      8  C   UNL     1      -0.453  -0.594  24.990  0.00  0.00    +0.165 C 
ATOM      9  O   UNL     1      -0.028  -1.171  24.580  0.00  0.00    -0.343 OA
ATOM     10  C   UNL     1      -0.409  -1.852  24.314  0.00  0.00    +0.227 C 
ATOM     11  C   UNL     1      -1.215  -1.957  24.458  0.00  0.00    +0.256 C 
ATOM     12  O   UNL     1      -1.595  -2.639  24.192  0.00  0.00    -0.272 OA
BRANCH   6   5
ATOM      5  C   UNL     1      -2.444  -1.486  25.012  0.00  0.00    +0.126 C 
BRANCH   5   4
ATOM      4  C   UNL     1      -2.929  -1.808  24.428  0.00  0.00    +0.164 C 
BRANCH   4   3
ATOM      3  O   UNL     1      -3.733  -1.922  24.574  0.00  0.00    -0.352 OA
BRANCH   3   2
ATOM      1  C   UNL     1      -4.709  -2.478  23.690  0.00  0.00    +0.035 C 
ATOM      2  C   UNL     1      -4.282  -1.828  23.965  0.00  0.00    +0.142 C 
ENDBRANCH   3   2
ENDBRANCH   4   3
ENDBRANCH   5   4
ENDBRANCH   6   5
ENDBRANCH  13   7
BRANCH  13  15
ATOM     15  C   UNL     1      -1.567   0.675  25.371  0.00  0.00    +0.010 A 
ATOM     16  C   UNL     1      -0.949   1.089  25.729  0.00  0.00    -0.000 A 
ATOM     17  C   UNL     1      -0.833   1.888  25.556  0.00  0.00    +0.016 A 
ATOM     18  C   UNL     1      -1.334   2.272  25.026  0.00  0.00    +0.073 A 
ATOM     26  C   UNL     1      -1.953   1.857  24.668  0.00  0.00    +0.016 A 
ATOM     27  C   UNL     1      -2.068   1.060  24.841  0.00  0.00    -0.000 A 
BRANCH  18  19
ATOM     19  N   UNL     1      -1.219   3.070  24.853  0.00  0.00    -0.179 NA
ATOM     20  C   UNL     1      -1.514   3.649  25.361  0.00  0.00    +0.245 C 
ATOM     21  O   UNL     1      -1.924   3.429  26.044  0.00  0.00    -0.273 OA
BRANCH  20  22
ATOM     22  C   UNL     1      -1.399   4.448  25.189  0.00  0.00    +0.079 C 
ATOM     23  C   UNL     1      -0.786   4.893  24.864  0.00  0.00    +0.009 C 
ATOM     24  C   UNL     1      -1.239   5.578  24.946  0.00  0.00    +0.001 C 
ATOM     25  C   UNL     1      -1.853   5.132  25.272  0.00  0.00    +0.009 C 
ENDBRANCH  20  22
ENDBRANCH  18  19
ENDBRANCH  13  15
TORSDOF 8
ENDMDL
MODEL 5
REMARK VINA RESULT:      -8.5      2.823      4.950
REMARK  Name = 
REMARK  8 active torsions:
REMARK  status: ('A' for Active; 'I' for Inactive)
REMARK    1  A    between atoms: C_2  and  O_3
REMARK    2  A    between atoms: O_3  and  C_4
REMARK    3  A    between atoms: C_4  and  C_5
REMARK    4  A    between atoms: C_5  and  N_6
REMARK    5  A    between atoms: C_7  and  C_13
REMARK    6  A    between atoms: C_13  and  C_15
REMARK    7  A    between atoms: C_18  and  N_19
REMARK    8  A    between atoms: C_20  and  C_22
REMARK                            x       y       z     vdW  Elec       q    Type
REMARK                         _______ _______ _______ _____ _____    ______ ____
ROOT
ATOM     13  C   UNL     1      -0.665   1.309  24.794  0.00  0.00    +0.195 C 
ATOM     14  O   UNL     1       0.050   1.670  24.597  0.00  0.00    -0.216 OA
ENDROOT
BRANCH  13   7
ATOM      6  N   UNL     1      -0.368  -0.024  24.373  0.00  0.00    -0.271 N 
ATOM      7  C   UNL     1      -0.694   0.495  24.926  0.00  0.00    +0.139 C 
ATOM      8  C   UNL     1      -1.047   0.201  25.610  0.00  0.00    +0.165 C 
ATOM      9  O   UNL     1      -1.075  -0.613  25.742  0.00  0.00    -0.343 OA
ATOM     10  C   UNL     1      -0.750  -1.133  25.190  0.00  0.00    +0.227 C 
ATOM     11  C   UNL     1      -0.396  -0.838  24.505  0.00  0.00    +0.256 C 
ATOM     12  O   UNL     1      -0.071  -1.357  23.953  0.00  0.00    -0.272 OA
BRANCH   6   5
ATOM      5  C   UNL     1      -0.015   0.271  23.689  0.00  0.00    +0.126 C 
BRANCH   5   4
ATOM      4  C   UNL     1       0.659  -0.093  23.384  0.00  0.00    +0.164 C 
BRANCH   4   3
ATOM      3  O   UNL     1       1.100   0.281  22.794  0.00  0.00    -0.352 OA
BRANCH   3   2
ATOM      1  C   UNL     1       2.463   0.318  22.369  0.00  0.00    +0.035 C 
ATOM      2  C   UNL     1       1.757  -0.095  22.467  0.00  0.00    +0.142 C 
ENDBRANCH   3   2
ENDBRANCH   4   3
ENDBRANCH   5   4
ENDBRANCH   6   5
ENDBRANCH  13   7
BRANCH  13  15
ATOM     15  C   UNL     1      -1.352   1.761  24.858  0.00  0.00    +0.010 A 
ATOM     16  C   UNL     1      -1.906   1.759  24.246  0.00  0.00    -0.000 A 
ATOM     17  C   UNL     1      -2.593   2.211  24.310  0.00  0.00    +0.016 A 
ATOM     18  C   UNL     1      -2.727   2.665  24.985  0.00  0.00    +0.073 A 
ATOM     26  C   UNL     1      -2.172   2.668  25.598  0.00  0.00    +0.016 A 
ATOM     27  C   UNL     1      -1.486   2.216  25.533  0.00  0.00    -0.000 A 
BRANCH  18  19
ATOM     19  N   UNL     1      -3.414   3.118  25.050  0.00  0.00    -0.179 NA
ATOM     20  C   UNL     1      -4.114   2.769  25.311  0.00  0.00    +0.245 C 
ATOM     21  O   UNL     1      -4.127   1.967  25.507  0.00  0.00    -0.273 OA
BRANCH  20  22
ATOM     22  C   UNL     1      -4.801   3.220  25.376  0.00  0.00    +0.079 C 
ATOM     23  C   UNL     1      -4.977   4.024  25.341  0.00  0.00    +0.009 C 
ATOM     24  C   UNL     1      -5.775   3.857  25.468  0.00  0.00    +0.001 C 
ATOM     25  C   UNL     1      -5.599   3.052  25.503  0.00  0.00    +0.009 C 
ENDBRANCH  20  22
ENDBRANCH  18  19
ENDBRANCH  13  15
TORSDOF 8
ENDMDL
