MODEL 1
REMARK VINA RESULT:      -9.2      0.000      0.000
REMARK  Name = 
REMARK  2 active torsions:
REMARK  status: ('A' for Active; 'I' for Inactive)
REMARK    1  A    between atoms: N_7  and  C_8
REMARK    2  A    between atoms: C_8  and  C_9
REMARK                            x       y       z     vdW  Elec       q    Type
REMARK                         _______ _______ _______ _____ _____    ______ ____
ROOT
ATOM      8  C   UNL     1      -4.367  -0.118  24.228  0.00  0.00    +0.102 C 
ENDROOT
BRANCH   8   9
ATOM      9  C   UNL     1      -4.011  -0.706  24.682  0.00  0.00    +0.031 A 
ATOM     10  C   UNL     1      -3.689  -0.522  25.419  0.00  0.00    +0.000 A 
ATOM     11  C   UNL     1      -3.334  -1.111  25.873  0.00  0.00    +0.003 A 
ATOM     12  C   UNL     1      -3.300  -1.885  25.592  0.00  0.00    +0.040 A 
ATOM     13  C   UNL     1      -3.622  -2.071  24.855  0.00  0.00    +0.176 A 
ATOM     14  C   UNL     1      -3.978  -1.482  24.400  0.00  0.00    +0.174 A 
ATOM     15  O   UNL     1      -4.246  -1.826  23.701  0.00  0.00    -0.435 OA
ATOM     16  C   UNL     1      -4.056  -2.629  23.724  0.00  0.00    +0.429 C 
ATOM     17  O   UNL     1      -3.671  -2.780  24.437  0.00  0.00    -0.435 OA
ENDBRANCH   8   9
BRANCH   8   7
ATOM      1  O   UNL     1      -2.479   1.580  23.102  0.00  0.00    -0.219 OA
ATOM      2  C   UNL     1      -3.081   1.567  23.667  0.00  0.00    +0.197 C 
ATOM      3  C   UNL     1      -3.210   2.277  24.067  0.00  0.00    +0.176 C 
ATOM      4  O   UNL     1      -3.764   2.442  24.656  0.00  0.00    -0.350 OA
ATOM      5  C   UNL     1      -4.324   1.938  24.991  0.00  0.00    +0.160 C 
ATOM      6  C   UNL     1      -4.470   1.145  24.819  0.00  0.00    +0.105 C 
ATOM      7  N   UNL     1      -4.091   0.659  24.270  0.00  0.00    -0.264 NA
ATOM     18  C   UNL     1      -3.473   0.847  23.757  0.00  0.00    +0.108 C 
ENDBRANCH   8   7
TORSDOF 2
ENDMDL
MODEL 2
REMARK VINA RESULT:      -8.9      0.833      3.663
REMARK  Name = 
REMARK  2 active torsions:
REMARK  status: ('A' for Active; 'I' for Inactive)
REMARK    1  A    between atoms: N_7  and  C_8
REMARK    2  A    between atoms: C_8  and  C_9
REMARK                            x       y       z     vdW  Elec       q    Type
REMARK                         _______ _______ _______ _____ _____    ______ ____
ROOT
ATOM      8  C   UNL     1      -3.596   0.476  24.121  0.00  0.00    +0.102 C 
ENDROOT
BRANCH   8   9
ATOM      9  C   UNL     1      -4.123   1.029  24.430  0.00  0.00    +0.031 A 
ATOM     10  C   UNL     1      -4.743   0.783  24.914  0.00  0.00    +0.000 A 
ATOM     11  C   UNL     1      -5.270   1.338  25.224  0.00  0.00    +0.003 A 
ATOM     12  C   UNL     1      -5.177   2.138  25.048  0.00  0.00    +0.040 A 
ATOM     13  C   UNL     1      -4.556   2.385  24.564  0.00  0.00    +0.176 A 
ATOM     14  C   UNL     1      -4.029   1.831  24.255  0.00  0.00    +0.174 A 
ATOM     15  O   UNL     1      -3.474   2.234  23.797  0.00  0.00    -0.435 OA
ATOM     16  C   UNL     1      -3.659   3.038  23.823  0.00  0.00    +0.429 C 
ATOM     17  O   UNL     1      -4.327   3.131  24.297  0.00  0.00    -0.435 OA
ENDBRANCH   8   9
BRANCH   8   7
ATOM      1  O   UNL     1      -4.406  -2.146  23.694  0.00  0.00    -0.219 OA
ATOM      2  C   UNL     1      -3.980  -1.680  24.225  0.00  0.00    +0.197 C 
ATOM      3  C   UNL     1      -3.662  -2.080  24.874  0.00  0.00    +0.176 C 
ATOM      4  O   UNL     1      -3.213  -1.774  25.496  0.00  0.00    -0.350 OA
ATOM      5  C   UNL     1      -2.973  -0.996  25.623  0.00  0.00    +0.160 C 
ATOM      6  C   UNL     1      -3.121  -0.330  25.160  0.00  0.00    +0.105 C 
ATOM      7  N   UNL     1      -3.546  -0.278  24.455  0.00  0.00    -0.264 NA
ATOM     18  C   UNL     1      -3.929  -0.879  24.039  0.00  0.00    +0.108 C 
ENDBRANCH   8   7
TORSDOF 2
ENDMDL
MODEL 3
REMARK VINA RESULT:      -8.6      1.566      2.279
REMARK  Name = 
REMARK  2 active torsions:
REMARK  status: ('A' for Active; 'I' for Inactive)
REMARK    1  A    between atoms: N_7  and  C_8
REMARK    2  A    between atoms: C_8  and  C_9
REMARK                            x       y       z     vdW  Elec       q    Type
REMARK                         _______ _______ _______ _____ _____    ______ ____
ROOT
ATOM      8  C   UNL     1      -3.929   1.308  24.287  0.00  0.00    +0.102 C 
ENDROOT
BRANCH   8   9
ATOM      9  C   UNL     1      -3.660   0.620  24.651  0.00  0.00    +0.031 A 
ATOM     10  C   UNL     1      -4.181   0.151  25.085  0.00  0.00    +0.000 A 
ATOM     11  C   UNL     1      -3.912  -0.538  25.450  0.00  0.00    +0.003 A 
ATOM     12  C   UNL     1      -3.120  -0.758  25.381  0.00  0.00    +0.040 A 
ATOM     13  C   UNL     1      -2.597  -0.290  24.947  0.00  0.00    +0.176 A 
ATOM     14  C   UNL     1      -2.867   0.399  24.582  0.00  0.00    +0.174 A 
ATOM     15  O   UNL     1      -2.229   0.748  24.193  0.00  0.00    -0.435 OA
ATOM     16  C   UNL     1      -1.565   0.274  24.318  0.00  0.00    +0.429 C 
ATOM     17  O   UNL     1      -1.793  -0.367  24.784  0.00  0.00    -0.435 OA
ENDBRANCH   8   9
BRANCH   8   7
ATOM      1  O   UNL     1      -3.792   3.647  25.778  0.00  0.00    -0.219 OA
ATOM      2  C   UNL     1      -4.332   3.088  25.502  0.00  0.00    +0.197 C 
ATOM      3  C   UNL     1      -5.120   3.220  25.711  0.00  0.00    +0.176 C 
ATOM      4  O   UNL     1      -5.784   2.767  25.524  0.00  0.00    -0.350 OA
ATOM      5  C   UNL     1      -5.825   2.073  25.081  0.00  0.00    +0.160 C 
ATOM      6  C   UNL     1      -5.212   1.658  24.716  0.00  0.00    +0.105 C 
ATOM      7  N   UNL     1      -4.407   1.837  24.704  0.00  0.00    -0.264 NA
ATOM     18  C   UNL     1      -4.015   2.473  25.054  0.00  0.00    +0.108 C 
ENDBRANCH   8   7
TORSDOF 2
ENDMDL
MODEL 4
REMARK VINA RESULT:      -8.6      2.025      2.443
REMARK  Name = 
REMARK  2 active torsions:
REMARK  status: ('A' for Active; 'I' for Inactive)
REMARK    1  A    between atoms: N_7  and  C_8
REMARK    2  A    between atoms: C_8  and  C_9
REMARK                            x       y       z     vdW  Elec       q    Type
REMARK                         _______ _______ _______ _____ _____    ______ ____
ROOT
ATOM      8  C   UNL     1      -2.162  -0.938  25.311  0.00  0.00    +0.102 C 
ENDROOT
BRANCH   8   9
ATOM      9  C   UNL     1      -2.860  -1.005  24.879  0.00  0.00    +0.031 A 
ATOM     10  C   UNL     1      -3.255  -0.327  24.626  0.00  0.00    +0.000 A 
ATOM     11  C   UNL     1      -3.955  -0.394  24.193  0.00  0.00    +0.003 A 
ATOM     12  C   UNL     1      -4.258  -1.139  24.013  0.00  0.00    +0.040 A 
ATOM     13  C   UNL     1      -3.864  -1.818  24.266  0.00  0.00    +0.176 A 
ATOM     14  C   UNL     1      -3.164  -1.751  24.699  0.00  0.00    +0.174 A 
ATOM     15  O   UNL     1      -2.898  -2.512  24.873  0.00  0.00    -0.435 OA
ATOM     16  C   UNL     1      -3.434  -3.049  24.547  0.00  0.00    +0.429 C 
ATOM     17  O   UNL     1      -4.030  -2.620  24.172  0.00  0.00    -0.435 OA
ENDBRANCH   8   9
BRANCH   8   7
ATOM      1  O   UNL     1       0.087  -0.669  23.704  0.00  0.00    -0.219 OA
ATOM      2  C   UNL     1      -0.387  -0.243  24.229  0.00  0.00    +0.197 C 
ATOM      3  C   UNL     1      -0.160   0.540  24.358  0.00  0.00    +0.176 C 
ATOM      4  O   UNL     1      -0.514   1.104  24.846  0.00  0.00    -0.350 OA
ATOM      5  C   UNL     1      -1.182   1.024  25.323  0.00  0.00    +0.160 C 
ATOM      6  C   UNL     1      -1.661   0.361  25.432  0.00  0.00    +0.105 C 
ATOM      7  N   UNL     1      -1.589  -0.386  25.089  0.00  0.00    -0.264 NA
ATOM     18  C   UNL     1      -1.023  -0.655  24.554  0.00  0.00    +0.108 C 
ENDBRANCH   8   7
TORSDOF 2
ENDMDL
MODEL 5
REMARK VINA RESULT:      -8.4      2.663      3.798
REMARK  Name = 
REMARK  2 active torsions:
REMARK  status: ('A' for Active; 'I' for Inactive)
REMARK    1  A    between atoms: N_7  and  C_8
REMARK    2  A    between atoms: C_8  and  C_9
REMARK                            x       y       z     vdW  Elec       q    Type
REMARK                         _______ _______ _______ _____ _____    ______ ____
ROOT
ATOM      8  C   UNL     1      -3.547   2.804  24.088  0.00  0.00    +0.102 C 
ENDROOT
BRANCH   8   9
ATOM      9  C   UNL     1      -4.135   2.385  24.485  0.00  0.00    +0.031 A 
ATOM     10  C   UNL     1      -4.167   1.563  24.428  0.00  0.00    +0.000 A 
ATOM     11  C   UNL     1      -4.755   1.143  24.825  0.00  0.00    +0.003 A 
ATOM     12  C   UNL     1      -5.312   1.546  25.280  0.00  0.00    +0.040 A 
ATOM     13  C   UNL     1      -5.282   2.369  25.339  0.00  0.00    +0.176 A 
ATOM     14  C   UNL     1      -4.693   2.788  24.941  0.00  0.00    +0.174 A 
ATOM     15  O   UNL     1      -4.799   3.590  25.100  0.00  0.00    -0.435 OA
ATOM     16  C   UNL     1      -5.455   3.666  25.596  0.00  0.00    +0.429 C 
ATOM     17  O   UNL     1      -5.752   2.911  25.743  0.00  0.00    -0.435 OA
ENDBRANCH   8   9
BRANCH   8   7
ATOM      1  O   UNL     1      -1.191   2.889  25.556  0.00  0.00    -0.219 OA
ATOM      2  C   UNL     1      -1.511   2.567  24.868  0.00  0.00    +0.197 C 
ATOM      3  C   UNL     1      -0.998   2.099  24.421  0.00  0.00    +0.176 C 
ATOM      4  O   UNL     1      -1.149   1.704  23.712  0.00  0.00    -0.350 OA
ATOM      5  C   UNL     1      -1.848   1.678  23.276  0.00  0.00    +0.160 C 
ATOM      6  C   UNL     1      -2.570   2.042  23.440  0.00  0.00    +0.105 C 
ATOM      7  N   UNL     1      -2.771   2.521  24.081  0.00  0.00    -0.264 NA
ATOM     18  C   UNL     1      -2.300   2.755  24.716  0.00  0.00    +0.108 C 
ENDBRANCH   8   7
TORSDOF 2
ENDMDL
MODEL 6
REMARK VINA RESULT:      -8.3      2.729      4.165
REMARK  Name = 
REMARK  2 active torsions:
REMARK  status: ('A' for Active; 'I' for Inactive)
REMARK    1  A    between atoms: N_7  and  C_8
REMARK    2  A    between atoms: C_8  and  C_9
REMARK                            x       y       z     vdW  Elec       q    Type
REMARK                         _______ _______ _______ _____ _____    ______ ____
ROOT
ATOM      8  C   UNL     1      -3.528   3.160  24.391  0.00  0.00    +0.102 C 
ENDROOT
BRANCH   8   9
ATOM      9  C   UNL     1      -2.841   3.316  24.818  0.00  0.00    +0.031 A 
ATOM     10  C   UNL     1      -2.880   3.739  25.524  0.00  0.00    +0.000 A 
ATOM     11  C   UNL     1      -2.192   3.895  25.951  0.00  0.00    +0.003 A 
ATOM     12  C   UNL     1      -1.464   3.628  25.671  0.00  0.00    +0.040 A 
ATOM     13  C   UNL     1      -1.423   3.204  24.964  0.00  0.00    +0.176 A 
ATOM     14  C   UNL     1      -2.112   3.048  24.538  0.00  0.00    +0.174 A 
ATOM     15  O   UNL     1      -1.903   2.621  23.864  0.00  0.00    -0.435 OA
ATOM     16  C   UNL     1      -1.084   2.512  23.875  0.00  0.00    +0.429 C 
ATOM     17  O   UNL     1      -0.789   2.873  24.555  0.00  0.00    -0.435 OA
ENDBRANCH   8   9
BRANCH   8   7
ATOM      1  O   UNL     1      -4.864   0.822  25.072  0.00  0.00    -0.219 OA
ATOM      2  C   UNL     1      -4.919   1.642  25.146  0.00  0.00    +0.197 C 
ATOM      3  C   UNL     1      -5.580   1.920  25.554  0.00  0.00    +0.176 C 
ATOM      4  O   UNL     1      -5.792   2.701  25.720  0.00  0.00    -0.350 OA
ATOM      5  C   UNL     1      -5.396   3.395  25.518  0.00  0.00    +0.160 C 
ATOM      6  C   UNL     1      -4.689   3.481  25.100  0.00  0.00    +0.105 C 
ATOM      7  N   UNL     1      -4.205   2.893  24.782  0.00  0.00    -0.264 NA
ATOM     18  C   UNL     1      -4.307   2.075  24.802  0.00  0.00    +0.108 C 
ENDBRANCH   8   7
TORSDOF 2
ENDMDL
