MODEL 1
REMARK VINA RESULT:     -12.1      0.000      0.000
REMARK  Name = 
REMARK  8 active torsions:
REMARK  status: ('A' for Active; 'I' for Inactive)
REMARK    1  A    between atoms: C_2  and  C_4
REMARK    2  A    between atoms: C_4  and  C_5
REMARK    3  A    between atoms: C_5  and  N_6
REMARK    4  A    between atoms: C_5  and  C_30
REMARK    5  A    between atoms: C_7  and  C_9
REMARK    6  A    between atoms: C_11  and  N_12
REMARK    7  A    between atoms: N_15  and  C_16
REMARK    8  A    between atoms: C_19  and  C_22
REMARK                            x       y       z     vdW  Elec       q    Type
REMARK                         _______ _______ _______ _____ _____    ______ ____
ROOT
ATOM      9  C   UNL     1      -3.677   3.228  24.931  0.00  0.00    +0.033 C 
ATOM     10  C   UNL     1      -3.954   2.491  24.682  0.00  0.00    -0.002 C 
ATOM     11  C   UNL     1      -4.717   2.250  24.880  0.00  0.00    +0.152 C 
ATOM     25  C   UNL     1      -5.203   2.743  25.327  0.00  0.00    +0.206 C 
ATOM     26  O   UNL     1      -5.967   2.501  25.525  0.00  0.00    -0.218 OA
ATOM     27  C   UNL     1      -4.927   3.479  25.576  0.00  0.00    +0.189 C 
ATOM     28  O   UNL     1      -5.414   3.973  26.023  0.00  0.00    -0.220 OA
ATOM     29  C   UNL     1      -4.163   3.722  25.377  0.00  0.00    +0.066 C 
ENDROOT
BRANCH  11  12
ATOM     12  N   UNL     1      -4.994   1.513  24.631  0.00  0.00    -0.181 NA
ATOM     13  C   UNL     1      -4.519   0.844  24.718  0.00  0.00    +0.344 C 
ATOM     14  O   UNL     1      -3.769   0.911  25.053  0.00  0.00    -0.249 OA
ATOM     15  N   UNL     1      -4.796   0.108  24.469  0.00  0.00    -0.161 NA
BRANCH  15  16
ATOM     16  C   UNL     1      -4.321  -0.562  24.555  0.00  0.00    +0.075 A 
ATOM     17  C   UNL     1      -4.111  -1.008  23.893  0.00  0.00    +0.017 A 
ATOM     18  C   UNL     1      -3.637  -1.677  23.980  0.00  0.00    +0.004 A 
ATOM     19  C   UNL     1      -3.372  -1.901  24.728  0.00  0.00    +0.035 A 
ATOM     20  C   UNL     1      -3.581  -1.456  25.390  0.00  0.00    +0.004 A 
ATOM     21  C   UNL     1      -4.056  -0.786  25.303  0.00  0.00    +0.017 A 
BRANCH  19  22
ATOM     22  C   UNL     1      -2.898  -2.570  24.815  0.00  0.00    +0.173 C 
ATOM     23  C   UNL     1      -2.092  -2.530  24.639  0.00  0.00    +0.077 C 
ATOM     24  O   UNL     1      -3.228  -3.279  25.078  0.00  0.00    -0.291 OA
ENDBRANCH  19  22
ENDBRANCH  15  16
ENDBRANCH  11  12
BRANCH   9   7
ATOM      6  N   UNL     1      -2.316   3.456  25.302  0.00  0.00    -0.194 NA
ATOM      7  C   UNL     1      -2.913   3.470  24.733  0.00  0.00    +0.261 C 
ATOM      8  O   UNL     1      -2.747   3.725  23.966  0.00  0.00    -0.269 OA
BRANCH   6   5
ATOM      5  C   UNL     1      -1.553   3.698  25.104  0.00  0.00    +0.175 C 
BRANCH   5  30
ATOM     30  C   UNL     1      -1.344   4.494  25.160  0.00  0.00    +0.281 C 
ATOM     31  N   UNL     1      -0.814   4.820  24.620  0.00  0.00    -0.086 NA
ATOM     32  O   UNL     1      -1.665   4.963  25.758  0.00  0.00    -0.270 OA
ENDBRANCH   5  30
BRANCH   5   4
ATOM      4  C   UNL     1      -0.998   3.142  24.849  0.00  0.00    +0.031 C 
BRANCH   4   2
ATOM      1  C   UNL     1      -0.493   1.848  25.183  0.00  0.00    +0.000 C 
ATOM      2  C   UNL     1      -0.646   2.632  25.393  0.00  0.00    +0.002 C 
ATOM      3  C   UNL     1      -0.448   2.904  26.146  0.00  0.00    +0.000 C 
ENDBRANCH   4   2
ENDBRANCH   5   4
ENDBRANCH   6   5
ENDBRANCH   9   7
TORSDOF 8
ENDMDL
MODEL 2
REMARK VINA RESULT:     -11.3      1.586      3.300
REMARK  Name = 
REMARK  8 active torsions:
REMARK  status: ('A' for Active; 'I' for Inactive)
REMARK    1  A    between atoms: C_2  and  C_4
REMARK    2  A    between atoms: C_4  and  C_5
REMARK    3  A    between atoms: C_5  and  N_6
REMARK    4  A    between atoms: C_5  and  C_30
REMARK    5  A    between atoms: C_7  and  C_9
REMARK    6  A    between atoms: C_11  and  N_12
REMARK    7  A    between atoms: N_15  and  C_16
REMARK    8  A    between atoms: C_19  and  C_22
REMARK                            x       y       z     vdW  Elec       q    Type
REMARK                         _______ _______ _______ _____ _____    ______ ____
ROOT
ATOM      9  C   UNL     1      -1.657   2.746  25.062  0.00  0.00    +0.033 C 
ATOM     10  C   UNL     1      -1.649   1.977  25.362  0.00  0.00    -0.002 C 
ATOM     11  C   UNL     1      -0.962   1.523  25.311  0.00  0.00    +0.152 C 
ATOM     25  C   UNL     1      -0.285   1.836  24.960  0.00  0.00    +0.206 C 
ATOM     26  O   UNL     1       0.402   1.381  24.909  0.00  0.00    -0.218 OA
ATOM     27  C   UNL     1      -0.294   2.604  24.660  0.00  0.00    +0.189 C 
ATOM     28  O   UNL     1       0.384   2.918  24.309  0.00  0.00    -0.220 OA
ATOM     29  C   UNL     1      -0.981   3.060  24.711  0.00  0.00    +0.066 C 
ENDROOT
BRANCH  11  12
ATOM     12  N   UNL     1      -0.953   0.754  25.611  0.00  0.00    -0.181 NA
ATOM     13  C   UNL     1      -1.489   0.195  25.327  0.00  0.00    +0.344 C 
ATOM     14  O   UNL     1      -2.032   0.403  24.744  0.00  0.00    -0.249 OA
ATOM     15  N   UNL     1      -1.480  -0.573  25.627  0.00  0.00    -0.161 NA
BRANCH  15  16
ATOM     16  C   UNL     1      -2.016  -1.133  25.343  0.00  0.00    +0.075 A 
ATOM     17  C   UNL     1      -1.789  -1.656  24.745  0.00  0.00    +0.017 A 
ATOM     18  C   UNL     1      -2.325  -2.215  24.462  0.00  0.00    +0.004 A 
ATOM     19  C   UNL     1      -3.086  -2.253  24.775  0.00  0.00    +0.035 A 
ATOM     20  C   UNL     1      -3.313  -1.731  25.372  0.00  0.00    +0.004 A 
ATOM     21  C   UNL     1      -2.777  -1.171  25.656  0.00  0.00    +0.017 A 
BRANCH  19  22
ATOM     22  C   UNL     1      -3.622  -2.812  24.492  0.00  0.00    +0.173 C 
ATOM     23  C   UNL     1      -4.146  -2.611  23.886  0.00  0.00    +0.077 C 
ATOM     24  O   UNL     1      -3.634  -3.572  24.813  0.00  0.00    -0.291 OA
ENDBRANCH  19  22
ENDBRANCH  15  16
ENDBRANCH  11  12
BRANCH   9   7
ATOM      6  N   UNL     1      -3.036   2.945  24.742  0.00  0.00    -0.194 NA
ATOM      7  C   UNL     1      -2.344   3.200  25.113  0.00  0.00    +0.261 C 
ATOM      8  O   UNL     1      -2.340   3.909  25.535  0.00  0.00    -0.269 OA
BRANCH   6   5
ATOM      5  C   UNL     1      -3.722   3.399  24.793  0.00  0.00    +0.175 C 
BRANCH   5  30
ATOM     30  C   UNL     1      -3.942   3.888  24.166  0.00  0.00    +0.281 C 
ATOM     31  N   UNL     1      -4.066   3.566  23.417  0.00  0.00    -0.086 NA
ATOM     32  O   UNL     1      -4.039   4.698  24.289  0.00  0.00    -0.270 OA
ENDBRANCH   5  30
BRANCH   5   4
ATOM      4  C   UNL     1      -4.190   3.364  25.473  0.00  0.00    +0.031 C 
BRANCH   4   2
ATOM      1  C   UNL     1      -5.605   3.314  25.661  0.00  0.00    +0.000 C 
ATOM      2  C   UNL     1      -4.896   2.938  25.466  0.00  0.00    +0.002 C 
ATOM      3  C   UNL     1      -4.894   2.138  25.265  0.00  0.00    +0.000 C 
ENDBRANCH   4   2
ENDBRANCH   5   4
ENDBRANCH   6   5
ENDBRANCH   9   7
TORSDOF 8
ENDMDL
MODEL 3
REMARK VINA RESULT:     -11.1      1.485      3.432
REMARK  Name = 
REMARK  8 active torsions:
REMARK  status: ('A' for Active; 'I' for Inactive)
REMARK    1  A    between atoms: C_2  and  C_4
REMARK    2  A    between atoms: C_4  and  C_5
REMARK    3  A    between atoms: C_5  and  N_6
REMARK    4  A    between atoms: C_5  and  C_30
REMARK    5  A    between atoms: C_7  and  C_9
REMARK    6  A    between atoms: C_11  and  N_12
REMARK    7  A    between atoms: N_15  and  C_16
REMARK    8  A    between atoms: C_19  and  C_22
REMARK                            x       y       z     vdW  Elec       q    Type
REMARK                         _______ _______ _______ _____ _____    ______ ____
ROOT
ATOM      9  C   UNL     1      -2.539   3.423  25.100  0.00  0.00    +0.033 C 
ATOM     10  C   UNL     1      -2.192   2.724  25.368  0.00  0.00    -0.002 C 
ATOM     11  C   UNL     1      -1.380   2.695  25.510  0.00  0.00    +0.152 C 
ATOM     25  C   UNL     1      -0.915   3.363  25.385  0.00  0.00    +0.206 C 
ATOM     26  O   UNL     1      -0.102   3.334  25.528  0.00  0.00    -0.218 OA
ATOM     27  C   UNL     1      -1.261   4.063  25.117  0.00  0.00    +0.189 C 
ATOM     28  O   UNL     1      -0.796   4.732  24.992  0.00  0.00    -0.220 OA
ATOM     29  C   UNL     1      -2.074   4.092  24.974  0.00  0.00    +0.066 C 
ENDROOT
BRANCH  11  12
ATOM     12  N   UNL     1      -1.033   1.995  25.778  0.00  0.00    -0.181 NA
ATOM     13  C   UNL     1      -1.267   1.271  25.459  0.00  0.00    +0.344 C 
ATOM     14  O   UNL     1      -1.845   1.246  24.873  0.00  0.00    -0.249 OA
ATOM     15  N   UNL     1      -0.920   0.572  25.727  0.00  0.00    -0.161 NA
BRANCH  15  16
ATOM     16  C   UNL     1      -1.153  -0.153  25.408  0.00  0.00    +0.075 A 
ATOM     17  C   UNL     1      -0.716  -0.493  24.796  0.00  0.00    +0.017 A 
ATOM     18  C   UNL     1      -0.950  -1.218  24.477  0.00  0.00    +0.004 A 
ATOM     19  C   UNL     1      -1.618  -1.600  24.769  0.00  0.00    +0.035 A 
ATOM     20  C   UNL     1      -2.055  -1.260  25.380  0.00  0.00    +0.004 A 
ATOM     21  C   UNL     1      -1.822  -0.535  25.700  0.00  0.00    +0.017 A 
BRANCH  19  22
ATOM     22  C   UNL     1      -1.852  -2.325  24.450  0.00  0.00    +0.173 C 
ATOM     23  C   UNL     1      -2.627  -2.590  24.553  0.00  0.00    +0.077 C 
ATOM     24  O   UNL     1      -1.311  -2.784  24.029  0.00  0.00    -0.291 OA
ENDBRANCH  19  22
ENDBRANCH  15  16
ENDBRANCH  11  12
BRANCH   9   7
ATOM      6  N   UNL     1      -3.868   3.013  25.428  0.00  0.00    -0.194 NA
ATOM      7  C   UNL     1      -3.351   3.452  24.957  0.00  0.00    +0.261 C 
ATOM      8  O   UNL     1      -3.646   3.920  24.345  0.00  0.00    -0.269 OA
BRANCH   6   5
ATOM      5  C   UNL     1      -4.679   3.042  25.286  0.00  0.00    +0.175 C 
BRANCH   5  30
ATOM     30  C   UNL     1      -5.162   3.531  25.743  0.00  0.00    +0.281 C 
ATOM     31  N   UNL     1      -5.619   4.114  25.380  0.00  0.00    -0.086 NA
ATOM     32  O   UNL     1      -5.186   3.436  26.562  0.00  0.00    -0.270 OA
ENDBRANCH   5  30
BRANCH   5   4
ATOM      4  C   UNL     1      -5.009   2.581  24.685  0.00  0.00    +0.031 C 
BRANCH   4   2
ATOM      1  C   UNL     1      -6.215   1.873  24.982  0.00  0.00    +0.000 C 
ATOM      2  C   UNL     1      -5.397   1.877  24.872  0.00  0.00    +0.002 C 
ATOM      3  C   UNL     1      -4.967   1.177  24.950  0.00  0.00    +0.000 C 
ENDBRANCH   4   2
ENDBRANCH   5   4
ENDBRANCH   6   5
ENDBRANCH   9   7
TORSDOF 8
ENDMDL
MODEL 4
REMARK VINA RESULT:     -10.8      1.936      5.090
REMARK  Name = 
REMARK  8 active torsions:
REMARK  status: ('A' for Active; 'I' for Inactive)
REMARK    1  A    between atoms: C_2  and  C_4
REMARK    2  A    between atoms: C_4  and  C_5
REMARK    3  A    between atoms: C_5  and  N_6
REMARK    4  A    between atoms: C_5  and  C_30
REMARK    5  A    between atoms: C_7  and  C_9
REMARK    6  A    between atoms: C_11  and  N_12
REMARK    7  A    between atoms: N_15  and  C_16
REMARK    8  A    between atoms: C_19  and  C_22
REMARK                            x       y       z     vdW  Elec       q    Type
REMARK                         _______ _______ _______ _____ _____    ______ ____
ROOT
ATOM      9  C   UNL     1      -0.716   0.620  24.199  0.00  0.00    +0.033 C 
ATOM     10  C   UNL     1      -1.309   1.158  23.995  0.00  0.00    -0.002 C 
ATOM     11  C   UNL     1      -1.140   1.965  23.968  0.00  0.00    +0.152 C 
ATOM     25  C   UNL     1      -0.381   2.234  24.143  0.00  0.00    +0.206 C 
ATOM     26  O   UNL     1      -0.213   3.042  24.115  0.00  0.00    -0.218 OA
ATOM     27  C   UNL     1       0.211   1.697  24.346  0.00  0.00    +0.189 C 
ATOM     28  O   UNL     1       0.971   1.966  24.521  0.00  0.00    -0.220 OA
ATOM     29  C   UNL     1       0.042   0.889  24.374  0.00  0.00    +0.066 C 
ENDROOT
BRANCH  11  12
ATOM     12  N   UNL     1      -1.732   2.503  23.764  0.00  0.00    -0.181 NA
ATOM     13  C   UNL     1      -2.434   2.527  24.198  0.00  0.00    +0.344 C 
ATOM     14  O   UNL     1      -2.543   2.014  24.834  0.00  0.00    -0.249 OA
ATOM     15  N   UNL     1      -3.025   3.065  23.994  0.00  0.00    -0.161 NA
BRANCH  15  16
ATOM     16  C   UNL     1      -3.727   3.089  24.429  0.00  0.00    +0.075 A 
ATOM     17  C   UNL     1      -3.809   3.626  25.050  0.00  0.00    +0.017 A 
ATOM     18  C   UNL     1      -4.510   3.650  25.484  0.00  0.00    +0.004 A 
ATOM     19  C   UNL     1      -5.129   3.139  25.296  0.00  0.00    +0.035 A 
ATOM     20  C   UNL     1      -5.047   2.602  24.675  0.00  0.00    +0.004 A 
ATOM     21  C   UNL     1      -4.345   2.578  24.241  0.00  0.00    +0.017 A 
BRANCH  19  22
ATOM     22  C   UNL     1      -5.830   3.163  25.730  0.00  0.00    +0.173 C 
ATOM     23  C   UNL     1      -6.133   2.470  26.062  0.00  0.00    +0.077 C 
ATOM     24  O   UNL     1      -6.229   3.878  25.831  0.00  0.00    -0.291 OA
ENDBRANCH  19  22
ENDBRANCH  15  16
ENDBRANCH  11  12
BRANCH   9   7
ATOM      6  N   UNL     1      -1.408  -0.480  24.794  0.00  0.00    -0.194 NA
ATOM      7  C   UNL     1      -0.885  -0.187  24.226  0.00  0.00    +0.261 C 
ATOM      8  O   UNL     1      -0.531  -0.702  23.687  0.00  0.00    -0.269 OA
BRANCH   6   5
ATOM      5  C   UNL     1      -1.577  -1.287  24.822  0.00  0.00    +0.175 C 
BRANCH   5  30
ATOM     30  C   UNL     1      -1.068  -1.801  25.218  0.00  0.00    +0.281 C 
ATOM     31  N   UNL     1      -0.880  -2.532  24.885  0.00  0.00    -0.086 NA
ATOM     32  O   UNL     1      -0.748  -1.585  25.947  0.00  0.00    -0.270 OA
ENDBRANCH   5  30
BRANCH   5   4
ATOM      4  C   UNL     1      -2.255  -1.579  24.453  0.00  0.00    +0.031 C 
BRANCH   4   2
ATOM      1  C   UNL     1      -3.650  -1.296  24.325  0.00  0.00    +0.000 C 
ATOM      2  C   UNL     1      -2.995  -1.462  24.799  0.00  0.00    +0.002 C 
ATOM      3  C   UNL     1      -3.080  -1.511  25.618  0.00  0.00    +0.000 C 
ENDBRANCH   4   2
ENDBRANCH   5   4
ENDBRANCH   6   5
ENDBRANCH   9   7
TORSDOF 8
ENDMDL
MODEL 5
REMARK VINA RESULT:     -10.5      2.119      6.051
REMARK  Name = 
REMARK  8 active torsions:
REMARK  status: ('A' for Active; 'I' for Inactive)
REMARK    1  A    between atoms: C_2  and  C_4
REMARK    2  A    between atoms: C_4  and  C_5
REMARK    3  A    between atoms: C_5  and  N_6
REMARK    4  A    between atoms: C_5  and  C_30
REMARK    5  A    between atoms: C_7  and  C_9
REMARK    6  A    between atoms: C_11  and  N_12
REMARK    7  A    between atoms: N_15  and  C_16
REMARK    8  A    between atoms: C_19  and  C_22
REMARK                            x       y       z     vdW  Elec       q    Type
REMARK                         _______ _______ _______ _____ _____    ______ ____
ROOT
ATOM      9  C   UNL     1      -1.055  -0.704  24.611  0.00  0.00    +0.033 C 
ATOM     10  C   UNL     1      -0.776  -0.002  24.944  0.00  0.00    -0.002 C 
ATOM     11  C   UNL     1      -0.153   0.404  24.587  0.00  0.00    +0.152 C 
ATOM     25  C   UNL     1       0.191   0.109  23.899  0.00  0.00    +0.206 C 
ATOM     26  O   UNL     1       0.815   0.515  23.542  0.00  0.00    -0.218 OA
ATOM     27  C   UNL     1      -0.087  -0.593  23.566  0.00  0.00    +0.189 C 
ATOM     28  O   UNL     1       0.257  -0.888  22.877  0.00  0.00    -0.220 OA
ATOM     29  C   UNL     1      -0.711  -0.999  23.923  0.00  0.00    +0.066 C 
ENDROOT
BRANCH  11  12
ATOM     12  N   UNL     1       0.127   1.106  24.920  0.00  0.00    -0.181 NA
ATOM     13  C   UNL     1      -0.357   1.774  24.939  0.00  0.00    +0.344 C 
ATOM     14  O   UNL     1      -1.118   1.741  24.625  0.00  0.00    -0.249 OA
ATOM     15  N   UNL     1      -0.078   2.475  25.271  0.00  0.00    -0.161 NA
BRANCH  15  16
ATOM     16  C   UNL     1      -0.562   3.144  25.290  0.00  0.00    +0.075 A 
ATOM     17  C   UNL     1      -1.170   3.198  25.845  0.00  0.00    +0.017 A 
ATOM     18  C   UNL     1      -1.653   3.866  25.863  0.00  0.00    +0.004 A 
ATOM     19  C   UNL     1      -1.529   4.480  25.327  0.00  0.00    +0.035 A 
ATOM     20  C   UNL     1      -0.921   4.426  24.772  0.00  0.00    +0.004 A 
ATOM     21  C   UNL     1      -0.437   3.757  24.754  0.00  0.00    +0.017 A 
BRANCH  19  22
ATOM     22  C   UNL     1      -2.012   5.148  25.345  0.00  0.00    +0.173 C 
ATOM     23  C   UNL     1      -2.796   5.083  25.594  0.00  0.00    +0.077 C 
ATOM     24  O   UNL     1      -1.712   5.881  25.115  0.00  0.00    -0.291 OA
ENDBRANCH  19  22
ENDBRANCH  15  16
ENDBRANCH  11  12
BRANCH   9   7
ATOM      6  N   UNL     1      -2.453  -0.984  24.710  0.00  0.00    -0.194 NA
ATOM      7  C   UNL     1      -1.679  -1.109  24.968  0.00  0.00    +0.261 C 
ATOM      8  O   UNL     1      -1.529  -1.639  25.582  0.00  0.00    -0.269 OA
BRANCH   6   5
ATOM      5  C   UNL     1      -3.077  -1.389  25.067  0.00  0.00    +0.175 C 
BRANCH   5  30
ATOM     30  C   UNL     1      -3.519  -1.026  25.661  0.00  0.00    +0.281 C 
ATOM     31  N   UNL     1      -3.913  -0.319  25.507  0.00  0.00    -0.086 NA
ATOM     32  O   UNL     1      -3.567  -1.372  26.409  0.00  0.00    -0.270 OA
ENDBRANCH   5  30
BRANCH   5   4
ATOM      4  C   UNL     1      -3.257  -2.159  24.829  0.00  0.00    +0.031 C 
BRANCH   4   2
ATOM      1  C   UNL     1      -3.891  -3.045  23.904  0.00  0.00    +0.000 C 
ATOM      2  C   UNL     1      -3.786  -2.285  24.209  0.00  0.00    +0.002 C 
ATOM      3  C   UNL     1      -4.211  -1.652  23.893  0.00  0.00    +0.000 C 
ENDBRANCH   4   2
ENDBRANCH   5   4
ENDBRANCH   6   5
ENDBRANCH   9   7
TORSDOF 8
ENDMDL
