MODEL 1
REMARK VINA RESULT:     -11.3      0.000      0.000
REMARK  Name = 
REMARK  5 active torsions:
REMARK  status: ('A' for Active; 'I' for Inactive)
REMARK    1  A    between atoms: C_5  and  C_6
REMARK    2  A    between atoms: C_6  and  N_7
REMARK    3  A    between atoms: C_17  and  C_19
REMARK    4  A    between atoms: C_19  and  C_20
REMARK    5  A    between atoms: C_20  and  C_21
REMARK                            x       y       z     vdW  Elec       q    Type
REMARK                         _______ _______ _______ _____ _____    ______ ____
ROOT
ATOM      7  N   UNL     1      -4.198   0.527  24.718  0.00  0.00    -0.258 N 
ATOM      8  C   UNL     1      -3.385   0.619  24.614  0.00  0.00    +0.117 C 
ATOM      9  C   UNL     1      -3.201   1.415  24.729  0.00  0.00    +0.116 C 
ATOM     10  C   UNL     1      -2.487   1.827  24.697  0.00  0.00    +0.115 C 
ATOM     11  N   UNL     1      -2.474   2.640  24.841  0.00  0.00    -0.276 N 
ATOM     12  C   UNL     1      -3.173   3.040  25.016  0.00  0.00    +0.115 C 
ATOM     13  C   UNL     1      -3.887   2.627  25.047  0.00  0.00    +0.116 C 
ATOM     14  N   UNL     1      -3.901   1.815  24.904  0.00  0.00    -0.261 N 
ATOM     15  C   UNL     1      -4.517   1.266  24.897  0.00  0.00    +0.308 C 
ATOM     16  O   UNL     1      -5.313   1.428  25.044  0.00  0.00    -0.252 OA
ATOM     17  C   UNL     1      -1.760   3.052  24.809  0.00  0.00    +0.226 C 
ATOM     18  O   UNL     1      -1.060   2.652  24.634  0.00  0.00    -0.275 OA
ENDROOT
BRANCH   7   6
ATOM      6  C   UNL     1      -4.618  -0.180  24.653  0.00  0.00    +0.122 C 
BRANCH   6   5
ATOM      1  C   UNL     1      -3.008  -3.061  24.671  0.00  0.00    +0.031 C 
ATOM      2  C   UNL     1      -3.411  -2.340  24.667  0.00  0.00    -0.022 A 
ATOM      3  C   UNL     1      -3.480  -1.903  25.362  0.00  0.00    -0.005 A 
ATOM      4  C   UNL     1      -3.883  -1.183  25.357  0.00  0.00    -0.003 A 
ATOM      5  C   UNL     1      -4.216  -0.901  24.657  0.00  0.00    -0.002 A 
ATOM     24  C   UNL     1      -4.146  -1.339  23.962  0.00  0.00    -0.003 A 
ATOM     25  C   UNL     1      -3.744  -2.058  23.966  0.00  0.00    -0.005 A 
ENDBRANCH   6   5
ENDBRANCH   7   6
BRANCH  17  19
ATOM     19  C   UNL     1      -1.746   3.864  24.952  0.00  0.00    +0.097 C 
BRANCH  19  20
ATOM     20  C   UNL     1      -1.024   4.259  25.015  0.00  0.00    +0.124 C 
BRANCH  20  21
ATOM     21  C   UNL     1      -1.000   5.084  24.971  0.00  0.00    +0.365 C 
ATOM     22  O   UNL     1      -0.388   5.457  24.564  0.00  0.00    -0.246 OA
ATOM     23  O   UNL     1      -1.588   5.533  25.334  0.00  0.00    -0.246 OA
ENDBRANCH  20  21
ENDBRANCH  19  20
ENDBRANCH  17  19
TORSDOF 5
ENDMDL
MODEL 2
REMARK VINA RESULT:     -10.7      1.848      5.302
REMARK  Name = 
REMARK  5 active torsions:
REMARK  status: ('A' for Active; 'I' for Inactive)
REMARK    1  A    between atoms: C_5  and  C_6
REMARK    2  A    between atoms: C_6  and  N_7
REMARK    3  A    between atoms: C_17  and  C_19
REMARK    4  A    between atoms: C_19  and  C_20
REMARK    5  A    between atoms: C_20  and  C_21
REMARK                            x       y       z     vdW  Elec       q    Type
REMARK                         _______ _______ _______ _____ _____    ______ ____
ROOT
ATOM      7  N   UNL     1      -3.914   2.740  25.136  0.00  0.00    -0.258 N 
ATOM      8  C   UNL     1      -3.278   2.251  24.947  0.00  0.00    +0.117 C 
ATOM      9  C   UNL     1      -3.559   1.477  24.889  0.00  0.00    +0.116 C 
ATOM     10  C   UNL     1      -3.181   0.764  24.716  0.00  0.00    +0.115 C 
ATOM     11  N   UNL     1      -3.614   0.062  24.696  0.00  0.00    -0.276 N 
ATOM     12  C   UNL     1      -4.424   0.073  24.849  0.00  0.00    +0.115 C 
ATOM     13  C   UNL     1      -4.802   0.786  25.021  0.00  0.00    +0.116 C 
ATOM     14  N   UNL     1      -4.368   1.488  25.041  0.00  0.00    -0.261 N 
ATOM     15  C   UNL     1      -4.589   2.268  25.194  0.00  0.00    +0.308 C 
ATOM     16  O   UNL     1      -5.350   2.531  25.373  0.00  0.00    -0.252 OA
ATOM     17  C   UNL     1      -3.236  -0.651  24.524  0.00  0.00    +0.226 C 
ATOM     18  O   UNL     1      -2.425  -0.662  24.371  0.00  0.00    -0.275 OA
ENDROOT
BRANCH   7   6
ATOM      6  C   UNL     1      -3.882   3.557  25.247  0.00  0.00    +0.122 C 
BRANCH   6   5
ATOM      1  C   UNL     1      -0.984   5.127  25.100  0.00  0.00    +0.031 C 
ATOM      2  C   UNL     1      -1.709   4.734  25.137  0.00  0.00    -0.022 A 
ATOM      3  C   UNL     1      -2.153   4.624  24.451  0.00  0.00    -0.005 A 
ATOM      4  C   UNL     1      -2.877   4.231  24.488  0.00  0.00    -0.003 A 
ATOM      5  C   UNL     1      -3.157   3.949  25.211  0.00  0.00    -0.002 A 
ATOM     24  C   UNL     1      -2.713   4.060  25.896  0.00  0.00    -0.003 A 
ATOM     25  C   UNL     1      -1.989   4.452  25.860  0.00  0.00    -0.005 A 
ENDBRANCH   6   5
ENDBRANCH   7   6
BRANCH  17  19
ATOM     19  C   UNL     1      -3.669  -1.352  24.504  0.00  0.00    +0.097 C 
BRANCH  19  20
ATOM     20  C   UNL     1      -3.295  -2.063  24.313  0.00  0.00    +0.124 C 
BRANCH  20  21
ATOM     21  C   UNL     1      -3.698  -2.778  24.400  0.00  0.00    +0.365 C 
ATOM     22  O   UNL     1      -4.215  -3.034  23.811  0.00  0.00    -0.246 OA
ATOM     23  O   UNL     1      -3.584  -3.236  25.076  0.00  0.00    -0.246 OA
ENDBRANCH  20  21
ENDBRANCH  19  20
ENDBRANCH  17  19
TORSDOF 5
ENDMDL
MODEL 3
REMARK VINA RESULT:     -10.4      2.042      5.733
REMARK  Name = 
REMARK  5 active torsions:
REMARK  status: ('A' for Active; 'I' for Inactive)
REMARK    1  A    between atoms: C_5  and  C_6
REMARK    2  A    between atoms: C_6  and  N_7
REMARK    3  A    between atoms: C_17  and  C_19
REMARK    4  A    between atoms: C_19  and  C_20
REMARK    5  A    between atoms: C_20  and  C_21
REMARK                            x       y       z     vdW  Elec       q    Type
REMARK                         _______ _______ _______ _____ _____    ______ ____
ROOT
ATOM      7  N   UNL     1      -0.664   1.789  25.173  0.00  0.00    -0.258 N 
ATOM      8  C   UNL     1      -1.427   1.623  25.438  0.00  0.00    +0.117 C 
ATOM      9  C   UNL     1      -1.641   0.879  25.150  0.00  0.00    +0.116 C 
ATOM     10  C   UNL     1      -2.329   0.433  25.235  0.00  0.00    +0.115 C 
ATOM     11  N   UNL     1      -2.386  -0.308  24.875  0.00  0.00    -0.276 N 
ATOM     12  C   UNL     1      -1.756  -0.601  24.432  0.00  0.00    +0.115 C 
ATOM     13  C   UNL     1      -1.068  -0.153  24.347  0.00  0.00    +0.116 C 
ATOM     14  N   UNL     1      -1.011   0.587  24.707  0.00  0.00    -0.261 N 
ATOM     15  C   UNL     1      -0.407   1.149  24.720  0.00  0.00    +0.308 C 
ATOM     16  O   UNL     1       0.326   1.082  24.347  0.00  0.00    -0.252 OA
ATOM     17  C   UNL     1      -3.074  -0.755  24.960  0.00  0.00    +0.226 C 
ATOM     18  O   UNL     1      -3.705  -0.462  25.404  0.00  0.00    -0.275 OA
ENDROOT
BRANCH   7   6
ATOM      6  C   UNL     1      -0.233   2.475  25.331  0.00  0.00    +0.122 C 
BRANCH   6   5
ATOM      1  C   UNL     1      -1.682   5.428  25.065  0.00  0.00    +0.031 C 
ATOM      2  C   UNL     1      -1.320   4.689  25.132  0.00  0.00    -0.022 A 
ATOM      3  C   UNL     1      -0.797   4.432  24.548  0.00  0.00    -0.005 A 
ATOM      4  C   UNL     1      -0.436   3.694  24.615  0.00  0.00    -0.003 A 
ATOM      5  C   UNL     1      -0.596   3.213  25.265  0.00  0.00    -0.002 A 
ATOM     24  C   UNL     1      -1.118   3.470  25.849  0.00  0.00    -0.003 A 
ATOM     25  C   UNL     1      -1.480   4.208  25.783  0.00  0.00    -0.005 A 
ENDBRANCH   6   5
ENDBRANCH   7   6
BRANCH  17  19
ATOM     19  C   UNL     1      -3.131  -1.495  24.601  0.00  0.00    +0.097 C 
BRANCH  19  20
ATOM     20  C   UNL     1      -3.833  -1.927  24.654  0.00  0.00    +0.124 C 
BRANCH  20  21
ATOM     21  C   UNL     1      -3.916  -2.633  24.234  0.00  0.00    +0.365 C 
ATOM     22  O   UNL     1      -3.552  -3.320  24.508  0.00  0.00    -0.246 OA
ATOM     23  O   UNL     1      -4.363  -2.650  23.542  0.00  0.00    -0.246 OA
ENDBRANCH  20  21
ENDBRANCH  19  20
ENDBRANCH  17  19
TORSDOF 5
ENDMDL
MODEL 4
REMARK VINA RESULT:     -10.0      1.541      2.290
REMARK  Name = 
REMARK  5 active torsions:
REMARK  status: ('A' for Active; 'I' for Inactive)
REMARK    1  A    between atoms: C_5  and  C_6
REMARK    2  A    between atoms: C_6  and  N_7
REMARK    3  A    between atoms: C_17  and  C_19
REMARK    4  A    between atoms: C_19  and  C_20
REMARK    5  A    between atoms: C_20  and  C_21
REMARK                            x       y       z     vdW  Elec       q    Type
REMARK                         _______ _______ _______ _____ _____    ______ ____
ROOT
ATOM      7  N   UNL     1      -1.505  -0.527  25.292  0.00  0.00    -0.258 N 
ATOM      8  C   UNL     1      -2.077   0.048  25.439  0.00  0.00    +0.117 C 
ATOM      9  C   UNL     1      -1.735   0.788  25.310  0.00  0.00    +0.116 C 
ATOM     10  C   UNL     1      -2.036   1.553  25.371  0.00  0.00    +0.115 C 
ATOM     11  N   UNL     1      -1.552   2.201  25.204  0.00  0.00    -0.276 N 
ATOM     12  C   UNL     1      -0.769   2.083  24.977  0.00  0.00    +0.115 C 
ATOM     13  C   UNL     1      -0.467   1.316  24.916  0.00  0.00    +0.116 C 
ATOM     14  N   UNL     1      -0.951   0.670  25.083  0.00  0.00    -0.261 N 
ATOM     15  C   UNL     1      -0.809  -0.143  25.072  0.00  0.00    +0.308 C 
ATOM     16  O   UNL     1      -0.096  -0.508  24.874  0.00  0.00    -0.252 OA
ATOM     17  C   UNL     1      -1.853   2.967  25.264  0.00  0.00    +0.226 C 
ATOM     18  O   UNL     1      -2.637   3.085  25.492  0.00  0.00    -0.275 OA
ENDROOT
BRANCH   7   6
ATOM      6  C   UNL     1      -1.611  -1.343  25.353  0.00  0.00    +0.122 C 
BRANCH   6   5
ATOM      1  C   UNL     1      -4.283  -2.763  24.037  0.00  0.00    +0.031 C 
ATOM      2  C   UNL     1      -3.615  -2.408  24.367  0.00  0.00    -0.022 A 
ATOM      3  C   UNL     1      -2.898  -2.421  23.958  0.00  0.00    -0.005 A 
ATOM      4  C   UNL     1      -2.231  -2.065  24.288  0.00  0.00    -0.003 A 
ATOM      5  C   UNL     1      -2.279  -1.698  25.025  0.00  0.00    -0.002 A 
ATOM     24  C   UNL     1      -2.996  -1.686  25.432  0.00  0.00    -0.003 A 
ATOM     25  C   UNL     1      -3.663  -2.040  25.104  0.00  0.00    -0.005 A 
ENDBRANCH   6   5
ENDBRANCH   7   6
BRANCH  17  19
ATOM     19  C   UNL     1      -1.369   3.614  25.097  0.00  0.00    +0.097 C 
BRANCH  19  20
ATOM     20  C   UNL     1      -1.697   4.369  25.039  0.00  0.00    +0.124 C 
BRANCH  20  21
ATOM     21  C   UNL     1      -1.204   5.029  24.974  0.00  0.00    +0.365 C 
ATOM     22  O   UNL     1      -1.459   5.762  25.254  0.00  0.00    -0.246 OA
ATOM     23  O   UNL     1      -0.459   4.954  24.631  0.00  0.00    -0.246 OA
ENDBRANCH  20  21
ENDBRANCH  19  20
ENDBRANCH  17  19
TORSDOF 5
ENDMDL
MODEL 5
REMARK VINA RESULT:      -9.4      3.261      3.906
REMARK  Name = 
REMARK  5 active torsions:
REMARK  status: ('A' for Active; 'I' for Inactive)
REMARK    1  A    between atoms: C_5  and  C_6
REMARK    2  A    between atoms: C_6  and  N_7
REMARK    3  A    between atoms: C_17  and  C_19
REMARK    4  A    between atoms: C_19  and  C_20
REMARK    5  A    between atoms: C_20  and  C_21
REMARK                            x       y       z     vdW  Elec       q    Type
REMARK                         _______ _______ _______ _____ _____    ______ ____
ROOT
ATOM      7  N   UNL     1      -1.806   0.420  24.742  0.00  0.00    -0.258 N 
ATOM      8  C   UNL     1      -1.391  -0.122  24.279  0.00  0.00    +0.117 C 
ATOM      9  C   UNL     1      -0.658   0.209  24.094  0.00  0.00    +0.116 C 
ATOM     10  C   UNL     1      -0.021  -0.074  23.653  0.00  0.00    +0.115 C 
ATOM     11  N   UNL     1       0.656   0.390  23.562  0.00  0.00    -0.276 N 
ATOM     12  C   UNL     1       0.694   1.136  23.910  0.00  0.00    +0.115 C 
ATOM     13  C   UNL     1       0.056   1.419  24.352  0.00  0.00    +0.116 C 
ATOM     14  N   UNL     1      -0.619   0.954  24.443  0.00  0.00    -0.261 N 
ATOM     15  C   UNL     1      -1.329   1.085  24.844  0.00  0.00    +0.308 C 
ATOM     16  O   UNL     1      -1.526   1.763  25.271  0.00  0.00    -0.252 OA
ATOM     17  C   UNL     1       1.293   0.107  23.120  0.00  0.00    +0.226 C 
ATOM     18  O   UNL     1       1.254  -0.639  22.771  0.00  0.00    -0.275 OA
ENDROOT
BRANCH   7   6
ATOM      6  C   UNL     1      -2.564   0.315  25.050  0.00  0.00    +0.122 C 
BRANCH   6   5
ATOM      1  C   UNL     1      -4.444  -2.179  23.984  0.00  0.00    +0.031 C 
ATOM      2  C   UNL     1      -3.974  -1.555  24.251  0.00  0.00    -0.022 A 
ATOM      3  C   UNL     1      -3.483  -1.659  24.905  0.00  0.00    -0.005 A 
ATOM      4  C   UNL     1      -3.013  -1.035  25.171  0.00  0.00    -0.003 A 
ATOM      5  C   UNL     1      -3.034  -0.308  24.783  0.00  0.00    -0.002 A 
ATOM     24  C   UNL     1      -3.525  -0.204  24.129  0.00  0.00    -0.003 A 
ATOM     25  C   UNL     1      -3.995  -0.827  23.863  0.00  0.00    -0.005 A 
ENDBRANCH   6   5
ENDBRANCH   7   6
BRANCH  17  19
ATOM     19  C   UNL     1       1.968   0.571  23.029  0.00  0.00    +0.097 C 
BRANCH  19  20
ATOM     20  C   UNL     1       2.671   0.229  22.763  0.00  0.00    +0.124 C 
BRANCH  20  21
ATOM     21  C   UNL     1       3.330   0.703  22.612  0.00  0.00    +0.365 C 
ATOM     22  O   UNL     1       3.748   1.039  23.238  0.00  0.00    -0.246 OA
ATOM     23  O   UNL     1       3.569   0.841  21.835  0.00  0.00    -0.246 OA
ENDBRANCH  20  21
ENDBRANCH  19  20
ENDBRANCH  17  19
TORSDOF 5
ENDMDL
MODEL 6
REMARK VINA RESULT:      -8.8      2.600      4.273
REMARK  Name = 
REMARK  5 active torsions:
REMARK  status: ('A' for Active; 'I' for Inactive)
REMARK    1  A    between atoms: C_5  and  C_6
REMARK    2  A    between atoms: C_6  and  N_7
REMARK    3  A    between atoms: C_17  and  C_19
REMARK    4  A    between atoms: C_19  and  C_20
REMARK    5  A    between atoms: C_20  and  C_21
REMARK                            x       y       z     vdW  Elec       q    Type
REMARK                         _______ _______ _______ _____ _____    ______ ____
ROOT
ATOM      7  N   UNL     1      -2.566   2.919  24.952  0.00  0.00    -0.258 N 
ATOM      8  C   UNL     1      -2.513   2.104  24.843  0.00  0.00    +0.117 C 
ATOM      9  C   UNL     1      -1.762   1.934  24.545  0.00  0.00    +0.116 C 
ATOM     10  C   UNL     1      -1.400   1.224  24.332  0.00  0.00    +0.115 C 
ATOM     11  N   UNL     1      -0.626   1.226  24.045  0.00  0.00    -0.276 N 
ATOM     12  C   UNL     1      -0.216   1.936  23.970  0.00  0.00    +0.115 C 
ATOM     13  C   UNL     1      -0.578   2.647  24.183  0.00  0.00    +0.116 C 
ATOM     14  N   UNL     1      -1.351   2.645  24.471  0.00  0.00    -0.261 N 
ATOM     15  C   UNL     1      -1.848   3.254  24.722  0.00  0.00    +0.308 C 
ATOM     16  O   UNL     1      -1.660   4.057  24.741  0.00  0.00    -0.252 OA
ATOM     17  C   UNL     1      -0.264   0.516  23.832  0.00  0.00    +0.226 C 
ATOM     18  O   UNL     1      -0.675  -0.196  23.907  0.00  0.00    -0.275 OA
ENDROOT
BRANCH   7   6
ATOM      6  C   UNL     1      -3.222   3.328  25.241  0.00  0.00    +0.122 C 
BRANCH   6   5
ATOM      1  C   UNL     1      -6.233   2.002  24.987  0.00  0.00    +0.031 C 
ATOM      2  C   UNL     1      -5.480   2.334  25.051  0.00  0.00    -0.022 A 
ATOM      3  C   UNL     1      -5.090   2.604  24.376  0.00  0.00    -0.005 A 
ATOM      4  C   UNL     1      -4.338   2.936  24.440  0.00  0.00    -0.003 A 
ATOM      5  C   UNL     1      -3.975   2.996  25.178  0.00  0.00    -0.002 A 
ATOM     24  C   UNL     1      -4.364   2.726  25.852  0.00  0.00    -0.003 A 
ATOM     25  C   UNL     1      -5.117   2.395  25.789  0.00  0.00    -0.005 A 
ENDBRANCH   6   5
ENDBRANCH   7   6
BRANCH  17  19
ATOM     19  C   UNL     1       0.509   0.518  23.545  0.00  0.00    +0.097 C 
BRANCH  19  20
ATOM     20  C   UNL     1       0.822  -0.163  23.199  0.00  0.00    +0.124 C 
BRANCH  20  21
ATOM     21  C   UNL     1       1.500  -0.114  22.730  0.00  0.00    +0.365 C 
ATOM     22  O   UNL     1       1.444  -0.214  21.914  0.00  0.00    -0.246 OA
ATOM     23  O   UNL     1       2.232   0.036  23.078  0.00  0.00    -0.246 OA
ENDBRANCH  20  21
ENDBRANCH  19  20
ENDBRANCH  17  19
TORSDOF 5
ENDMDL
MODEL 7
REMARK VINA RESULT:      -8.3      3.066      4.149
REMARK  Name = 
REMARK  5 active torsions:
REMARK  status: ('A' for Active; 'I' for Inactive)
REMARK    1  A    between atoms: C_5  and  C_6
REMARK    2  A    between atoms: C_6  and  N_7
REMARK    3  A    between atoms: C_17  and  C_19
REMARK    4  A    between atoms: C_19  and  C_20
REMARK    5  A    between atoms: C_20  and  C_21
REMARK                            x       y       z     vdW  Elec       q    Type
REMARK                         _______ _______ _______ _____ _____    ______ ____
ROOT
ATOM      7  N   UNL     1      -2.534  -0.417  25.088  0.00  0.00    -0.258 N 
ATOM      8  C   UNL     1      -2.107   0.252  24.865  0.00  0.00    +0.117 C 
ATOM      9  C   UNL     1      -1.402   0.001  24.517  0.00  0.00    +0.116 C 
ATOM     10  C   UNL     1      -0.768   0.418  24.194  0.00  0.00    +0.115 C 
ATOM     11  N   UNL     1      -0.124   0.009  23.879  0.00  0.00    -0.276 N 
ATOM     12  C   UNL     1      -0.115  -0.815  23.887  0.00  0.00    +0.115 C 
ATOM     13  C   UNL     1      -0.751  -1.232  24.211  0.00  0.00    +0.116 C 
ATOM     14  N   UNL     1      -1.394  -0.823  24.525  0.00  0.00    -0.261 N 
ATOM     15  C   UNL     1      -2.093  -1.081  24.878  0.00  0.00    +0.308 C 
ATOM     16  O   UNL     1      -2.313  -1.868  25.000  0.00  0.00    -0.252 OA
ATOM     17  C   UNL     1       0.511   0.425  23.556  0.00  0.00    +0.226 C 
ATOM     18  O   UNL     1       0.502   1.250  23.548  0.00  0.00    -0.275 OA
ENDROOT
BRANCH   7   6
ATOM      6  C   UNL     1      -3.273  -0.421  25.457  0.00  0.00    +0.122 C 
BRANCH   6   5
ATOM      1  C   UNL     1      -5.548   1.816  24.613  0.00  0.00    +0.031 C 
ATOM      2  C   UNL     1      -4.978   1.256  24.825  0.00  0.00    -0.022 A 
ATOM      3  C   UNL     1      -4.995   0.504  24.487  0.00  0.00    -0.005 A 
ATOM      4  C   UNL     1      -4.427  -0.055  24.698  0.00  0.00    -0.003 A 
ATOM      5  C   UNL     1      -3.841   0.139  25.246  0.00  0.00    -0.002 A 
ATOM     24  C   UNL     1      -3.825   0.891  25.583  0.00  0.00    -0.003 A 
ATOM     25  C   UNL     1      -4.393   1.450  25.373  0.00  0.00    -0.005 A 
ENDBRANCH   6   5
ENDBRANCH   7   6
BRANCH  17  19
ATOM     19  C   UNL     1       1.154   0.016  23.241  0.00  0.00    +0.097 C 
BRANCH  19  20
ATOM     20  C   UNL     1       1.793   0.432  22.926  0.00  0.00    +0.124 C 
BRANCH  20  21
ATOM     21  C   UNL     1       2.388   0.029  22.519  0.00  0.00    +0.365 C 
ATOM     22  O   UNL     1       2.318  -0.098  21.707  0.00  0.00    -0.246 OA
ATOM     23  O   UNL     1       3.051  -0.246  22.924  0.00  0.00    -0.246 OA
ENDBRANCH  20  21
ENDBRANCH  19  20
ENDBRANCH  17  19
TORSDOF 5
ENDMDL
MODEL 8
REMARK VINA RESULT:      -7.5      2.113      3.282
REMARK  Name = 
REMARK  5 active torsions:
REMARK  status: ('A' for Active; 'I' for Inactive)
REMARK    1  A    between atoms: C_5  and  C_6
REMARK    2  A    between atoms: C_6  and  N_7
REMARK    3  A    between atoms: C_17  and  C_19
REMARK    4  A    between atoms: C_19  and  C_20
REMARK    5  A    between atoms: C_20  and  C_21
REMARK                            x       y       z     vdW  Elec       q    Type
REMARK                         _______ _______ _______ _____ _____    ______ ____
ROOT
ATOM      7  N   UNL     1      -1.152   1.124  24.912  0.00  0.00    -0.258 N 
ATOM      8  C   UNL     1      -1.904   1.006  24.595  0.00  0.00    +0.117 C 
ATOM      9  C   UNL     1      -2.375   1.649  24.810  0.00  0.00    +0.116 C 
ATOM     10  C   UNL     1      -3.165   1.831  24.654  0.00  0.00    +0.115 C 
ATOM     11  N   UNL     1      -3.493   2.529  24.948  0.00  0.00    -0.276 N 
ATOM     12  C   UNL     1      -3.031   3.044  25.397  0.00  0.00    +0.115 C 
ATOM     13  C   UNL     1      -2.241   2.862  25.552  0.00  0.00    +0.116 C 
ATOM     14  N   UNL     1      -1.914   2.164  25.259  0.00  0.00    -0.261 N 
ATOM     15  C   UNL     1      -1.158   1.840  25.322  0.00  0.00    +0.308 C 
ATOM     16  O   UNL     1      -0.519   2.173  25.724  0.00  0.00    -0.252 OA
ATOM     17  C   UNL     1      -4.282   2.711  24.792  0.00  0.00    +0.226 C 
ATOM     18  O   UNL     1      -4.744   2.195  24.343  0.00  0.00    -0.275 OA
ENDROOT
BRANCH   7   6
ATOM      6  C   UNL     1      -0.507   0.616  24.832  0.00  0.00    +0.122 C 
BRANCH   6   5
ATOM      1  C   UNL     1      -0.976  -2.651  24.815  0.00  0.00    +0.031 C 
ATOM      2  C   UNL     1      -0.859  -1.833  24.819  0.00  0.00    -0.022 A 
ATOM      3  C   UNL     1      -0.911  -1.413  25.527  0.00  0.00    -0.005 A 
ATOM      4  C   UNL     1      -0.793  -0.597  25.531  0.00  0.00    -0.003 A 
ATOM      5  C   UNL     1      -0.624  -0.201  24.827  0.00  0.00    -0.002 A 
ATOM     24  C   UNL     1      -0.572  -0.621  24.120  0.00  0.00    -0.003 A 
ATOM     25  C   UNL     1      -0.689  -1.437  24.115  0.00  0.00    -0.005 A 
ENDBRANCH   6   5
ENDBRANCH   7   6
BRANCH  17  19
ATOM     19  C   UNL     1      -4.609   3.409  25.086  0.00  0.00    +0.097 C 
BRANCH  19  20
ATOM     20  C   UNL     1      -5.424   3.532  25.042  0.00  0.00    +0.124 C 
BRANCH  20  21
ATOM     21  C   UNL     1      -5.789   4.068  25.554  0.00  0.00    +0.365 C 
ATOM     22  O   UNL     1      -6.150   3.797  26.244  0.00  0.00    -0.246 OA
ATOM     23  O   UNL     1      -5.791   4.873  25.375  0.00  0.00    -0.246 OA
ENDBRANCH  20  21
ENDBRANCH  19  20
ENDBRANCH  17  19
TORSDOF 5
ENDMDL
MODEL 9
REMARK VINA RESULT:      -7.4      2.232      5.177
REMARK  Name = 
REMARK  5 active torsions:
REMARK  status: ('A' for Active; 'I' for Inactive)
REMARK    1  A    between atoms: C_5  and  C_6
REMARK    2  A    between atoms: C_6  and  N_7
REMARK    3  A    between atoms: C_17  and  C_19
REMARK    4  A    between atoms: C_19  and  C_20
REMARK    5  A    between atoms: C_20  and  C_21
REMARK                            x       y       z     vdW  Elec       q    Type
REMARK                         _______ _______ _______ _____ _____    ______ ____
ROOT
ATOM      7  N   UNL     1      -2.419   2.664  24.881  0.00  0.00    -0.258 N 
ATOM      8  C   UNL     1      -2.926   2.019  24.799  0.00  0.00    +0.117 C 
ATOM      9  C   UNL     1      -2.467   1.334  24.782  0.00  0.00    +0.116 C 
ATOM     10  C   UNL     1      -2.668   0.537  24.711  0.00  0.00    +0.115 C 
ATOM     11  N   UNL     1      -2.076  -0.039  24.711  0.00  0.00    -0.276 N 
ATOM     12  C   UNL     1      -1.286   0.182  24.783  0.00  0.00    +0.115 C 
ATOM     13  C   UNL     1      -1.085   0.980  24.854  0.00  0.00    +0.116 C 
ATOM     14  N   UNL     1      -1.676   1.555  24.854  0.00  0.00    -0.261 N 
ATOM     15  C   UNL     1      -1.646   2.377  24.915  0.00  0.00    +0.308 C 
ATOM     16  O   UNL     1      -0.963   2.833  24.995  0.00  0.00    -0.252 OA
ATOM     17  C   UNL     1      -2.277  -0.836  24.640  0.00  0.00    +0.226 C 
ATOM     18  O   UNL     1      -3.069  -1.057  24.568  0.00  0.00    -0.275 OA
ENDROOT
BRANCH   7   6
ATOM      6  C   UNL     1      -2.644   3.457  24.922  0.00  0.00    +0.122 C 
BRANCH   6   5
ATOM      1  C   UNL     1      -5.780   4.246  25.583  0.00  0.00    +0.031 C 
ATOM      2  C   UNL     1      -4.995   4.048  25.418  0.00  0.00    -0.022 A 
ATOM      3  C   UNL     1      -4.748   3.964  24.636  0.00  0.00    -0.005 A 
ATOM      4  C   UNL     1      -3.964   3.767  24.471  0.00  0.00    -0.003 A 
ATOM      5  C   UNL     1      -3.428   3.654  25.088  0.00  0.00    -0.002 A 
ATOM     24  C   UNL     1      -3.676   3.739  25.870  0.00  0.00    -0.003 A 
ATOM     25  C   UNL     1      -4.459   3.936  26.035  0.00  0.00    -0.005 A 
ENDBRANCH   6   5
ENDBRANCH   7   6
BRANCH  17  19
ATOM     19  C   UNL     1      -1.686  -1.411  24.640  0.00  0.00    +0.097 C 
BRANCH  19  20
ATOM     20  C   UNL     1      -1.889  -2.211  24.657  0.00  0.00    +0.124 C 
BRANCH  20  21
ATOM     21  C   UNL     1      -1.314  -2.786  24.515  0.00  0.00    +0.365 C 
ATOM     22  O   UNL     1      -0.803  -3.016  25.121  0.00  0.00    -0.246 OA
ATOM     23  O   UNL     1      -1.250  -3.130  23.769  0.00  0.00    -0.246 OA
ENDBRANCH  20  21
ENDBRANCH  19  20
ENDBRANCH  17  19
TORSDOF 5
ENDMDL
MODEL 10
REMARK VINA RESULT:      -7.3      2.010      2.951
REMARK  Name = 
REMARK  5 active torsions:
REMARK  status: ('A' for Active; 'I' for Inactive)
REMARK    1  A    between atoms: C_5  and  C_6
REMARK    2  A    between atoms: C_6  and  N_7
REMARK    3  A    between atoms: C_17  and  C_19
REMARK    4  A    between atoms: C_19  and  C_20
REMARK    5  A    between atoms: C_20  and  C_21
REMARK                            x       y       z     vdW  Elec       q    Type
REMARK                         _______ _______ _______ _____ _____    ______ ____
ROOT
ATOM      7  N   UNL     1      -3.189  -0.732  24.187  0.00  0.00    -0.258 N 
ATOM      8  C   UNL     1      -2.870   0.015  24.327  0.00  0.00    +0.117 C 
ATOM      9  C   UNL     1      -3.488   0.524  24.524  0.00  0.00    +0.116 C 
ATOM     10  C   UNL     1      -3.502   1.326  24.717  0.00  0.00    +0.115 C 
ATOM     11  N   UNL     1      -4.219   1.696  24.893  0.00  0.00    -0.276 N 
ATOM     12  C   UNL     1      -4.921   1.263  24.876  0.00  0.00    +0.115 C 
ATOM     13  C   UNL     1      -4.906   0.461  24.682  0.00  0.00    +0.116 C 
ATOM     14  N   UNL     1      -4.190   0.092  24.507  0.00  0.00    -0.261 N 
ATOM     15  C   UNL     1      -4.005  -0.685  24.298  0.00  0.00    +0.308 C 
ATOM     16  O   UNL     1      -4.543  -1.306  24.216  0.00  0.00    -0.252 OA
ATOM     17  C   UNL     1      -4.233   2.497  25.086  0.00  0.00    +0.226 C 
ATOM     18  O   UNL     1      -3.531   2.930  25.103  0.00  0.00    -0.275 OA
ENDROOT
BRANCH   7   6
ATOM      6  C   UNL     1      -2.767  -1.409  23.974  0.00  0.00    +0.122 C 
BRANCH   6   5
ATOM      1  C   UNL     1       0.077  -2.121  25.488  0.00  0.00    +0.031 C 
ATOM      2  C   UNL     1      -0.634  -1.942  25.109  0.00  0.00    -0.022 A 
ATOM      3  C   UNL     1      -1.335  -2.297  25.361  0.00  0.00    -0.005 A 
ATOM      4  C   UNL     1      -2.046  -2.119  24.982  0.00  0.00    -0.003 A 
ATOM      5  C   UNL     1      -2.056  -1.586  24.352  0.00  0.00    -0.002 A 
ATOM     24  C   UNL     1      -1.355  -1.232  24.101  0.00  0.00    -0.003 A 
ATOM     25  C   UNL     1      -0.644  -1.410  24.479  0.00  0.00    -0.005 A 
ENDBRANCH   6   5
ENDBRANCH   7   6
BRANCH  17  19
ATOM     19  C   UNL     1      -4.950   2.866  25.262  0.00  0.00    +0.097 C 
BRANCH  19  20
ATOM     20  C   UNL     1      -4.959   3.656  25.501  0.00  0.00    +0.124 C 
BRANCH  20  21
ATOM     21  C   UNL     1      -5.677   4.027  25.670  0.00  0.00    +0.365 C 
ATOM     22  O   UNL     1      -6.238   3.646  26.140  0.00  0.00    -0.246 OA
ATOM     23  O   UNL     1      -5.833   4.778  25.370  0.00  0.00    -0.246 OA
ENDBRANCH  20  21
ENDBRANCH  19  20
ENDBRANCH  17  19
TORSDOF 5
ENDMDL
