MODEL 1
REMARK VINA RESULT:     -10.0      0.000      0.000
REMARK  Name = 
REMARK  7 active torsions:
REMARK  status: ('A' for Active; 'I' for Inactive)
REMARK    1  A    between atoms: C_2  and  N_3
REMARK    2  A    between atoms: C_4  and  O_6
REMARK    3  A    between atoms: O_6  and  C_7
REMARK    4  A    between atoms: C_11  and  N_15
REMARK    5  A    between atoms: N_18  and  C_19
REMARK    6  A    between atoms: C_22  and  O_23
REMARK    7  A    between atoms: O_23  and  C_24
REMARK                            x       y       z     vdW  Elec       q    Type
REMARK                         _______ _______ _______ _____ _____    ______ ____
ROOT
ATOM     15  N   UNL     1      -0.766  -0.227  24.138  0.00  0.00    -0.184 NA
ATOM     16  C   UNL     1      -1.515   0.105  24.235  0.00  0.00    +0.344 C 
ATOM     17  O   UNL     1      -1.610   0.924  24.202  0.00  0.00    -0.249 OA
ATOM     18  N   UNL     1      -2.168  -0.381  24.364  0.00  0.00    -0.161 NA
ENDROOT
BRANCH  15  11
ATOM      7  C   UNL     1       1.712   0.540  23.095  0.00  0.00    +0.229 C 
ATOM      8  C   UNL     1       1.597  -0.212  22.776  0.00  0.00    +0.188 C 
ATOM      9  O   UNL     1       0.873  -0.496  23.050  0.00  0.00    -0.348 OA
ATOM     10  C   UNL     1       0.541   0.079  23.538  0.00  0.00    +0.168 C 
ATOM     11  C   UNL     1      -0.112   0.260  24.009  0.00  0.00    +0.156 C 
ATOM     12  C   UNL     1       0.003   1.011  24.328  0.00  0.00    +0.166 C 
ATOM     13  O   UNL     1       0.727   1.296  24.055  0.00  0.00    -0.348 OA
ATOM     14  C   UNL     1       1.060   0.720  23.566  0.00  0.00    +0.186 C 
BRANCH   7   6
ATOM      6  O   UNL     1       2.366   1.027  22.966  0.00  0.00    -0.432 OA
BRANCH   6   4
ATOM      3  N   UNL     1       3.752   0.759  23.190  0.00  0.00    -0.169 NA
ATOM      4  C   UNL     1       3.081   0.700  22.714  0.00  0.00    +0.421 C 
ATOM      5  O   UNL     1       3.123   0.314  21.986  0.00  0.00    -0.225 OA
BRANCH   3   2
ATOM      1  C   UNL     1       5.120   0.431  23.441  0.00  0.00    +0.025 C 
ATOM      2  C   UNL     1       4.466   0.432  22.938  0.00  0.00    +0.119 C 
ENDBRANCH   3   2
ENDBRANCH   6   4
ENDBRANCH   7   6
ENDBRANCH  15  11
BRANCH  18  19
ATOM     19  C   UNL     1      -2.918  -0.049  24.460  0.00  0.00    +0.075 A 
ATOM     20  C   UNL     1      -3.305   0.290  23.816  0.00  0.00    +0.020 A 
ATOM     21  C   UNL     1      -4.053   0.621  23.911  0.00  0.00    +0.039 A 
ATOM     22  C   UNL     1      -4.416   0.614  24.653  0.00  0.00    +0.145 A 
ATOM     30  C   UNL     1      -4.029   0.275  25.298  0.00  0.00    +0.039 A 
ATOM     31  C   UNL     1      -3.279  -0.056  25.201  0.00  0.00    +0.020 A 
BRANCH  22  23
ATOM     23  O   UNL     1      -5.164   0.946  24.750  0.00  0.00    -0.453 OA
BRANCH  23  24
ATOM     24  C   UNL     1      -5.240   1.718  25.031  0.00  0.00    +0.145 A 
ATOM     25  C   UNL     1      -4.956   2.350  24.583  0.00  0.00    +0.037 A 
ATOM     26  C   UNL     1      -5.032   3.122  24.865  0.00  0.00    +0.003 A 
ATOM     27  C   UNL     1      -5.392   3.261  25.594  0.00  0.00    +0.000 A 
ATOM     28  C   UNL     1      -5.675   2.629  26.042  0.00  0.00    +0.003 A 
ATOM     29  C   UNL     1      -5.599   1.858  25.761  0.00  0.00    +0.037 A 
ENDBRANCH  23  24
ENDBRANCH  22  23
ENDBRANCH  18  19
TORSDOF 7
ENDMDL
MODEL 2
REMARK VINA RESULT:      -9.0      1.861      2.755
REMARK  Name = 
REMARK  7 active torsions:
REMARK  status: ('A' for Active; 'I' for Inactive)
REMARK    1  A    between atoms: C_2  and  N_3
REMARK    2  A    between atoms: C_4  and  O_6
REMARK    3  A    between atoms: O_6  and  C_7
REMARK    4  A    between atoms: C_11  and  N_15
REMARK    5  A    between atoms: N_18  and  C_19
REMARK    6  A    between atoms: C_22  and  O_23
REMARK    7  A    between atoms: O_23  and  C_24
REMARK                            x       y       z     vdW  Elec       q    Type
REMARK                         _______ _______ _______ _____ _____    ______ ____
ROOT
ATOM     15  N   UNL     1       0.417   1.057  23.540  0.00  0.00    -0.184 NA
ATOM     16  C   UNL     1      -0.254   0.648  23.789  0.00  0.00    +0.344 C 
ATOM     17  O   UNL     1      -0.278  -0.175  23.738  0.00  0.00    -0.249 OA
ATOM     18  N   UNL     1      -0.902   1.060  24.089  0.00  0.00    -0.161 NA
ENDROOT
BRANCH  15  11
ATOM      7  C   UNL     1       3.087   0.593  22.853  0.00  0.00    +0.229 C 
ATOM      8  C   UNL     1       3.106   1.348  23.185  0.00  0.00    +0.188 C 
ATOM      9  O   UNL     1       2.338   1.545  23.411  0.00  0.00    -0.348 OA
ATOM     10  C   UNL     1       1.845   0.913  23.219  0.00  0.00    +0.168 C 
ATOM     11  C   UNL     1       1.065   0.643  23.239  0.00  0.00    +0.156 C 
ATOM     12  C   UNL     1       1.047  -0.111  22.908  0.00  0.00    +0.166 C 
ATOM     13  O   UNL     1       1.815  -0.309  22.682  0.00  0.00    -0.348 OA
ATOM     14  C   UNL     1       2.308   0.324  22.874  0.00  0.00    +0.186 C 
BRANCH   7   6
ATOM      6  O   UNL     1       3.736   0.179  22.553  0.00  0.00    -0.432 OA
BRANCH   6   4
ATOM      3  N   UNL     1       4.774  -0.353  23.377  0.00  0.00    -0.169 NA
ATOM      4  C   UNL     1       4.476   0.256  22.909  0.00  0.00    +0.421 C 
ATOM      5  O   UNL     1       4.918   0.945  22.797  0.00  0.00    -0.225 OA
BRANCH   3   2
ATOM      1  C   UNL     1       5.757  -0.822  24.302  0.00  0.00    +0.025 C 
ATOM      2  C   UNL     1       5.514  -0.277  23.734  0.00  0.00    +0.119 C 
ENDBRANCH   3   2
ENDBRANCH   6   4
ENDBRANCH   7   6
ENDBRANCH  15  11
BRANCH  18  19
ATOM     19  C   UNL     1      -1.573   0.651  24.339  0.00  0.00    +0.075 A 
ATOM     20  C   UNL     1      -2.257   0.658  23.877  0.00  0.00    +0.020 A 
ATOM     21  C   UNL     1      -2.927   0.250  24.126  0.00  0.00    +0.039 A 
ATOM     22  C   UNL     1      -2.916  -0.168  24.839  0.00  0.00    +0.145 A 
ATOM     30  C   UNL     1      -2.232  -0.175  25.301  0.00  0.00    +0.039 A 
ATOM     31  C   UNL     1      -1.561   0.234  25.051  0.00  0.00    +0.020 A 
BRANCH  22  23
ATOM     23  O   UNL     1      -3.586  -0.577  25.088  0.00  0.00    -0.453 OA
BRANCH  23  24
ATOM     24  C   UNL     1      -3.729  -1.342  24.814  0.00  0.00    +0.145 A 
ATOM     25  C   UNL     1      -3.406  -1.990  25.210  0.00  0.00    +0.037 A 
ATOM     26  C   UNL     1      -3.549  -2.755  24.935  0.00  0.00    +0.003 A 
ATOM     27  C   UNL     1      -4.014  -2.871  24.264  0.00  0.00    +0.000 A 
ATOM     28  C   UNL     1      -4.336  -2.224  23.867  0.00  0.00    +0.003 A 
ATOM     29  C   UNL     1      -4.194  -1.460  24.142  0.00  0.00    +0.037 A 
ENDBRANCH  23  24
ENDBRANCH  22  23
ENDBRANCH  18  19
TORSDOF 7
ENDMDL
MODEL 3
REMARK VINA RESULT:      -7.8      3.750      5.483
REMARK  Name = 
REMARK  7 active torsions:
REMARK  status: ('A' for Active; 'I' for Inactive)
REMARK    1  A    between atoms: C_2  and  N_3
REMARK    2  A    between atoms: C_4  and  O_6
REMARK    3  A    between atoms: O_6  and  C_7
REMARK    4  A    between atoms: C_11  and  N_15
REMARK    5  A    between atoms: N_18  and  C_19
REMARK    6  A    between atoms: C_22  and  O_23
REMARK    7  A    between atoms: O_23  and  C_24
REMARK                            x       y       z     vdW  Elec       q    Type
REMARK                         _______ _______ _______ _____ _____    ______ ____
ROOT
ATOM     15  N   UNL     1      -4.805   1.774  24.589  0.00  0.00    -0.184 NA
ATOM     16  C   UNL     1      -4.411   1.050  24.612  0.00  0.00    +0.344 C 
ATOM     17  O   UNL     1      -3.600   1.018  24.467  0.00  0.00    -0.249 OA
ATOM     18  N   UNL     1      -4.828   0.358  24.778  0.00  0.00    -0.161 NA
ENDROOT
BRANCH  15  11
ATOM      7  C   UNL     1      -3.460   4.166  25.123  0.00  0.00    +0.229 C 
ATOM      8  C   UNL     1      -3.680   3.901  25.873  0.00  0.00    +0.188 C 
ATOM      9  O   UNL     1      -4.086   3.190  25.782  0.00  0.00    -0.348 OA
ATOM     10  C   UNL     1      -4.118   3.014  24.977  0.00  0.00    +0.168 C 
ATOM     11  C   UNL     1      -4.388   2.467  24.423  0.00  0.00    +0.156 C 
ATOM     12  C   UNL     1      -4.169   2.731  23.673  0.00  0.00    +0.166 C 
ATOM     13  O   UNL     1      -3.763   3.443  23.764  0.00  0.00    -0.348 OA
ATOM     14  C   UNL     1      -3.731   3.618  24.570  0.00  0.00    +0.186 C 
BRANCH   7   6
ATOM      6  O   UNL     1      -3.043   4.859  24.956  0.00  0.00    -0.432 OA
BRANCH   6   4
ATOM      3  N   UNL     1      -1.642   5.014  24.723  0.00  0.00    -0.169 NA
ATOM      4  C   UNL     1      -2.277   4.959  25.246  0.00  0.00    +0.421 C 
ATOM      5  O   UNL     1      -2.146   5.003  26.060  0.00  0.00    -0.225 OA
BRANCH   3   2
ATOM      1  C   UNL     1      -0.228   4.938  24.534  0.00  0.00    +0.025 C 
ATOM      2  C   UNL     1      -0.876   5.114  25.012  0.00  0.00    +0.119 C 
ENDBRANCH   3   2
ENDBRANCH   6   4
ENDBRANCH   7   6
ENDBRANCH  15  11
BRANCH  18  19
ATOM     19  C   UNL     1      -4.433  -0.367  24.800  0.00  0.00    +0.075 A 
ATOM     20  C   UNL     1      -4.064  -0.614  25.495  0.00  0.00    +0.020 A 
ATOM     21  C   UNL     1      -3.670  -1.338  25.517  0.00  0.00    +0.039 A 
ATOM     22  C   UNL     1      -3.645  -1.815  24.844  0.00  0.00    +0.145 A 
ATOM     30  C   UNL     1      -4.015  -1.568  24.149  0.00  0.00    +0.039 A 
ATOM     31  C   UNL     1      -4.409  -0.843  24.128  0.00  0.00    +0.020 A 
BRANCH  22  23
ATOM     23  O   UNL     1      -3.252  -2.539  24.866  0.00  0.00    -0.453 OA
BRANCH  23  24
ATOM     24  C   UNL     1      -2.439  -2.571  24.726  0.00  0.00    +0.145 A 
ATOM     25  C   UNL     1      -2.156  -2.847  24.002  0.00  0.00    +0.037 A 
ATOM     26  C   UNL     1      -1.343  -2.878  23.862  0.00  0.00    +0.003 A 
ATOM     27  C   UNL     1      -0.814  -2.634  24.446  0.00  0.00    +0.000 A 
ATOM     28  C   UNL     1      -1.098  -2.358  25.170  0.00  0.00    +0.003 A 
ATOM     29  C   UNL     1      -1.910  -2.327  25.310  0.00  0.00    +0.037 A 
ENDBRANCH  23  24
ENDBRANCH  22  23
ENDBRANCH  18  19
TORSDOF 7
ENDMDL
MODEL 4
REMARK VINA RESULT:      -7.5      1.194      7.128
REMARK  Name = 
REMARK  7 active torsions:
REMARK  status: ('A' for Active; 'I' for Inactive)
REMARK    1  A    between atoms: C_2  and  N_3
REMARK    2  A    between atoms: C_4  and  O_6
REMARK    3  A    between atoms: O_6  and  C_7
REMARK    4  A    between atoms: C_11  and  N_15
REMARK    5  A    between atoms: N_18  and  C_19
REMARK    6  A    between atoms: C_22  and  O_23
REMARK    7  A    between atoms: O_23  and  C_24
REMARK                            x       y       z     vdW  Elec       q    Type
REMARK                         _______ _______ _______ _____ _____    ______ ____
ROOT
ATOM     15  N   UNL     1      -1.377   0.412  24.241  0.00  0.00    -0.184 NA
ATOM     16  C   UNL     1      -0.674   0.516  23.823  0.00  0.00    +0.344 C 
ATOM     17  O   UNL     1      -0.634   1.072  23.216  0.00  0.00    -0.249 OA
ATOM     18  N   UNL     1      -0.011   0.064  24.012  0.00  0.00    -0.161 NA
ENDROOT
BRANCH  15  11
ATOM      7  C   UNL     1      -4.027   1.293  24.393  0.00  0.00    +0.229 C 
ATOM      8  C   UNL     1      -3.992   0.698  24.963  0.00  0.00    +0.188 C 
ATOM      9  O   UNL     1      -3.226   0.394  24.967  0.00  0.00    -0.348 OA
ATOM     10  C   UNL     1      -2.786   0.800  24.400  0.00  0.00    +0.168 C 
ATOM     11  C   UNL     1      -2.041   0.864  24.052  0.00  0.00    +0.156 C 
ATOM     12  C   UNL     1      -2.076   1.459  23.482  0.00  0.00    +0.166 C 
ATOM     13  O   UNL     1      -2.842   1.763  23.477  0.00  0.00    -0.348 OA
ATOM     14  C   UNL     1      -3.282   1.356  24.045  0.00  0.00    +0.186 C 
BRANCH   7   6
ATOM      6  O   UNL     1      -4.690   1.745  24.203  0.00  0.00    -0.432 OA
BRANCH   6   4
ATOM      3  N   UNL     1      -5.117   2.872  24.972  0.00  0.00    -0.169 NA
ATOM      4  C   UNL     1      -5.157   2.066  24.804  0.00  0.00    +0.421 C 
ATOM      5  O   UNL     1      -5.664   1.578  25.236  0.00  0.00    -0.225 OA
BRANCH   3   2
ATOM      1  C   UNL     1      -5.605   4.008  25.688  0.00  0.00    +0.025 C 
ATOM      2  C   UNL     1      -5.583   3.192  25.573  0.00  0.00    +0.119 C 
ENDBRANCH   3   2
ENDBRANCH   6   4
ENDBRANCH   7   6
ENDBRANCH  15  11
BRANCH  18  19
ATOM     19  C   UNL     1       0.693   0.168  23.594  0.00  0.00    +0.075 A 
ATOM     20  C   UNL     1       1.182   0.810  23.762  0.00  0.00    +0.020 A 
ATOM     21  C   UNL     1       1.885   0.914  23.345  0.00  0.00    +0.039 A 
ATOM     22  C   UNL     1       2.100   0.375  22.757  0.00  0.00    +0.145 A 
ATOM     30  C   UNL     1       1.610  -0.268  22.588  0.00  0.00    +0.039 A 
ATOM     31  C   UNL     1       0.907  -0.371  23.007  0.00  0.00    +0.020 A 
BRANCH  22  23
ATOM     23  O   UNL     1       2.802   0.478  22.339  0.00  0.00    -0.453 OA
BRANCH  23  24
ATOM     24  C   UNL     1       3.527   0.343  22.710  0.00  0.00    +0.145 A 
ATOM     25  C   UNL     1       3.723  -0.416  22.967  0.00  0.00    +0.037 A 
ATOM     26  C   UNL     1       4.447  -0.552  23.339  0.00  0.00    +0.003 A 
ATOM     27  C   UNL     1       4.975   0.071  23.453  0.00  0.00    +0.000 A 
ATOM     28  C   UNL     1       4.779   0.830  23.196  0.00  0.00    +0.003 A 
ATOM     29  C   UNL     1       4.056   0.966  22.825  0.00  0.00    +0.037 A 
ENDBRANCH  23  24
ENDBRANCH  22  23
ENDBRANCH  18  19
TORSDOF 7
ENDMDL
MODEL 5
REMARK VINA RESULT:      -7.5      1.624      2.109
REMARK  Name = 
REMARK  7 active torsions:
REMARK  status: ('A' for Active; 'I' for Inactive)
REMARK    1  A    between atoms: C_2  and  N_3
REMARK    2  A    between atoms: C_4  and  O_6
REMARK    3  A    between atoms: O_6  and  C_7
REMARK    4  A    between atoms: C_11  and  N_15
REMARK    5  A    between atoms: N_18  and  C_19
REMARK    6  A    between atoms: C_22  and  O_23
REMARK    7  A    between atoms: O_23  and  C_24
REMARK                            x       y       z     vdW  Elec       q    Type
REMARK                         _______ _______ _______ _____ _____    ______ ____
ROOT
ATOM     15  N   UNL     1      -0.459   2.450  24.660  0.00  0.00    -0.184 NA
ATOM     16  C   UNL     1      -1.278   2.536  24.711  0.00  0.00    +0.344 C 
ATOM     17  O   UNL     1      -1.772   1.915  24.484  0.00  0.00    -0.249 OA
ATOM     18  N   UNL     1      -1.604   3.241  24.988  0.00  0.00    -0.161 NA
ENDROOT
BRANCH  15  11
ATOM      7  C   UNL     1       1.433   0.781  23.457  0.00  0.00    +0.229 C 
ATOM      8  C   UNL     1       1.783   1.526  23.412  0.00  0.00    +0.188 C 
ATOM      9  O   UNL     1       1.267   2.070  23.756  0.00  0.00    -0.348 OA
ATOM     10  C   UNL     1       0.599   1.662  24.012  0.00  0.00    +0.168 C 
ATOM     11  C   UNL     1      -0.134   1.745  24.383  0.00  0.00    +0.156 C 
ATOM     12  C   UNL     1      -0.484   0.999  24.427  0.00  0.00    +0.166 C 
ATOM     13  O   UNL     1       0.032   0.455  24.084  0.00  0.00    -0.348 OA
ATOM     14  C   UNL     1       0.701   0.865  23.827  0.00  0.00    +0.186 C 
BRANCH   7   6
ATOM      6  O   UNL     1       1.759   0.075  23.179  0.00  0.00    -0.432 OA
BRANCH   6   4
ATOM      3  N   UNL     1       3.182   0.080  23.051  0.00  0.00    -0.169 NA
ATOM      4  C   UNL     1       2.434   0.090  22.705  0.00  0.00    +0.421 C 
ATOM      5  O   UNL     1       2.359   0.115  21.883  0.00  0.00    -0.225 OA
BRANCH   3   2
ATOM      1  C   UNL     1       4.601   0.182  22.921  0.00  0.00    +0.025 C 
ATOM      2  C   UNL     1       3.857   0.095  22.577  0.00  0.00    +0.119 C 
ENDBRANCH   3   2
ENDBRANCH   6   4
ENDBRANCH   7   6
ENDBRANCH  15  11
BRANCH  18  19
ATOM     19  C   UNL     1      -2.423   3.326  25.039  0.00  0.00    +0.075 A 
ATOM     20  C   UNL     1      -2.785   3.404  25.775  0.00  0.00    +0.020 A 
ATOM     21  C   UNL     1      -3.603   3.489  25.826  0.00  0.00    +0.039 A 
ATOM     22  C   UNL     1      -4.061   3.497  25.139  0.00  0.00    +0.145 A 
ATOM     30  C   UNL     1      -3.698   3.419  24.401  0.00  0.00    +0.039 A 
ATOM     31  C   UNL     1      -2.879   3.334  24.352  0.00  0.00    +0.020 A 
BRANCH  22  23
ATOM     23  O   UNL     1      -4.879   3.582  25.188  0.00  0.00    -0.453 OA
BRANCH  23  24
ATOM     24  C   UNL     1      -5.354   2.922  25.331  0.00  0.00    +0.145 A 
ATOM     25  C   UNL     1      -5.533   2.401  24.717  0.00  0.00    +0.037 A 
ATOM     26  C   UNL     1      -6.008   1.742  24.861  0.00  0.00    +0.003 A 
ATOM     27  C   UNL     1      -6.304   1.604  25.618  0.00  0.00    +0.000 A 
ATOM     28  C   UNL     1      -6.126   2.126  26.232  0.00  0.00    +0.003 A 
ATOM     29  C   UNL     1      -5.651   2.784  26.089  0.00  0.00    +0.037 A 
ENDBRANCH  23  24
ENDBRANCH  22  23
ENDBRANCH  18  19
TORSDOF 7
ENDMDL
MODEL 6
REMARK VINA RESULT:      -7.3      3.627      5.035
REMARK  Name = 
REMARK  7 active torsions:
REMARK  status: ('A' for Active; 'I' for Inactive)
REMARK    1  A    between atoms: C_2  and  N_3
REMARK    2  A    between atoms: C_4  and  O_6
REMARK    3  A    between atoms: O_6  and  C_7
REMARK    4  A    between atoms: C_11  and  N_15
REMARK    5  A    between atoms: N_18  and  C_19
REMARK    6  A    between atoms: C_22  and  O_23
REMARK    7  A    between atoms: O_23  and  C_24
REMARK                            x       y       z     vdW  Elec       q    Type
REMARK                         _______ _______ _______ _____ _____    ______ ____
ROOT
ATOM     15  N   UNL     1      -4.749   0.682  24.814  0.00  0.00    -0.184 NA
ATOM     16  C   UNL     1      -4.315   1.376  24.920  0.00  0.00    +0.344 C 
ATOM     17  O   UNL     1      -3.553   1.341  25.233  0.00  0.00    -0.249 OA
ATOM     18  N   UNL     1      -4.643   2.104  24.715  0.00  0.00    -0.161 NA
ENDROOT
BRANCH  15  11
ATOM      7  C   UNL     1      -3.762  -1.905  24.424  0.00  0.00    +0.229 C 
ATOM      8  C   UNL     1      -3.980  -1.669  23.665  0.00  0.00    +0.188 C 
ATOM      9  O   UNL     1      -4.283  -0.903  23.713  0.00  0.00    -0.348 OA
ATOM     10  C   UNL     1      -4.253  -0.666  24.502  0.00  0.00    +0.168 C 
ATOM     11  C   UNL     1      -4.420  -0.046  25.020  0.00  0.00    +0.156 C 
ATOM     12  C   UNL     1      -4.202  -0.282  25.780  0.00  0.00    +0.166 C 
ATOM     13  O   UNL     1      -3.899  -1.047  25.731  0.00  0.00    -0.348 OA
ATOM     14  C   UNL     1      -3.930  -1.285  24.941  0.00  0.00    +0.186 C 
BRANCH   7   6
ATOM      6  O   UNL     1      -3.433  -2.633  24.630  0.00  0.00    -0.432 OA
BRANCH   6   4
ATOM      3  N   UNL     1      -2.014  -2.605  24.795  0.00  0.00    -0.169 NA
ATOM      4  C   UNL     1      -2.679  -2.835  24.365  0.00  0.00    +0.421 C 
ATOM      5  O   UNL     1      -2.590  -3.269  23.668  0.00  0.00    -0.225 OA
BRANCH   3   2
ATOM      1  C   UNL     1      -0.595  -2.465  24.878  0.00  0.00    +0.025 C 
ATOM      2  C   UNL     1      -1.260  -2.807  24.530  0.00  0.00    +0.119 C 
ENDBRANCH   3   2
ENDBRANCH   6   4
ENDBRANCH   7   6
ENDBRANCH  15  11
BRANCH  18  19
ATOM     19  C   UNL     1      -4.210   2.797  24.821  0.00  0.00    +0.075 A 
ATOM     20  C   UNL     1      -4.151   3.137  25.570  0.00  0.00    +0.020 A 
ATOM     21  C   UNL     1      -3.718   3.830  25.677  0.00  0.00    +0.039 A 
ATOM     22  C   UNL     1      -3.342   4.185  25.033  0.00  0.00    +0.145 A 
ATOM     30  C   UNL     1      -3.400   3.845  24.283  0.00  0.00    +0.039 A 
ATOM     31  C   UNL     1      -3.834   3.152  24.177  0.00  0.00    +0.020 A 
BRANCH  22  23
ATOM     23  O   UNL     1      -2.909   4.878  25.138  0.00  0.00    -0.453 OA
BRANCH  23  24
ATOM     24  C   UNL     1      -2.085   4.859  25.094  0.00  0.00    +0.145 A 
ATOM     25  C   UNL     1      -1.682   5.441  24.670  0.00  0.00    +0.037 A 
ATOM     26  C   UNL     1      -0.858   5.423  24.625  0.00  0.00    +0.003 A 
ATOM     27  C   UNL     1      -0.438   4.823  25.005  0.00  0.00    +0.000 A 
ATOM     28  C   UNL     1      -0.841   4.241  25.429  0.00  0.00    +0.003 A 
ATOM     29  C   UNL     1      -1.664   4.260  25.474  0.00  0.00    +0.037 A 
ENDBRANCH  23  24
ENDBRANCH  22  23
ENDBRANCH  18  19
TORSDOF 7
ENDMDL
MODEL 7
REMARK VINA RESULT:      -7.1      2.961      4.977
REMARK  Name = 
REMARK  7 active torsions:
REMARK  status: ('A' for Active; 'I' for Inactive)
REMARK    1  A    between atoms: C_2  and  N_3
REMARK    2  A    between atoms: C_4  and  O_6
REMARK    3  A    between atoms: O_6  and  C_7
REMARK    4  A    between atoms: C_11  and  N_15
REMARK    5  A    between atoms: N_18  and  C_19
REMARK    6  A    between atoms: C_22  and  O_23
REMARK    7  A    between atoms: O_23  and  C_24
REMARK                            x       y       z     vdW  Elec       q    Type
REMARK                         _______ _______ _______ _____ _____    ______ ____
ROOT
ATOM     15  N   UNL     1       0.299   1.326  24.783  0.00  0.00    -0.184 NA
ATOM     16  C   UNL     1      -0.188   0.661  24.815  0.00  0.00    +0.344 C 
ATOM     17  O   UNL     1      -0.908   0.696  25.217  0.00  0.00    -0.249 OA
ATOM     18  N   UNL     1       0.043  -0.039  24.444  0.00  0.00    -0.161 NA
ENDROOT
BRANCH  15  11
ATOM      7  C   UNL     1      -0.690   3.934  24.982  0.00  0.00    +0.229 C 
ATOM      8  C   UNL     1      -0.716   3.783  24.172  0.00  0.00    +0.188 C 
ATOM      9  O   UNL     1      -0.434   3.018  24.046  0.00  0.00    -0.348 OA
ATOM     10  C   UNL     1      -0.232   2.697  24.778  0.00  0.00    +0.168 C 
ATOM     11  C   UNL     1       0.067   2.026  25.154  0.00  0.00    +0.156 C 
ATOM     12  C   UNL     1       0.094   2.177  25.964  0.00  0.00    +0.166 C 
ATOM     13  O   UNL     1      -0.189   2.941  26.090  0.00  0.00    -0.348 OA
ATOM     14  C   UNL     1      -0.390   3.263  25.357  0.00  0.00    +0.186 C 
BRANCH   7   6
ATOM      6  O   UNL     1      -0.921   4.634  25.353  0.00  0.00    -0.432 OA
BRANCH   6   4
ATOM      3  N   UNL     1      -2.275   4.569  25.806  0.00  0.00    -0.169 NA
ATOM      4  C   UNL     1      -1.705   4.887  25.303  0.00  0.00    +0.421 C 
ATOM      5  O   UNL     1      -1.917   5.461  24.749  0.00  0.00    -0.225 OA
BRANCH   3   2
ATOM      1  C   UNL     1      -3.653   4.408  26.150  0.00  0.00    +0.025 C 
ATOM      2  C   UNL     1      -3.059   4.822  25.756  0.00  0.00    +0.119 C 
ENDBRANCH   3   2
ENDBRANCH   6   4
ENDBRANCH   7   6
ENDBRANCH  15  11
BRANCH  18  19
ATOM     19  C   UNL     1      -0.444  -0.704  24.476  0.00  0.00    +0.075 A 
ATOM     20  C   UNL     1      -0.562  -1.096  25.192  0.00  0.00    +0.020 A 
ATOM     21  C   UNL     1      -1.048  -1.760  25.224  0.00  0.00    +0.039 A 
ATOM     22  C   UNL     1      -1.419  -2.034  24.538  0.00  0.00    +0.145 A 
ATOM     30  C   UNL     1      -1.302  -1.641  23.822  0.00  0.00    +0.039 A 
ATOM     31  C   UNL     1      -0.815  -0.976  23.791  0.00  0.00    +0.020 A 
BRANCH  22  23
ATOM     23  O   UNL     1      -1.906  -2.698  24.569  0.00  0.00    -0.453 OA
BRANCH  23  24
ATOM     24  C   UNL     1      -2.724  -2.613  24.500  0.00  0.00    +0.145 A 
ATOM     25  C   UNL     1      -3.150  -2.227  25.091  0.00  0.00    +0.037 A 
ATOM     26  C   UNL     1      -3.969  -2.142  25.021  0.00  0.00    +0.003 A 
ATOM     27  C   UNL     1      -4.359  -2.444  24.360  0.00  0.00    +0.000 A 
ATOM     28  C   UNL     1      -3.933  -2.830  23.769  0.00  0.00    +0.003 A 
ATOM     29  C   UNL     1      -3.116  -2.914  23.839  0.00  0.00    +0.037 A 
ENDBRANCH  23  24
ENDBRANCH  22  23
ENDBRANCH  18  19
TORSDOF 7
ENDMDL
