MODEL 1
REMARK VINA RESULT:     -11.9      0.000      0.000
REMARK  Name = 
REMARK  8 active torsions:
REMARK  status: ('A' for Active; 'I' for Inactive)
REMARK    1  A    between atoms: C_2  and  C_4
REMARK    2  A    between atoms: C_4  and  C_5
REMARK    3  A    between atoms: C_4  and  N_12
REMARK    4  A    between atoms: C_5  and  C_6
REMARK    5  A    between atoms: C_13  and  C_15
REMARK    6  A    between atoms: N_20  and  S_21
REMARK    7  A    between atoms: S_21  and  C_24
REMARK    8  A    between atoms: C_30  and  C_32
REMARK                            x       y       z     vdW  Elec       q    Type
REMARK                         _______ _______ _______ _____ _____    ______ ____
ROOT
ATOM     15  C   UNL     1      -2.028   1.024  24.562  0.00  0.00    +0.177 C 
ATOM     16  C   UNL     1      -2.829   1.086  24.750  0.00  0.00    +0.120 C 
ATOM     17  N   UNL     1      -3.182   1.829  24.812  0.00  0.00    -0.276 N 
ATOM     18  C   UNL     1      -2.734   2.510  24.686  0.00  0.00    +0.113 C 
ATOM     19  C   UNL     1      -1.933   2.449  24.498  0.00  0.00    +0.118 C 
ATOM     20  N   UNL     1      -1.580   1.706  24.435  0.00  0.00    -0.145 NA
ATOM     30  C   UNL     1      -3.982   1.891  25.000  0.00  0.00    +0.225 C 
ATOM     31  O   UNL     1      -4.431   1.210  25.126  0.00  0.00    -0.275 OA
ENDROOT
BRANCH  30  32
ATOM     32  C   UNL     1      -4.335   2.635  25.062  0.00  0.00    +0.080 C 
ATOM     33  C   UNL     1      -4.458   2.972  25.806  0.00  0.00    +0.028 C 
ATOM     34  C   UNL     1      -4.811   3.715  25.868  0.00  0.00    +0.089 C 
ATOM     35  N   UNL     1      -5.041   4.121  25.187  0.00  0.00    -0.218 NA
ATOM     36  C   UNL     1      -4.918   3.783  24.444  0.00  0.00    +0.089 C 
ATOM     37  C   UNL     1      -4.565   3.040  24.382  0.00  0.00    +0.028 C 
ENDBRANCH  30  32
BRANCH  15  13
ATOM     12  N   UNL     1      -1.944  -0.343  24.968  0.00  0.00    -0.197 NA
ATOM     13  C   UNL     1      -1.676   0.281  24.499  0.00  0.00    +0.260 C 
ATOM     14  O   UNL     1      -1.055   0.162  23.969  0.00  0.00    -0.272 OA
BRANCH  12   4
ATOM      4  C   UNL     1      -1.591  -1.087  24.906  0.00  0.00    +0.174 C 
BRANCH   4   2
ATOM      1  N   UNL     1      -0.316  -1.675  25.173  0.00  0.00    -0.086 NA
ATOM      2  C   UNL     1      -1.005  -1.311  25.442  0.00  0.00    +0.281 C 
ATOM      3  O   UNL     1      -1.109  -1.170  26.249  0.00  0.00    -0.270 OA
ENDBRANCH   4   2
BRANCH   4   5
ATOM      5  C   UNL     1      -1.824  -1.605  24.308  0.00  0.00    +0.031 C 
BRANCH   5   6
ATOM      6  C   UNL     1      -2.535  -2.019  24.375  0.00  0.00    +0.002 C 
ATOM      7  C   UNL     1      -2.606  -2.630  24.925  0.00  0.00    +0.000 C 
ATOM      8  C   UNL     1      -3.316  -3.044  24.992  0.00  0.00    +0.000 C 
ATOM      9  C   UNL     1      -3.956  -2.847  24.509  0.00  0.00    +0.000 C 
ATOM     10  C   UNL     1      -3.884  -2.237  23.959  0.00  0.00    +0.000 C 
ATOM     11  C   UNL     1      -3.174  -1.822  23.892  0.00  0.00    +0.000 C 
ENDBRANCH   5   6
ENDBRANCH   4   5
ENDBRANCH  12   4
ENDBRANCH  15  13
BRANCH  20  21
ATOM     21  S   UNL     1      -0.780   1.643  24.247  0.00  0.00    +0.064 S 
ATOM     22  O   UNL     1       0.022   1.581  24.060  0.00  0.00    -0.153 OA
ATOM     23  O   UNL     1      -0.963   1.120  23.637  0.00  0.00    -0.153 OA
BRANCH  21  24
ATOM     24  C   UNL     1      -0.595   2.167  24.859  0.00  0.00    +0.122 A 
ATOM     25  C   UNL     1      -0.610   2.980  24.723  0.00  0.00    +0.020 A 
ATOM     26  C   UNL     1      -0.426   3.504  25.334  0.00  0.00    +0.001 A 
ATOM     27  C   UNL     1      -0.228   3.213  26.080  0.00  0.00    +0.000 A 
ATOM     28  C   UNL     1      -0.213   2.399  26.215  0.00  0.00    +0.001 A 
ATOM     29  C   UNL     1      -0.397   1.876  25.605  0.00  0.00    +0.020 A 
ENDBRANCH  21  24
ENDBRANCH  20  21
TORSDOF 8
ENDMDL
MODEL 2
REMARK VINA RESULT:     -11.2      1.698      4.847
REMARK  Name = 
REMARK  8 active torsions:
REMARK  status: ('A' for Active; 'I' for Inactive)
REMARK    1  A    between atoms: C_2  and  C_4
REMARK    2  A    between atoms: C_4  and  C_5
REMARK    3  A    between atoms: C_4  and  N_12
REMARK    4  A    between atoms: C_5  and  C_6
REMARK    5  A    between atoms: C_13  and  C_15
REMARK    6  A    between atoms: N_20  and  S_21
REMARK    7  A    between atoms: S_21  and  C_24
REMARK    8  A    between atoms: C_30  and  C_32
REMARK                            x       y       z     vdW  Elec       q    Type
REMARK                         _______ _______ _______ _____ _____    ______ ____
ROOT
ATOM     15  C   UNL     1      -3.397   1.901  24.633  0.00  0.00    +0.177 C 
ATOM     16  C   UNL     1      -2.974   1.201  24.738  0.00  0.00    +0.120 C 
ATOM     17  N   UNL     1      -3.357   0.473  24.680  0.00  0.00    -0.276 N 
ATOM     18  C   UNL     1      -4.165   0.445  24.518  0.00  0.00    +0.113 C 
ATOM     19  C   UNL     1      -4.590   1.144  24.412  0.00  0.00    +0.118 C 
ATOM     20  N   UNL     1      -4.206   1.872  24.470  0.00  0.00    -0.145 NA
ATOM     30  C   UNL     1      -2.933  -0.226  24.786  0.00  0.00    +0.225 C 
ATOM     31  O   UNL     1      -2.124  -0.198  24.949  0.00  0.00    -0.275 OA
ENDROOT
BRANCH  30  32
ATOM     32  C   UNL     1      -3.317  -0.955  24.728  0.00  0.00    +0.080 C 
ATOM     33  C   UNL     1      -3.463  -1.398  25.408  0.00  0.00    +0.028 C 
ATOM     34  C   UNL     1      -3.847  -2.126  25.351  0.00  0.00    +0.089 C 
ATOM     35  N   UNL     1      -4.085  -2.411  24.613  0.00  0.00    -0.218 NA
ATOM     36  C   UNL     1      -3.938  -1.966  23.934  0.00  0.00    +0.089 C 
ATOM     37  C   UNL     1      -3.555  -1.238  23.991  0.00  0.00    +0.028 C 
ENDBRANCH  30  32
BRANCH  15  13
ATOM     12  N   UNL     1      -2.458   2.756  25.287  0.00  0.00    -0.197 NA
ATOM     13  C   UNL     1      -3.014   2.628  24.690  0.00  0.00    +0.260 C 
ATOM     14  O   UNL     1      -3.185   3.229  24.152  0.00  0.00    -0.272 OA
BRANCH  12   4
ATOM      4  C   UNL     1      -2.075   3.484  25.345  0.00  0.00    +0.174 C 
BRANCH   4   2
ATOM      1  N   UNL     1      -2.426   4.849  25.578  0.00  0.00    -0.086 NA
ATOM      2  C   UNL     1      -2.375   4.070  25.842  0.00  0.00    +0.281 C 
ATOM      3  O   UNL     1      -2.625   3.875  26.605  0.00  0.00    -0.270 OA
ENDBRANCH   4   2
BRANCH   4   5
ATOM      5  C   UNL     1      -1.391   3.626  24.906  0.00  0.00    +0.031 C 
BRANCH   5   6
ATOM      6  C   UNL     1      -0.711   3.178  25.045  0.00  0.00    +0.002 C 
ATOM      7  C   UNL     1      -0.299   2.848  24.411  0.00  0.00    +0.000 C 
ATOM      8  C   UNL     1       0.381   2.401  24.550  0.00  0.00    +0.000 C 
ATOM      9  C   UNL     1       0.648   2.284  25.322  0.00  0.00    +0.000 C 
ATOM     10  C   UNL     1       0.234   2.615  25.955  0.00  0.00    +0.000 C 
ATOM     11  C   UNL     1      -0.445   3.062  25.816  0.00  0.00    +0.000 C 
ENDBRANCH   5   6
ENDBRANCH   4   5
ENDBRANCH  12   4
ENDBRANCH  15  13
BRANCH  20  21
ATOM     21  S   UNL     1      -4.630   2.572  24.365  0.00  0.00    +0.064 S 
ATOM     22  O   UNL     1      -5.055   3.272  24.260  0.00  0.00    -0.153 OA
ATOM     23  O   UNL     1      -4.065   2.835  23.826  0.00  0.00    -0.153 OA
BRANCH  21  24
ATOM     24  C   UNL     1      -5.197   2.309  24.904  0.00  0.00    +0.122 A 
ATOM     25  C   UNL     1      -5.810   1.819  24.652  0.00  0.00    +0.020 A 
ATOM     26  C   UNL     1      -6.377   1.556  25.191  0.00  0.00    +0.001 A 
ATOM     27  C   UNL     1      -6.330   1.784  25.983  0.00  0.00    +0.000 A 
ATOM     28  C   UNL     1      -5.716   2.274  26.235  0.00  0.00    +0.001 A 
ATOM     29  C   UNL     1      -5.150   2.537  25.696  0.00  0.00    +0.020 A 
ENDBRANCH  21  24
ENDBRANCH  20  21
TORSDOF 8
ENDMDL
MODEL 3
REMARK VINA RESULT:     -10.7      1.498      4.480
REMARK  Name = 
REMARK  8 active torsions:
REMARK  status: ('A' for Active; 'I' for Inactive)
REMARK    1  A    between atoms: C_2  and  C_4
REMARK    2  A    between atoms: C_4  and  C_5
REMARK    3  A    between atoms: C_4  and  N_12
REMARK    4  A    between atoms: C_5  and  C_6
REMARK    5  A    between atoms: C_13  and  C_15
REMARK    6  A    between atoms: N_20  and  S_21
REMARK    7  A    between atoms: S_21  and  C_24
REMARK    8  A    between atoms: C_30  and  C_32
REMARK                            x       y       z     vdW  Elec       q    Type
REMARK                         _______ _______ _______ _____ _____    ______ ____
ROOT
ATOM     15  C   UNL     1      -2.324   0.871  25.063  0.00  0.00    +0.177 C 
ATOM     16  C   UNL     1      -3.015   0.439  24.940  0.00  0.00    +0.120 C 
ATOM     17  N   UNL     1      -2.981  -0.381  24.856  0.00  0.00    -0.276 N 
ATOM     18  C   UNL     1      -2.255  -0.769  24.895  0.00  0.00    +0.113 C 
ATOM     19  C   UNL     1      -1.562  -0.338  25.018  0.00  0.00    +0.118 C 
ATOM     20  N   UNL     1      -1.596   0.482  25.102  0.00  0.00    -0.145 NA
ATOM     30  C   UNL     1      -3.673  -0.812  24.733  0.00  0.00    +0.225 C 
ATOM     31  O   UNL     1      -4.400  -0.424  24.694  0.00  0.00    -0.275 OA
ENDROOT
BRANCH  30  32
ATOM     32  C   UNL     1      -3.638  -1.633  24.649  0.00  0.00    +0.080 C 
ATOM     33  C   UNL     1      -3.766  -1.977  23.910  0.00  0.00    +0.028 C 
ATOM     34  C   UNL     1      -3.731  -2.797  23.826  0.00  0.00    +0.089 C 
ATOM     35  N   UNL     1      -3.569  -3.273  24.481  0.00  0.00    -0.218 NA
ATOM     36  C   UNL     1      -3.442  -2.928  25.220  0.00  0.00    +0.089 C 
ATOM     37  C   UNL     1      -3.476  -2.108  25.304  0.00  0.00    +0.028 C 
ENDBRANCH  30  32
BRANCH  15  13
ATOM     12  N   UNL     1      -2.968   2.116  24.789  0.00  0.00    -0.197 NA
ATOM     13  C   UNL     1      -2.358   1.690  25.147  0.00  0.00    +0.260 C 
ATOM     14  O   UNL     1      -1.783   2.085  25.588  0.00  0.00    -0.272 OA
BRANCH  12   4
ATOM      4  C   UNL     1      -3.003   2.936  24.873  0.00  0.00    +0.174 C 
BRANCH   4   2
ATOM      1  N   UNL     1      -2.180   4.044  24.503  0.00  0.00    -0.086 NA
ATOM      2  C   UNL     1      -2.680   3.424  24.291  0.00  0.00    +0.281 C 
ATOM      3  O   UNL     1      -2.858   3.291  23.496  0.00  0.00    -0.270 OA
ENDBRANCH   4   2
BRANCH   4   5
ATOM      5  C   UNL     1      -3.360   3.268  25.538  0.00  0.00    +0.031 C 
BRANCH   5   6
ATOM      6  C   UNL     1      -4.179   3.374  25.557  0.00  0.00    +0.002 C 
ATOM      7  C   UNL     1      -4.504   4.103  25.349  0.00  0.00    +0.000 C 
ATOM      8  C   UNL     1      -5.322   4.209  25.368  0.00  0.00    +0.000 C 
ATOM      9  C   UNL     1      -5.814   3.586  25.596  0.00  0.00    +0.000 C 
ATOM     10  C   UNL     1      -5.488   2.858  25.804  0.00  0.00    +0.000 C 
ATOM     11  C   UNL     1      -4.670   2.752  25.785  0.00  0.00    +0.000 C 
ENDBRANCH   5   6
ENDBRANCH   4   5
ENDBRANCH  12   4
ENDBRANCH  15  13
BRANCH  20  21
ATOM     21  S   UNL     1      -0.905   0.914  25.225  0.00  0.00    +0.064 S 
ATOM     22  O   UNL     1      -0.212   1.346  25.347  0.00  0.00    -0.153 OA
ATOM     23  O   UNL     1      -1.248   1.280  25.879  0.00  0.00    -0.153 OA
BRANCH  21  24
ATOM     24  C   UNL     1      -0.560   0.548  24.569  0.00  0.00    +0.122 A 
ATOM     25  C   UNL     1      -0.225  -0.202  24.645  0.00  0.00    +0.020 A 
ATOM     26  C   UNL     1       0.119  -0.568  23.990  0.00  0.00    +0.001 A 
ATOM     27  C   UNL     1       0.128  -0.183  23.260  0.00  0.00    +0.000 A 
ATOM     28  C   UNL     1      -0.208   0.567  23.185  0.00  0.00    +0.001 A 
ATOM     29  C   UNL     1      -0.551   0.933  23.839  0.00  0.00    +0.020 A 
ENDBRANCH  21  24
ENDBRANCH  20  21
TORSDOF 8
ENDMDL
MODEL 4
REMARK VINA RESULT:     -10.6      1.558      3.209
REMARK  Name = 
REMARK  8 active torsions:
REMARK  status: ('A' for Active; 'I' for Inactive)
REMARK    1  A    between atoms: C_2  and  C_4
REMARK    2  A    between atoms: C_4  and  C_5
REMARK    3  A    between atoms: C_4  and  N_12
REMARK    4  A    between atoms: C_5  and  C_6
REMARK    5  A    between atoms: C_13  and  C_15
REMARK    6  A    between atoms: N_20  and  S_21
REMARK    7  A    between atoms: S_21  and  C_24
REMARK    8  A    between atoms: C_30  and  C_32
REMARK                            x       y       z     vdW  Elec       q    Type
REMARK                         _______ _______ _______ _____ _____    ______ ____
ROOT
ATOM     15  C   UNL     1      -3.069   1.375  24.613  0.00  0.00    +0.177 C 
ATOM     16  C   UNL     1      -2.348   1.705  24.841  0.00  0.00    +0.120 C 
ATOM     17  N   UNL     1      -2.263   2.525  24.878  0.00  0.00    -0.276 N 
ATOM     18  C   UNL     1      -2.898   3.014  24.687  0.00  0.00    +0.113 C 
ATOM     19  C   UNL     1      -3.619   2.685  24.459  0.00  0.00    +0.118 C 
ATOM     20  N   UNL     1      -3.705   1.865  24.421  0.00  0.00    -0.145 NA
ATOM     30  C   UNL     1      -1.542   2.854  25.106  0.00  0.00    +0.225 C 
ATOM     31  O   UNL     1      -0.906   2.364  25.297  0.00  0.00    -0.275 OA
ENDROOT
BRANCH  30  32
ATOM     32  C   UNL     1      -1.457   3.675  25.143  0.00  0.00    +0.080 C 
ATOM     33  C   UNL     1      -0.955   4.061  24.614  0.00  0.00    +0.028 C 
ATOM     34  C   UNL     1      -0.869   4.881  24.651  0.00  0.00    +0.089 C 
ATOM     35  N   UNL     1      -1.286   5.314  25.218  0.00  0.00    -0.218 NA
ATOM     36  C   UNL     1      -1.787   4.927  25.746  0.00  0.00    +0.089 C 
ATOM     37  C   UNL     1      -1.872   4.107  25.709  0.00  0.00    +0.028 C 
ENDBRANCH  30  32
BRANCH  15  13
ATOM     12  N   UNL     1      -2.796   0.077  25.145  0.00  0.00    -0.197 NA
ATOM     13  C   UNL     1      -3.154   0.556  24.575  0.00  0.00    +0.260 C 
ATOM     14  O   UNL     1      -3.597   0.214  23.969  0.00  0.00    -0.272 OA
BRANCH  12   4
ATOM      4  C   UNL     1      -2.882  -0.742  25.108  0.00  0.00    +0.174 C 
BRANCH   4   2
ATOM      1  N   UNL     1      -3.936  -1.676  25.349  0.00  0.00    -0.086 NA
ATOM      2  C   UNL     1      -3.389  -1.128  25.632  0.00  0.00    +0.281 C 
ATOM      3  O   UNL     1      -3.350  -0.964  26.440  0.00  0.00    -0.270 OA
ENDBRANCH   4   2
BRANCH   4   5
ATOM      5  C   UNL     1      -2.460  -1.176  24.547  0.00  0.00    +0.031 C 
BRANCH   5   6
ATOM      6  C   UNL     1      -1.731  -1.509  24.747  0.00  0.00    +0.002 C 
ATOM      7  C   UNL     1      -1.625  -2.326  24.698  0.00  0.00    +0.000 C 
ATOM      8  C   UNL     1      -0.897  -2.659  24.897  0.00  0.00    +0.000 C 
ATOM      9  C   UNL     1      -0.275  -2.176  25.144  0.00  0.00    +0.000 C 
ATOM     10  C   UNL     1      -0.383  -1.359  25.193  0.00  0.00    +0.000 C 
ATOM     11  C   UNL     1      -1.111  -1.026  24.994  0.00  0.00    +0.000 C 
ENDBRANCH   5   6
ENDBRANCH   4   5
ENDBRANCH  12   4
ENDBRANCH  15  13
BRANCH  20  21
ATOM     21  S   UNL     1      -4.425   1.535  24.193  0.00  0.00    +0.064 S 
ATOM     22  O   UNL     1      -5.147   1.206  23.966  0.00  0.00    -0.153 OA
ATOM     23  O   UNL     1      -4.036   1.066  23.639  0.00  0.00    -0.153 OA
BRANCH  21  24
ATOM     24  C   UNL     1      -4.816   2.006  24.748  0.00  0.00    +0.122 A 
ATOM     25  C   UNL     1      -4.990   2.792  24.572  0.00  0.00    +0.020 A 
ATOM     26  C   UNL     1      -5.380   3.263  25.127  0.00  0.00    +0.001 A 
ATOM     27  C   UNL     1      -5.597   2.946  25.857  0.00  0.00    +0.000 A 
ATOM     28  C   UNL     1      -5.422   2.159  26.032  0.00  0.00    +0.001 A 
ATOM     29  C   UNL     1      -5.032   1.689  25.479  0.00  0.00    +0.020 A 
ENDBRANCH  21  24
ENDBRANCH  20  21
TORSDOF 8
ENDMDL
MODEL 5
REMARK VINA RESULT:     -10.5      1.288      4.210
REMARK  Name = 
REMARK  8 active torsions:
REMARK  status: ('A' for Active; 'I' for Inactive)
REMARK    1  A    between atoms: C_2  and  C_4
REMARK    2  A    between atoms: C_4  and  C_5
REMARK    3  A    between atoms: C_4  and  N_12
REMARK    4  A    between atoms: C_5  and  C_6
REMARK    5  A    between atoms: C_13  and  C_15
REMARK    6  A    between atoms: N_20  and  S_21
REMARK    7  A    between atoms: S_21  and  C_24
REMARK    8  A    between atoms: C_30  and  C_32
REMARK                            x       y       z     vdW  Elec       q    Type
REMARK                         _______ _______ _______ _____ _____    ______ ____
ROOT
ATOM     15  C   UNL     1      -2.507   1.611  24.479  0.00  0.00    +0.177 C 
ATOM     16  C   UNL     1      -2.778   0.884  24.761  0.00  0.00    +0.120 C 
ATOM     17  N   UNL     1      -2.287   0.222  24.735  0.00  0.00    -0.276 N 
ATOM     18  C   UNL     1      -1.524   0.286  24.429  0.00  0.00    +0.113 C 
ATOM     19  C   UNL     1      -1.252   1.013  24.147  0.00  0.00    +0.118 C 
ATOM     20  N   UNL     1      -1.743   1.675  24.173  0.00  0.00    -0.145 NA
ATOM     30  C   UNL     1      -2.558  -0.504  25.017  0.00  0.00    +0.225 C 
ATOM     31  O   UNL     1      -3.322  -0.569  25.324  0.00  0.00    -0.275 OA
ENDROOT
BRANCH  30  32
ATOM     32  C   UNL     1      -2.066  -1.167  24.991  0.00  0.00    +0.080 C 
ATOM     33  C   UNL     1      -2.201  -1.759  24.433  0.00  0.00    +0.028 C 
ATOM     34  C   UNL     1      -1.709  -2.421  24.407  0.00  0.00    +0.089 C 
ATOM     35  N   UNL     1      -1.083  -2.491  24.941  0.00  0.00    -0.218 NA
ATOM     36  C   UNL     1      -0.950  -1.898  25.499  0.00  0.00    +0.089 C 
ATOM     37  C   UNL     1      -1.441  -1.236  25.524  0.00  0.00    +0.028 C 
ENDBRANCH  30  32
BRANCH  15  13
ATOM     12  N   UNL     1      -3.474   2.408  25.166  0.00  0.00    -0.197 NA
ATOM     13  C   UNL     1      -2.998   2.272  24.505  0.00  0.00    +0.260 C 
ATOM     14  O   UNL     1      -3.015   2.798  23.870  0.00  0.00    -0.272 OA
BRANCH  12   4
ATOM      4  C   UNL     1      -3.965   3.070  25.191  0.00  0.00    +0.174 C 
BRANCH   4   2
ATOM      1  N   UNL     1      -3.783   4.488  25.218  0.00  0.00    -0.086 NA
ATOM      2  C   UNL     1      -3.718   3.752  25.585  0.00  0.00    +0.281 C 
ATOM      3  O   UNL     1      -3.405   3.698  26.347  0.00  0.00    -0.270 OA
ENDBRANCH   4   2
BRANCH   4   5
ATOM      5  C   UNL     1      -4.703   3.050  24.823  0.00  0.00    +0.031 C 
BRANCH   5   6
ATOM      6  C   UNL     1      -5.321   2.619  25.161  0.00  0.00    +0.002 C 
ATOM      7  C   UNL     1      -5.720   2.052  24.714  0.00  0.00    +0.000 C 
ATOM      8  C   UNL     1      -6.338   1.622  25.051  0.00  0.00    +0.000 C 
ATOM      9  C   UNL     1      -6.556   1.759  25.836  0.00  0.00    +0.000 C 
ATOM     10  C   UNL     1      -6.156   2.326  26.282  0.00  0.00    +0.000 C 
ATOM     11  C   UNL     1      -5.539   2.756  25.944  0.00  0.00    +0.000 C 
ENDBRANCH   5   6
ENDBRANCH   4   5
ENDBRANCH  12   4
ENDBRANCH  15  13
BRANCH  20  21
ATOM     21  S   UNL     1      -1.472   2.401  23.891  0.00  0.00    +0.064 S 
ATOM     22  O   UNL     1      -1.200   3.128  23.611  0.00  0.00    -0.153 OA
ATOM     23  O   UNL     1      -2.134   2.460  23.403  0.00  0.00    -0.153 OA
BRANCH  21  24
ATOM     24  C   UNL     1      -0.810   2.343  24.381  0.00  0.00    +0.122 A 
ATOM     25  C   UNL     1      -0.131   1.959  24.111  0.00  0.00    +0.020 A 
ATOM     26  C   UNL     1       0.531   1.901  24.600  0.00  0.00    +0.001 A 
ATOM     27  C   UNL     1       0.515   2.226  25.358  0.00  0.00    +0.000 A 
ATOM     28  C   UNL     1      -0.165   2.610  25.627  0.00  0.00    +0.001 A 
ATOM     29  C   UNL     1      -0.827   2.668  25.138  0.00  0.00    +0.020 A 
ENDBRANCH  21  24
ENDBRANCH  20  21
TORSDOF 8
ENDMDL
MODEL 6
REMARK VINA RESULT:     -10.5      1.527      4.125
REMARK  Name = 
REMARK  8 active torsions:
REMARK  status: ('A' for Active; 'I' for Inactive)
REMARK    1  A    between atoms: C_2  and  C_4
REMARK    2  A    between atoms: C_4  and  C_5
REMARK    3  A    between atoms: C_4  and  N_12
REMARK    4  A    between atoms: C_5  and  C_6
REMARK    5  A    between atoms: C_13  and  C_15
REMARK    6  A    between atoms: N_20  and  S_21
REMARK    7  A    between atoms: S_21  and  C_24
REMARK    8  A    between atoms: C_30  and  C_32
REMARK                            x       y       z     vdW  Elec       q    Type
REMARK                         _______ _______ _______ _____ _____    ______ ____
ROOT
ATOM     15  C   UNL     1      -2.692   1.544  24.723  0.00  0.00    +0.177 C 
ATOM     16  C   UNL     1      -3.276   2.077  24.960  0.00  0.00    +0.120 C 
ATOM     17  N   UNL     1      -4.061   1.831  25.020  0.00  0.00    -0.276 N 
ATOM     18  C   UNL     1      -4.262   1.051  24.842  0.00  0.00    +0.113 C 
ATOM     19  C   UNL     1      -3.680   0.517  24.605  0.00  0.00    +0.118 C 
ATOM     20  N   UNL     1      -2.895   0.764  24.545  0.00  0.00    -0.145 NA
ATOM     30  C   UNL     1      -4.643   2.364  25.257  0.00  0.00    +0.225 C 
ATOM     31  O   UNL     1      -4.442   3.144  25.435  0.00  0.00    -0.275 OA
ENDROOT
BRANCH  30  32
ATOM     32  C   UNL     1      -5.429   2.117  25.317  0.00  0.00    +0.080 C 
ATOM     33  C   UNL     1      -5.746   1.925  26.055  0.00  0.00    +0.028 C 
ATOM     34  C   UNL     1      -6.531   1.679  26.114  0.00  0.00    +0.089 C 
ATOM     35  N   UNL     1      -6.999   1.623  25.436  0.00  0.00    -0.218 NA
ATOM     36  C   UNL     1      -6.681   1.815  24.700  0.00  0.00    +0.089 C 
ATOM     37  C   UNL     1      -5.896   2.062  24.640  0.00  0.00    +0.028 C 
ENDBRANCH  30  32
BRANCH  15  13
ATOM     12  N   UNL     1      -1.606   2.339  25.201  0.00  0.00    -0.197 NA
ATOM     13  C   UNL     1      -1.908   1.791  24.663  0.00  0.00    +0.260 C 
ATOM     14  O   UNL     1      -1.425   1.490  24.067  0.00  0.00    -0.272 OA
BRANCH  12   4
ATOM      4  C   UNL     1      -0.821   2.586  25.142  0.00  0.00    +0.174 C 
BRANCH   4   2
ATOM      1  N   UNL     1       0.470   2.014  25.364  0.00  0.00    -0.086 NA
ATOM      2  C   UNL     1      -0.253   2.281  25.657  0.00  0.00    +0.281 C 
ATOM      3  O   UNL     1      -0.409   2.244  26.467  0.00  0.00    -0.270 OA
ENDBRANCH   4   2
BRANCH   4   5
ATOM      5  C   UNL     1      -0.604   3.136  24.568  0.00  0.00    +0.031 C 
BRANCH   5   6
ATOM      6  C   UNL     1      -0.747   3.940  24.692  0.00  0.00    +0.002 C 
ATOM      7  C   UNL     1      -0.336   4.504  24.252  0.00  0.00    +0.000 C 
ATOM      8  C   UNL     1      -0.479   5.307  24.376  0.00  0.00    +0.000 C 
ATOM      9  C   UNL     1      -1.033   5.546  24.940  0.00  0.00    +0.000 C 
ATOM     10  C   UNL     1      -1.443   4.981  25.379  0.00  0.00    +0.000 C 
ATOM     11  C   UNL     1      -1.300   4.178  25.255  0.00  0.00    +0.000 C 
ENDBRANCH   5   6
ENDBRANCH   4   5
ENDBRANCH  12   4
ENDBRANCH  15  13
BRANCH  20  21
ATOM     21  S   UNL     1      -2.311   0.231  24.308  0.00  0.00    +0.064 S 
ATOM     22  O   UNL     1      -1.728  -0.303  24.071  0.00  0.00    -0.153 OA
ATOM     23  O   UNL     1      -2.020   0.787  23.774  0.00  0.00    -0.153 OA
BRANCH  21  24
ATOM     24  C   UNL     1      -2.603  -0.326  24.843  0.00  0.00    +0.122 A 
ATOM     25  C   UNL     1      -3.211  -0.836  24.616  0.00  0.00    +0.020 A 
ATOM     26  C   UNL     1      -3.503  -1.393  25.151  0.00  0.00    +0.001 A 
ATOM     27  C   UNL     1      -3.187  -1.439  25.912  0.00  0.00    +0.000 A 
ATOM     28  C   UNL     1      -2.579  -0.929  26.137  0.00  0.00    +0.001 A 
ATOM     29  C   UNL     1      -2.287  -0.373  25.604  0.00  0.00    +0.020 A 
ENDBRANCH  21  24
ENDBRANCH  20  21
TORSDOF 8
ENDMDL
MODEL 7
REMARK VINA RESULT:      -9.7      1.793      3.641
REMARK  Name = 
REMARK  8 active torsions:
REMARK  status: ('A' for Active; 'I' for Inactive)
REMARK    1  A    between atoms: C_2  and  C_4
REMARK    2  A    between atoms: C_4  and  C_5
REMARK    3  A    between atoms: C_4  and  N_12
REMARK    4  A    between atoms: C_5  and  C_6
REMARK    5  A    between atoms: C_13  and  C_15
REMARK    6  A    between atoms: N_20  and  S_21
REMARK    7  A    between atoms: S_21  and  C_24
REMARK    8  A    between atoms: C_30  and  C_32
REMARK                            x       y       z     vdW  Elec       q    Type
REMARK                         _______ _______ _______ _____ _____    ______ ____
ROOT
ATOM     15  C   UNL     1      -2.063   0.981  23.873  0.00  0.00    +0.177 C 
ATOM     16  C   UNL     1      -1.482   0.398  23.820  0.00  0.00    +0.120 C 
ATOM     17  N   UNL     1      -0.705   0.604  23.634  0.00  0.00    -0.276 N 
ATOM     18  C   UNL     1      -0.509   1.394  23.502  0.00  0.00    +0.113 C 
ATOM     19  C   UNL     1      -1.089   1.978  23.555  0.00  0.00    +0.118 C 
ATOM     20  N   UNL     1      -1.866   1.772  23.741  0.00  0.00    -0.145 NA
ATOM     30  C   UNL     1      -0.125   0.021  23.582  0.00  0.00    +0.225 C 
ATOM     31  O   UNL     1      -0.321  -0.770  23.714  0.00  0.00    -0.275 OA
ENDROOT
BRANCH  30  32
ATOM     32  C   UNL     1       0.653   0.228  23.396  0.00  0.00    +0.080 C 
ATOM     33  C   UNL     1       1.004  -0.065  22.709  0.00  0.00    +0.028 C 
ATOM     34  C   UNL     1       1.781   0.142  22.523  0.00  0.00    +0.089 C 
ATOM     35  N   UNL     1       2.207   0.641  23.025  0.00  0.00    -0.218 NA
ATOM     36  C   UNL     1       1.855   0.932  23.712  0.00  0.00    +0.089 C 
ATOM     37  C   UNL     1       1.078   0.725  23.897  0.00  0.00    +0.028 C 
ENDBRANCH  30  32
BRANCH  15  13
ATOM     12  N   UNL     1      -2.987   0.153  24.581  0.00  0.00    -0.197 NA
ATOM     13  C   UNL     1      -2.839   0.775  24.058  0.00  0.00    +0.260 C 
ATOM     14  O   UNL     1      -3.468   1.189  23.722  0.00  0.00    -0.272 OA
BRANCH  12   4
ATOM      4  C   UNL     1      -3.764  -0.054  24.766  0.00  0.00    +0.174 C 
BRANCH   4   2
ATOM      1  N   UNL     1      -4.868   0.618  25.376  0.00  0.00    -0.086 NA
ATOM      2  C   UNL     1      -4.126   0.263  25.436  0.00  0.00    +0.281 C 
ATOM      3  O   UNL     1      -3.744   0.226  26.168  0.00  0.00    -0.270 OA
ENDBRANCH   4   2
BRANCH   4   5
ATOM      5  C   UNL     1      -4.178  -0.577  24.281  0.00  0.00    +0.031 C 
BRANCH   5   6
ATOM      6  C   UNL     1      -4.022  -1.387  24.319  0.00  0.00    +0.002 C 
ATOM      7  C   UNL     1      -3.660  -1.705  24.989  0.00  0.00    +0.000 C 
ATOM      8  C   UNL     1      -3.503  -2.515  25.027  0.00  0.00    +0.000 C 
ATOM      9  C   UNL     1      -3.709  -3.005  24.395  0.00  0.00    +0.000 C 
ATOM     10  C   UNL     1      -4.070  -2.685  23.726  0.00  0.00    +0.000 C 
ATOM     11  C   UNL     1      -4.227  -1.876  23.688  0.00  0.00    +0.000 C 
ENDBRANCH   5   6
ENDBRANCH   4   5
ENDBRANCH  12   4
ENDBRANCH  15  13
BRANCH  20  21
ATOM     21  S   UNL     1      -2.447   2.355  23.794  0.00  0.00    +0.064 S 
ATOM     22  O   UNL     1      -3.027   2.939  23.848  0.00  0.00    -0.153 OA
ATOM     23  O   UNL     1      -2.917   1.937  23.261  0.00  0.00    -0.153 OA
BRANCH  21  24
ATOM     24  C   UNL     1      -1.976   2.774  24.327  0.00  0.00    +0.122 A 
ATOM     25  C   UNL     1      -2.065   2.652  25.138  0.00  0.00    +0.020 A 
ATOM     26  C   UNL     1      -1.594   3.071  25.672  0.00  0.00    +0.001 A 
ATOM     27  C   UNL     1      -1.037   3.612  25.394  0.00  0.00    +0.000 A 
ATOM     28  C   UNL     1      -0.949   3.733  24.583  0.00  0.00    +0.001 A 
ATOM     29  C   UNL     1      -1.419   3.315  24.050  0.00  0.00    +0.020 A 
ENDBRANCH  21  24
ENDBRANCH  20  21
TORSDOF 8
ENDMDL
