MODEL 1
REMARK VINA RESULT:     -10.1      0.000      0.000
REMARK  Name = 
REMARK  7 active torsions:
REMARK  status: ('A' for Active; 'I' for Inactive)
REMARK    1  A    between atoms: O_2  and  C_3
REMARK    2  A    between atoms: C_3  and  C_4
REMARK    3  A    between atoms: C_4  and  N_5
REMARK    4  A    between atoms: N_5  and  C_6
REMARK    5  A    between atoms: C_12  and  N_13
REMARK    6  A    between atoms: N_16  and  C_17
REMARK    7  A    between atoms: C_21  and  O_22
REMARK                            x       y       z     vdW  Elec       q    Type
REMARK                         _______ _______ _______ _____ _____    ______ ____
ROOT
ATOM      6  C   UNL     1      -3.694   2.341  24.697  0.00  0.00    +0.161 C 
ATOM      7  C   UNL     1      -4.218   3.055  24.298  0.00  0.00    +0.254 C 
ATOM      8  O   UNL     1      -3.901   3.806  23.959  0.00  0.00    -0.327 OA
ATOM      9  C   UNL     1      -3.882   3.155  24.280  0.00  0.00    +0.176 C 
ATOM     10  C   UNL     1      -4.304   2.554  24.537  0.00  0.00    +0.170 C 
ATOM     11  O   UNL     1      -4.975   2.739  24.385  0.00  0.00    -0.327 OA
ATOM     12  C   UNL     1      -3.816   1.863  24.920  0.00  0.00    +0.158 C 
ATOM     25  C   UNL     1      -3.057   2.183  24.833  0.00  0.00    +0.195 C 
ATOM     26  O   UNL     1      -2.235   2.249  24.875  0.00  0.00    -0.220 OA
ENDROOT
BRANCH  12  13
ATOM     13  N   UNL     1      -4.063   1.147  25.249  0.00  0.00    -0.183 NA
ATOM     14  C   UNL     1      -3.886   0.436  24.869  0.00  0.00    +0.344 C 
ATOM     15  O   UNL     1      -3.462   0.441  24.161  0.00  0.00    -0.249 OA
ATOM     16  N   UNL     1      -4.133  -0.279  25.197  0.00  0.00    -0.161 NA
BRANCH  16  17
ATOM     17  C   UNL     1      -3.956  -0.990  24.818  0.00  0.00    +0.078 A 
ATOM     18  C   UNL     1      -4.433  -1.257  24.200  0.00  0.00    +0.017 A 
ATOM     19  C   UNL     1      -4.256  -1.968  23.821  0.00  0.00    +0.004 A 
ATOM     20  C   UNL     1      -3.602  -2.412  24.059  0.00  0.00    +0.037 A 
ATOM     21  C   UNL     1      -3.126  -2.143  24.676  0.00  0.00    +0.140 A 
ATOM     24  C   UNL     1      -3.302  -1.433  25.055  0.00  0.00    +0.054 A 
BRANCH  21  22
ATOM     22  O   UNL     1      -2.471  -2.587  24.915  0.00  0.00    -0.471 OA
ATOM     23  C   UNL     1      -1.761  -2.530  24.498  0.00  0.00    +0.252 C 
ENDBRANCH  21  22
ENDBRANCH  16  17
ENDBRANCH  12  13
BRANCH   6   5
ATOM      5  N   UNL     1      -3.195   2.948  24.445  0.00  0.00    -0.209 NA
BRANCH   5   4
ATOM      4  C   UNL     1      -2.970   3.542  24.970  0.00  0.00    +0.121 C 
BRANCH   4   3
ATOM      3  C   UNL     1      -2.309   4.009  24.808  0.00  0.00    +0.161 C 
BRANCH   3   2
ATOM      1  C   UNL     1      -1.411   5.055  25.183  0.00  0.00    +0.174 C 
ATOM      2  O   UNL     1      -2.075   4.592  25.342  0.00  0.00    -0.350 OA
ENDBRANCH   3   2
ENDBRANCH   4   3
ENDBRANCH   5   4
ENDBRANCH   6   5
TORSDOF 7
ENDMDL
MODEL 2
REMARK VINA RESULT:      -8.8      1.360      4.785
REMARK  Name = 
REMARK  7 active torsions:
REMARK  status: ('A' for Active; 'I' for Inactive)
REMARK    1  A    between atoms: O_2  and  C_3
REMARK    2  A    between atoms: C_3  and  C_4
REMARK    3  A    between atoms: C_4  and  N_5
REMARK    4  A    between atoms: N_5  and  C_6
REMARK    5  A    between atoms: C_12  and  N_13
REMARK    6  A    between atoms: N_16  and  C_17
REMARK    7  A    between atoms: C_21  and  O_22
REMARK                            x       y       z     vdW  Elec       q    Type
REMARK                         _______ _______ _______ _____ _____    ______ ____
ROOT
ATOM      6  C   UNL     1      -3.537  -1.036  24.517  0.00  0.00    +0.161 C 
ATOM      7  C   UNL     1      -3.812  -1.961  24.407  0.00  0.00    +0.254 C 
ATOM      8  O   UNL     1      -3.423  -2.665  24.768  0.00  0.00    -0.327 OA
ATOM      9  C   UNL     1      -3.531  -1.964  24.616  0.00  0.00    +0.176 C 
ATOM     10  C   UNL     1      -3.974  -1.451  24.234  0.00  0.00    +0.170 C 
ATOM     11  O   UNL     1      -4.463  -1.855  23.911  0.00  0.00    -0.327 OA
ATOM     12  C   UNL     1      -3.722  -0.562  24.331  0.00  0.00    +0.158 C 
ATOM     25  C   UNL     1      -3.068  -0.671  24.829  0.00  0.00    +0.195 C 
ATOM     26  O   UNL     1      -2.414  -0.489  25.297  0.00  0.00    -0.220 OA
ENDROOT
BRANCH  12  13
ATOM     13  N   UNL     1      -4.050   0.128  24.016  0.00  0.00    -0.183 NA
ATOM     14  C   UNL     1      -4.309   0.728  24.520  0.00  0.00    +0.344 C 
ATOM     15  O   UNL     1      -4.241   0.638  25.338  0.00  0.00    -0.249 OA
ATOM     16  N   UNL     1      -4.636   1.416  24.206  0.00  0.00    -0.161 NA
BRANCH  16  17
ATOM     17  C   UNL     1      -4.896   2.016  24.709  0.00  0.00    +0.078 A 
ATOM     18  C   UNL     1      -5.623   1.947  25.092  0.00  0.00    +0.017 A 
ATOM     19  C   UNL     1      -5.883   2.548  25.595  0.00  0.00    +0.004 A 
ATOM     20  C   UNL     1      -5.415   3.216  25.716  0.00  0.00    +0.037 A 
ATOM     21  C   UNL     1      -4.688   3.284  25.333  0.00  0.00    +0.140 A 
ATOM     24  C   UNL     1      -4.428   2.685  24.830  0.00  0.00    +0.054 A 
BRANCH  21  22
ATOM     22  O   UNL     1      -4.219   3.954  25.453  0.00  0.00    -0.471 OA
ATOM     23  C   UNL     1      -3.631   3.946  26.031  0.00  0.00    +0.252 C 
ENDBRANCH  21  22
ENDBRANCH  16  17
ENDBRANCH  12  13
BRANCH   6   5
ATOM      5  N   UNL     1      -3.033  -1.531  24.943  0.00  0.00    -0.209 NA
BRANCH   5   4
ATOM      4  C   UNL     1      -2.331  -1.798  24.601  0.00  0.00    +0.121 C 
BRANCH   4   3
ATOM      3  C   UNL     1      -1.696  -2.017  25.080  0.00  0.00    +0.161 C 
BRANCH   3   2
ATOM      1  C   UNL     1      -0.294  -2.272  25.191  0.00  0.00    +0.174 C 
ATOM      2  O   UNL     1      -0.983  -2.252  24.738  0.00  0.00    -0.350 OA
ENDBRANCH   3   2
ENDBRANCH   4   3
ENDBRANCH   5   4
ENDBRANCH   6   5
TORSDOF 7
ENDMDL
MODEL 3
REMARK VINA RESULT:      -8.7      1.885      2.673
REMARK  Name = 
REMARK  7 active torsions:
REMARK  status: ('A' for Active; 'I' for Inactive)
REMARK    1  A    between atoms: O_2  and  C_3
REMARK    2  A    between atoms: C_3  and  C_4
REMARK    3  A    between atoms: C_4  and  N_5
REMARK    4  A    between atoms: N_5  and  C_6
REMARK    5  A    between atoms: C_12  and  N_13
REMARK    6  A    between atoms: N_16  and  C_17
REMARK    7  A    between atoms: C_21  and  O_22
REMARK                            x       y       z     vdW  Elec       q    Type
REMARK                         _______ _______ _______ _____ _____    ______ ____
ROOT
ATOM      6  C   UNL     1      -0.841   1.861  25.041  0.00  0.00    +0.161 C 
ATOM      7  C   UNL     1      -0.014   2.231  24.691  0.00  0.00    +0.254 C 
ATOM      8  O   UNL     1       0.078   3.011  24.289  0.00  0.00    -0.327 OA
ATOM      9  C   UNL     1      -0.264   2.467  24.626  0.00  0.00    +0.176 C 
ATOM     10  C   UNL     1      -0.188   1.766  24.954  0.00  0.00    +0.170 C 
ATOM     11  O   UNL     1       0.505   1.620  24.885  0.00  0.00    -0.327 OA
ATOM     12  C   UNL     1      -0.972   1.401  25.294  0.00  0.00    +0.158 C 
ATOM     25  C   UNL     1      -1.492   2.016  25.097  0.00  0.00    +0.195 C 
ATOM     26  O   UNL     1      -2.194   2.443  25.031  0.00  0.00    -0.220 OA
ENDROOT
BRANCH  12  13
ATOM     13  N   UNL     1      -1.109   0.681  25.675  0.00  0.00    -0.183 NA
ATOM     14  C   UNL     1      -1.448   0.053  25.261  0.00  0.00    +0.344 C 
ATOM     15  O   UNL     1      -1.648   0.144  24.465  0.00  0.00    -0.249 OA
ATOM     16  N   UNL     1      -1.585  -0.665  25.641  0.00  0.00    -0.161 NA
BRANCH  16  17
ATOM     17  C   UNL     1      -1.923  -1.294  25.227  0.00  0.00    +0.078 A 
ATOM     18  C   UNL     1      -1.440  -1.853  24.861  0.00  0.00    +0.017 A 
ATOM     19  C   UNL     1      -1.778  -2.482  24.446  0.00  0.00    +0.004 A 
ATOM     20  C   UNL     1      -2.599  -2.550  24.398  0.00  0.00    +0.037 A 
ATOM     21  C   UNL     1      -3.081  -1.990  24.764  0.00  0.00    +0.140 A 
ATOM     24  C   UNL     1      -2.744  -1.362  25.178  0.00  0.00    +0.054 A 
BRANCH  21  22
ATOM     22  O   UNL     1      -3.903  -2.058  24.716  0.00  0.00    -0.471 OA
ATOM     23  C   UNL     1      -4.270  -2.104  23.979  0.00  0.00    +0.252 C 
ENDBRANCH  21  22
ENDBRANCH  16  17
ENDBRANCH  12  13
BRANCH   6   5
ATOM      5  N   UNL     1      -0.984   2.602  24.706  0.00  0.00    -0.209 NA
BRANCH   5   4
ATOM      4  C   UNL     1      -0.963   3.279  25.177  0.00  0.00    +0.121 C 
BRANCH   4   3
ATOM      3  C   UNL     1      -1.303   3.980  24.907  0.00  0.00    +0.161 C 
BRANCH   3   2
ATOM      1  C   UNL     1      -1.546   5.375  25.101  0.00  0.00    +0.174 C 
ATOM      2  O   UNL     1      -1.351   4.634  25.408  0.00  0.00    -0.350 OA
ENDBRANCH   3   2
ENDBRANCH   4   3
ENDBRANCH   5   4
ENDBRANCH   6   5
TORSDOF 7
ENDMDL
MODEL 4
REMARK VINA RESULT:      -8.6      1.879      5.417
REMARK  Name = 
REMARK  7 active torsions:
REMARK  status: ('A' for Active; 'I' for Inactive)
REMARK    1  A    between atoms: O_2  and  C_3
REMARK    2  A    between atoms: C_3  and  C_4
REMARK    3  A    between atoms: C_4  and  N_5
REMARK    4  A    between atoms: N_5  and  C_6
REMARK    5  A    between atoms: C_12  and  N_13
REMARK    6  A    between atoms: N_16  and  C_17
REMARK    7  A    between atoms: C_21  and  O_22
REMARK                            x       y       z     vdW  Elec       q    Type
REMARK                         _______ _______ _______ _____ _____    ______ ____
ROOT
ATOM      6  C   UNL     1      -1.223  -0.249  24.906  0.00  0.00    +0.161 C 
ATOM      7  C   UNL     1      -0.667  -0.898  24.445  0.00  0.00    +0.254 C 
ATOM      8  O   UNL     1      -0.954  -1.576  23.958  0.00  0.00    -0.327 OA
ATOM      9  C   UNL     1      -1.000  -0.986  24.380  0.00  0.00    +0.176 C 
ATOM     10  C   UNL     1      -0.602  -0.444  24.770  0.00  0.00    +0.170 C 
ATOM     11  O   UNL     1       0.080  -0.614  24.652  0.00  0.00    -0.327 OA
ATOM     12  C   UNL     1      -1.121   0.184  25.216  0.00  0.00    +0.158 C 
ATOM     25  C   UNL     1      -1.870  -0.103  25.007  0.00  0.00    +0.195 C 
ATOM     26  O   UNL     1      -2.692  -0.159  24.963  0.00  0.00    -0.220 OA
ENDROOT
BRANCH  12  13
ATOM     13  N   UNL     1      -0.903   0.831  25.680  0.00  0.00    -0.183 NA
ATOM     14  C   UNL     1      -1.112   1.594  25.448  0.00  0.00    +0.344 C 
ATOM     15  O   UNL     1      -1.539   1.711  24.750  0.00  0.00    -0.249 OA
ATOM     16  N   UNL     1      -0.894   2.241  25.911  0.00  0.00    -0.161 NA
BRANCH  16  17
ATOM     17  C   UNL     1      -1.103   3.004  25.678  0.00  0.00    +0.078 A 
ATOM     18  C   UNL     1      -0.620   3.422  25.156  0.00  0.00    +0.017 A 
ATOM     19  C   UNL     1      -0.829   4.186  24.923  0.00  0.00    +0.004 A 
ATOM     20  C   UNL     1      -1.520   4.531  25.212  0.00  0.00    +0.037 A 
ATOM     21  C   UNL     1      -2.002   4.112  25.734  0.00  0.00    +0.140 A 
ATOM     24  C   UNL     1      -1.794   3.350  25.967  0.00  0.00    +0.054 A 
BRANCH  21  22
ATOM     22  O   UNL     1      -2.695   4.457  26.023  0.00  0.00    -0.471 OA
ATOM     23  C   UNL     1      -3.423   4.265  25.686  0.00  0.00    +0.252 C 
ENDBRANCH  21  22
ENDBRANCH  16  17
ENDBRANCH  12  13
BRANCH   6   5
ATOM      5  N   UNL     1      -1.699  -0.796  24.512  0.00  0.00    -0.209 NA
BRANCH   5   4
ATOM      4  C   UNL     1      -1.982  -1.459  24.912  0.00  0.00    +0.121 C 
BRANCH   4   3
ATOM      3  C   UNL     1      -2.607  -1.896  24.596  0.00  0.00    +0.161 C 
BRANCH   3   2
ATOM      1  C   UNL     1      -3.555  -2.960  24.709  0.00  0.00    +0.174 C 
ATOM      2  O   UNL     1      -2.926  -2.526  25.022  0.00  0.00    -0.350 OA
ENDBRANCH   3   2
ENDBRANCH   4   3
ENDBRANCH   5   4
ENDBRANCH   6   5
TORSDOF 7
ENDMDL
MODEL 5
REMARK VINA RESULT:      -8.4      2.347      4.472
REMARK  Name = 
REMARK  7 active torsions:
REMARK  status: ('A' for Active; 'I' for Inactive)
REMARK    1  A    between atoms: O_2  and  C_3
REMARK    2  A    between atoms: C_3  and  C_4
REMARK    3  A    between atoms: C_4  and  N_5
REMARK    4  A    between atoms: N_5  and  C_6
REMARK    5  A    between atoms: C_12  and  N_13
REMARK    6  A    between atoms: N_16  and  C_17
REMARK    7  A    between atoms: C_21  and  O_22
REMARK                            x       y       z     vdW  Elec       q    Type
REMARK                         _______ _______ _______ _____ _____    ______ ____
ROOT
ATOM      6  C   UNL     1      -1.522   0.297  24.315  0.00  0.00    +0.161 C 
ATOM      7  C   UNL     1      -1.209  -0.480  24.807  0.00  0.00    +0.254 C 
ATOM      8  O   UNL     1      -0.366  -0.688  24.967  0.00  0.00    -0.327 OA
ATOM      9  C   UNL     1      -0.923  -0.302  24.708  0.00  0.00    +0.176 C 
ATOM     10  C   UNL     1      -1.697  -0.252  24.648  0.00  0.00    +0.170 C 
ATOM     11  O   UNL     1      -1.932  -0.828  24.995  0.00  0.00    -0.327 OA
ATOM     12  C   UNL     1      -2.012   0.486  24.180  0.00  0.00    +0.158 C 
ATOM     25  C   UNL     1      -1.283   0.834  23.992  0.00  0.00    +0.195 C 
ATOM     26  O   UNL     1      -0.740   1.371  23.681  0.00  0.00    -0.220 OA
ENDROOT
BRANCH  12  13
ATOM     13  N   UNL     1      -2.783   0.724  24.004  0.00  0.00    -0.183 NA
ATOM     14  C   UNL     1      -3.109   1.379  24.385  0.00  0.00    +0.344 C 
ATOM     15  O   UNL     1      -2.665   1.796  24.942  0.00  0.00    -0.249 OA
ATOM     16  N   UNL     1      -3.879   1.616  24.210  0.00  0.00    -0.161 NA
BRANCH  16  17
ATOM     17  C   UNL     1      -4.206   2.271  24.591  0.00  0.00    +0.078 A 
ATOM     18  C   UNL     1      -4.019   3.032  24.334  0.00  0.00    +0.017 A 
ATOM     19  C   UNL     1      -4.346   3.687  24.715  0.00  0.00    +0.004 A 
ATOM     20  C   UNL     1      -4.859   3.581  25.353  0.00  0.00    +0.037 A 
ATOM     21  C   UNL     1      -5.045   2.819  25.609  0.00  0.00    +0.140 A 
ATOM     24  C   UNL     1      -4.719   2.165  25.228  0.00  0.00    +0.054 A 
BRANCH  21  22
ATOM     22  O   UNL     1      -5.558   2.712  26.247  0.00  0.00    -0.471 OA
ATOM     23  C   UNL     1      -6.267   2.303  26.141  0.00  0.00    +0.252 C 
ENDBRANCH  21  22
ENDBRANCH  16  17
ENDBRANCH  12  13
BRANCH   6   5
ATOM      5  N   UNL     1      -0.698   0.299  24.345  0.00  0.00    -0.209 NA
BRANCH   5   4
ATOM      4  C   UNL     1      -0.263  -0.086  23.759  0.00  0.00    +0.121 C 
BRANCH   4   3
ATOM      3  C   UNL     1       0.509   0.154  23.593  0.00  0.00    +0.161 C 
BRANCH   3   2
ATOM      1  C   UNL     1       1.682   0.060  22.783  0.00  0.00    +0.174 C 
ATOM      2  O   UNL     1       0.941  -0.228  23.004  0.00  0.00    -0.350 OA
ENDBRANCH   3   2
ENDBRANCH   4   3
ENDBRANCH   5   4
ENDBRANCH   6   5
TORSDOF 7
ENDMDL
MODEL 6
REMARK VINA RESULT:      -8.3      1.220      4.928
REMARK  Name = 
REMARK  7 active torsions:
REMARK  status: ('A' for Active; 'I' for Inactive)
REMARK    1  A    between atoms: O_2  and  C_3
REMARK    2  A    between atoms: C_3  and  C_4
REMARK    3  A    between atoms: C_4  and  N_5
REMARK    4  A    between atoms: N_5  and  C_6
REMARK    5  A    between atoms: C_12  and  N_13
REMARK    6  A    between atoms: N_16  and  C_17
REMARK    7  A    between atoms: C_21  and  O_22
REMARK                            x       y       z     vdW  Elec       q    Type
REMARK                         _______ _______ _______ _____ _____    ______ ____
ROOT
ATOM      6  C   UNL     1      -3.344   0.120  24.780  0.00  0.00    +0.161 C 
ATOM      7  C   UNL     1      -4.074  -0.476  25.014  0.00  0.00    +0.254 C 
ATOM      8  O   UNL     1      -3.996  -1.295  25.332  0.00  0.00    -0.327 OA
ATOM      9  C   UNL     1      -3.778  -0.650  25.081  0.00  0.00    +0.176 C 
ATOM     10  C   UNL     1      -4.004   0.043  24.812  0.00  0.00    +0.170 C 
ATOM     11  O   UNL     1      -4.715   0.009  24.827  0.00  0.00    -0.327 OA
ATOM     12  C   UNL     1      -3.315   0.624  24.584  0.00  0.00    +0.158 C 
ATOM     25  C   UNL     1      -2.673   0.135  24.772  0.00  0.00    +0.195 C 
ATOM     26  O   UNL     1      -1.892  -0.114  24.867  0.00  0.00    -0.220 OA
ENDROOT
BRANCH  12  13
ATOM     13  N   UNL     1      -3.336   1.393  24.285  0.00  0.00    -0.183 NA
ATOM     14  C   UNL     1      -3.043   2.019  24.736  0.00  0.00    +0.344 C 
ATOM     15  O   UNL     1      -2.729   1.875  25.486  0.00  0.00    -0.249 OA
ATOM     16  N   UNL     1      -3.064   2.787  24.437  0.00  0.00    -0.161 NA
BRANCH  16  17
ATOM     17  C   UNL     1      -2.771   3.413  24.888  0.00  0.00    +0.078 A 
ATOM     18  C   UNL     1      -3.249   3.769  25.459  0.00  0.00    +0.017 A 
ATOM     19  C   UNL     1      -2.957   4.395  25.910  0.00  0.00    +0.004 A 
ATOM     20  C   UNL     1      -2.186   4.665  25.791  0.00  0.00    +0.037 A 
ATOM     21  C   UNL     1      -1.709   4.308  25.220  0.00  0.00    +0.140 A 
ATOM     24  C   UNL     1      -2.001   3.683  24.769  0.00  0.00    +0.054 A 
BRANCH  21  22
ATOM     22  O   UNL     1      -0.938   4.578  25.100  0.00  0.00    -0.471 OA
ATOM     23  C   UNL     1      -0.807   5.348  24.833  0.00  0.00    +0.252 C 
ENDBRANCH  21  22
ENDBRANCH  16  17
ENDBRANCH  12  13
BRANCH   6   5
ATOM      5  N   UNL     1      -3.043  -0.597  25.058  0.00  0.00    -0.209 NA
BRANCH   5   4
ATOM      4  C   UNL     1      -2.887  -1.211  24.530  0.00  0.00    +0.121 C 
BRANCH   4   3
ATOM      3  C   UNL     1      -2.362  -1.812  24.739  0.00  0.00    +0.161 C 
BRANCH   3   2
ATOM      1  C   UNL     1      -1.548  -2.906  24.310  0.00  0.00    +0.174 C 
ATOM      2  O   UNL     1      -2.220  -2.436  24.218  0.00  0.00    -0.350 OA
ENDBRANCH   3   2
ENDBRANCH   4   3
ENDBRANCH   5   4
ENDBRANCH   6   5
TORSDOF 7
ENDMDL
