MODEL 1
REMARK VINA RESULT:      -8.4      0.000      0.000
REMARK  Name = 
REMARK  6 active torsions:
REMARK  status: ('A' for Active; 'I' for Inactive)
REMARK    1  A    between atoms: O_2  and  C_3
REMARK    2  A    between atoms: C_6  and  C_9
REMARK    3  A    between atoms: N_14  and  C_15
REMARK    4  A    between atoms: C_19  and  O_23
REMARK    5  A    between atoms: O_23  and  C_24
REMARK    6  A    between atoms: C_24  and  C_25
REMARK                            x       y       z     vdW  Elec       q    Type
REMARK                         _______ _______ _______ _____ _____    ______ ____
ROOT
ATOM      9  C   UNL     1      -3.451   2.192  24.455  0.00  0.00    +0.086 A 
ATOM     10  C   UNL     1      -3.318   2.698  23.817  0.00  0.00    +0.040 A 
ATOM     11  C   UNL     1      -2.560   2.767  23.496  0.00  0.00    +0.103 A 
ATOM     12  N   UNL     1      -1.936   2.330  23.814  0.00  0.00    -0.211 NA
ATOM     13  C   UNL     1      -2.071   1.824  24.452  0.00  0.00    +0.237 A 
ATOM     14  N   UNL     1      -1.447   1.387  24.770  0.00  0.00    -0.200 NA
ATOM     28  N   UNL     1      -2.828   1.755  24.772  0.00  0.00    -0.212 NA
ENDROOT
BRANCH  14  15
ATOM     15  C   UNL     1      -0.689   1.456  24.450  0.00  0.00    +0.154 C 
ATOM     16  C   UNL     1      -0.225   2.137  24.446  0.00  0.00    +0.166 C 
ATOM     17  O   UNL     1       0.487   1.957  24.071  0.00  0.00    -0.349 OA
ATOM     18  C   UNL     1       0.463   1.165  23.843  0.00  0.00    +0.173 C 
ATOM     19  C   UNL     1       0.888   0.564  23.471  0.00  0.00    +0.175 C 
ATOM     20  C   UNL     1       0.423  -0.117  23.474  0.00  0.00    +0.174 C 
ATOM     21  O   UNL     1      -0.289   0.062  23.849  0.00  0.00    -0.349 OA
ATOM     22  C   UNL     1      -0.264   0.855  24.077  0.00  0.00    +0.167 C 
BRANCH  19  23
ATOM     23  O   UNL     1       1.645   0.633  23.150  0.00  0.00    -0.342 OA
BRANCH  23  24
ATOM     24  C   UNL     1       1.985  -0.006  22.753  0.00  0.00    +0.230 C 
BRANCH  24  25
ATOM     25  C   UNL     1       2.691   0.095  22.338  0.00  0.00    +0.291 C 
ATOM     26  N   UNL     1       3.385   0.282  22.744  0.00  0.00    -0.086 NA
ATOM     27  O   UNL     1       2.703   0.007  21.518  0.00  0.00    -0.269 OA
ENDBRANCH  24  25
ENDBRANCH  23  24
ENDBRANCH  19  23
ENDBRANCH  14  15
BRANCH   9   6
ATOM      3  C   UNL     1      -5.724   1.986  25.414  0.00  0.00    +0.139 A 
ATOM      4  C   UNL     1      -5.290   2.680  25.525  0.00  0.00    +0.037 A 
ATOM      5  C   UNL     1      -4.533   2.748  25.205  0.00  0.00    +0.005 A 
ATOM      6  C   UNL     1      -4.208   2.124  24.774  0.00  0.00    +0.018 A 
ATOM      7  C   UNL     1      -4.641   1.431  24.663  0.00  0.00    +0.005 A 
ATOM      8  C   UNL     1      -5.399   1.362  24.983  0.00  0.00    +0.037 A 
BRANCH   3   2
ATOM      1  C   UNL     1      -6.575   1.757  26.538  0.00  0.00    +0.252 C 
ATOM      2  O   UNL     1      -6.480   1.918  25.734  0.00  0.00    -0.471 OA
ENDBRANCH   3   2
ENDBRANCH   9   6
TORSDOF 6
ENDMDL
MODEL 2
REMARK VINA RESULT:      -7.7      1.642      6.461
REMARK  Name = 
REMARK  6 active torsions:
REMARK  status: ('A' for Active; 'I' for Inactive)
REMARK    1  A    between atoms: O_2  and  C_3
REMARK    2  A    between atoms: C_6  and  C_9
REMARK    3  A    between atoms: N_14  and  C_15
REMARK    4  A    between atoms: C_19  and  O_23
REMARK    5  A    between atoms: O_23  and  C_24
REMARK    6  A    between atoms: C_24  and  C_25
REMARK                            x       y       z     vdW  Elec       q    Type
REMARK                         _______ _______ _______ _____ _____    ______ ____
ROOT
ATOM      9  C   UNL     1       0.136   0.388  23.579  0.00  0.00    +0.086 A 
ATOM     10  C   UNL     1      -0.112  -0.163  24.141  0.00  0.00    +0.040 A 
ATOM     11  C   UNL     1      -0.877  -0.125  24.447  0.00  0.00    +0.103 A 
ATOM     12  N   UNL     1      -1.395   0.464  24.191  0.00  0.00    -0.211 NA
ATOM     13  C   UNL     1      -1.147   1.016  23.629  0.00  0.00    +0.237 A 
ATOM     14  N   UNL     1      -1.665   1.605  23.374  0.00  0.00    -0.200 NA
ATOM     28  N   UNL     1      -0.382   0.978  23.324  0.00  0.00    -0.212 NA
ENDROOT
BRANCH  14  15
ATOM     15  C   UNL     1      -2.431   1.643  23.679  0.00  0.00    +0.154 C 
ATOM     16  C   UNL     1      -2.985   1.033  23.674  0.00  0.00    +0.166 C 
ATOM     17  O   UNL     1      -3.672   1.311  24.036  0.00  0.00    -0.349 OA
ATOM     18  C   UNL     1      -3.543   2.092  24.264  0.00  0.00    +0.173 C 
ATOM     19  C   UNL     1      -3.887   2.747  24.628  0.00  0.00    +0.175 C 
ATOM     20  C   UNL     1      -3.332   3.358  24.633  0.00  0.00    +0.174 C 
ATOM     21  O   UNL     1      -2.645   3.080  24.272  0.00  0.00    -0.349 OA
ATOM     22  C   UNL     1      -2.775   2.297  24.044  0.00  0.00    +0.167 C 
BRANCH  19  23
ATOM     23  O   UNL     1      -4.653   2.785  24.934  0.00  0.00    -0.342 OA
BRANCH  23  24
ATOM     24  C   UNL     1      -4.845   3.360  25.494  0.00  0.00    +0.230 C 
BRANCH  24  25
ATOM     25  C   UNL     1      -5.606   3.386  25.813  0.00  0.00    +0.291 C 
ATOM     26  N   UNL     1      -5.895   2.745  26.243  0.00  0.00    -0.086 NA
ATOM     27  O   UNL     1      -6.076   4.055  25.702  0.00  0.00    -0.269 OA
ENDBRANCH  24  25
ENDBRANCH  23  24
ENDBRANCH  19  23
ENDBRANCH  14  15
BRANCH   9   6
ATOM      3  C   UNL     1       2.432   0.274  22.663  0.00  0.00    +0.139 A 
ATOM      4  C   UNL     1       1.857  -0.257  22.402  0.00  0.00    +0.037 A 
ATOM      5  C   UNL     1       1.092  -0.219  22.708  0.00  0.00    +0.005 A 
ATOM      6  C   UNL     1       0.901   0.350  23.274  0.00  0.00    +0.018 A 
ATOM      7  C   UNL     1       1.476   0.881  23.535  0.00  0.00    +0.005 A 
ATOM      8  C   UNL     1       2.242   0.843  23.230  0.00  0.00    +0.037 A 
BRANCH   3   2
ATOM      1  C   UNL     1       3.810   0.648  22.727  0.00  0.00    +0.252 C 
ATOM      2  O   UNL     1       3.197   0.236  22.358  0.00  0.00    -0.471 OA
ENDBRANCH   3   2
ENDBRANCH   9   6
TORSDOF 6
ENDMDL
MODEL 3
REMARK VINA RESULT:      -7.0      2.427      3.051
REMARK  Name = 
REMARK  6 active torsions:
REMARK  status: ('A' for Active; 'I' for Inactive)
REMARK    1  A    between atoms: O_2  and  C_3
REMARK    2  A    between atoms: C_6  and  C_9
REMARK    3  A    between atoms: N_14  and  C_15
REMARK    4  A    between atoms: C_19  and  O_23
REMARK    5  A    between atoms: O_23  and  C_24
REMARK    6  A    between atoms: C_24  and  C_25
REMARK                            x       y       z     vdW  Elec       q    Type
REMARK                         _______ _______ _______ _____ _____    ______ ____
ROOT
ATOM      9  C   UNL     1      -1.739  -0.435  24.544  0.00  0.00    +0.086 A 
ATOM     10  C   UNL     1      -1.456  -0.275  25.303  0.00  0.00    +0.040 A 
ATOM     11  C   UNL     1      -0.708   0.060  25.402  0.00  0.00    +0.103 A 
ATOM     12  N   UNL     1      -0.243   0.235  24.743  0.00  0.00    -0.211 NA
ATOM     13  C   UNL     1      -0.527   0.074  23.984  0.00  0.00    +0.237 A 
ATOM     14  N   UNL     1      -0.062   0.249  23.325  0.00  0.00    -0.200 NA
ATOM     28  N   UNL     1      -1.274  -0.260  23.885  0.00  0.00    -0.212 NA
ENDROOT
BRANCH  14  15
ATOM     15  C   UNL     1       0.686   0.584  23.424  0.00  0.00    +0.154 C 
ATOM     16  C   UNL     1       0.867   1.231  23.902  0.00  0.00    +0.166 C 
ATOM     17  O   UNL     1       1.676   1.377  23.836  0.00  0.00    -0.349 OA
ATOM     18  C   UNL     1       1.995   0.821  23.317  0.00  0.00    +0.173 C 
ATOM     19  C   UNL     1       2.691   0.567  22.955  0.00  0.00    +0.175 C 
ATOM     20  C   UNL     1       2.509  -0.081  22.478  0.00  0.00    +0.174 C 
ATOM     21  O   UNL     1       1.700  -0.227  22.544  0.00  0.00    -0.349 OA
ATOM     22  C   UNL     1       1.382   0.331  23.063  0.00  0.00    +0.167 C 
BRANCH  19  23
ATOM     23  O   UNL     1       3.439   0.902  23.054  0.00  0.00    -0.342 OA
BRANCH  23  24
ATOM     24  C   UNL     1       4.112   0.481  22.831  0.00  0.00    +0.230 C 
BRANCH  24  25
ATOM     25  C   UNL     1       4.823   0.595  23.235  0.00  0.00    +0.291 C 
ATOM     26  N   UNL     1       5.380  -0.013  23.269  0.00  0.00    -0.086 NA
ATOM     27  O   UNL     1       4.976   1.316  23.605  0.00  0.00    -0.269 OA
ENDBRANCH  24  25
ENDBRANCH  23  24
ENDBRANCH  19  23
ENDBRANCH  14  15
BRANCH   9   6
ATOM      3  C   UNL     1      -3.982  -1.439  24.248  0.00  0.00    +0.139 A 
ATOM      4  C   UNL     1      -3.334  -1.919  24.428  0.00  0.00    +0.037 A 
ATOM      5  C   UNL     1      -2.587  -1.584  24.527  0.00  0.00    +0.005 A 
ATOM      6  C   UNL     1      -2.486  -0.770  24.446  0.00  0.00    +0.018 A 
ATOM      7  C   UNL     1      -3.132  -0.290  24.266  0.00  0.00    +0.005 A 
ATOM      8  C   UNL     1      -3.880  -0.624  24.167  0.00  0.00    +0.037 A 
BRANCH   3   2
ATOM      1  C   UNL     1      -4.816  -2.463  23.704  0.00  0.00    +0.252 C 
ATOM      2  O   UNL     1      -4.729  -1.774  24.150  0.00  0.00    -0.471 OA
ENDBRANCH   3   2
ENDBRANCH   9   6
TORSDOF 6
ENDMDL
MODEL 4
REMARK VINA RESULT:      -6.8      1.158      1.705
REMARK  Name = 
REMARK  6 active torsions:
REMARK  status: ('A' for Active; 'I' for Inactive)
REMARK    1  A    between atoms: O_2  and  C_3
REMARK    2  A    between atoms: C_6  and  C_9
REMARK    3  A    between atoms: N_14  and  C_15
REMARK    4  A    between atoms: C_19  and  O_23
REMARK    5  A    between atoms: O_23  and  C_24
REMARK    6  A    between atoms: C_24  and  C_25
REMARK                            x       y       z     vdW  Elec       q    Type
REMARK                         _______ _______ _______ _____ _____    ______ ____
ROOT
ATOM      9  C   UNL     1      -2.965   0.591  24.755  0.00  0.00    +0.086 A 
ATOM     10  C   UNL     1      -2.831  -0.134  25.124  0.00  0.00    +0.040 A 
ATOM     11  C   UNL     1      -2.115  -0.529  25.009  0.00  0.00    +0.103 A 
ATOM     12  N   UNL     1      -1.534  -0.199  24.525  0.00  0.00    -0.211 NA
ATOM     13  C   UNL     1      -1.669   0.528  24.156  0.00  0.00    +0.237 A 
ATOM     14  N   UNL     1      -1.088   0.858  23.673  0.00  0.00    -0.200 NA
ATOM     28  N   UNL     1      -2.384   0.922  24.271  0.00  0.00    -0.212 NA
ENDROOT
BRANCH  14  15
ATOM     15  C   UNL     1      -0.373   0.463  23.558  0.00  0.00    +0.154 C 
ATOM     16  C   UNL     1      -0.278  -0.350  23.461  0.00  0.00    +0.166 C 
ATOM     17  O   UNL     1       0.526  -0.503  23.363  0.00  0.00    -0.349 OA
ATOM     18  C   UNL     1       0.929   0.215  23.400  0.00  0.00    +0.173 C 
ATOM     19  C   UNL     1       1.675   0.565  23.363  0.00  0.00    +0.175 C 
ATOM     20  C   UNL     1       1.581   1.379  23.460  0.00  0.00    +0.174 C 
ATOM     21  O   UNL     1       0.776   1.532  23.557  0.00  0.00    -0.349 OA
ATOM     22  C   UNL     1       0.373   0.812  23.520  0.00  0.00    +0.167 C 
BRANCH  19  23
ATOM     23  O   UNL     1       2.391   0.171  23.248  0.00  0.00    -0.342 OA
BRANCH  23  24
ATOM     24  C   UNL     1       3.025   0.561  22.894  0.00  0.00    +0.230 C 
BRANCH  24  25
ATOM     25  C   UNL     1       3.779   0.225  22.912  0.00  0.00    +0.291 C 
ATOM     26  N   UNL     1       4.447   0.706  22.866  0.00  0.00    -0.086 NA
ATOM     27  O   UNL     1       3.863  -0.593  22.976  0.00  0.00    -0.269 OA
ENDBRANCH  24  25
ENDBRANCH  23  24
ENDBRANCH  19  23
ENDBRANCH  14  15
BRANCH   9   6
ATOM      3  C   UNL     1      -5.112   1.774  25.099  0.00  0.00    +0.139 A 
ATOM      4  C   UNL     1      -4.413   2.205  25.005  0.00  0.00    +0.037 A 
ATOM      5  C   UNL     1      -3.699   1.810  24.891  0.00  0.00    +0.005 A 
ATOM      6  C   UNL     1      -3.680   0.986  24.869  0.00  0.00    +0.018 A 
ATOM      7  C   UNL     1      -4.378   0.555  24.963  0.00  0.00    +0.005 A 
ATOM      8  C   UNL     1      -5.094   0.950  25.078  0.00  0.00    +0.037 A 
BRANCH   3   2
ATOM      1  C   UNL     1      -5.861   2.822  25.716  0.00  0.00    +0.252 C 
ATOM      2  O   UNL     1      -5.827   2.169  25.214  0.00  0.00    -0.471 OA
ENDBRANCH   3   2
ENDBRANCH   9   6
TORSDOF 6
ENDMDL
