MODEL 1
REMARK VINA RESULT:      -8.9      0.000      0.000
REMARK  Name = 
REMARK  4 active torsions:
REMARK  status: ('A' for Active; 'I' for Inactive)
REMARK    1  A    between atoms: C_2  and  C_5
REMARK    2  A    between atoms: C_14  and  C_17
REMARK    3  A    between atoms: N_19  and  C_20
REMARK    4  A    between atoms: N_28  and  C_31
REMARK                            x       y       z     vdW  Elec       q    Type
REMARK                         _______ _______ _______ _____ _____    ______ ____
ROOT
ATOM     17  C   UNL     1      -1.273   0.909  24.277  0.00  0.00    +0.241 C 
ATOM     18  O   UNL     1      -0.945   0.335  24.771  0.00  0.00    -0.273 OA
ATOM     19  N   UNL     1      -0.899   1.107  23.569  0.00  0.00    -0.207 NA
ENDROOT
BRANCH  17  14
ATOM      5  C   UNL     1      -5.499   2.396  25.293  0.00  0.00    +0.157 A 
ATOM      6  C   UNL     1      -5.482   3.174  25.565  0.00  0.00    +0.044 A 
ATOM      7  C   UNL     1      -4.763   3.576  25.622  0.00  0.00    +0.103 A 
ATOM      8  N   UNL     1      -4.062   3.198  25.408  0.00  0.00    -0.212 NA
ATOM      9  C   UNL     1      -4.079   2.419  25.135  0.00  0.00    +0.220 A 
ATOM     10  N   UNL     1      -4.797   2.018  25.078  0.00  0.00    -0.210 NA
ATOM     11  N   UNL     1      -3.378   2.042  24.921  0.00  0.00    -0.278 N 
ATOM     12  C   UNL     1      -2.659   2.443  24.978  0.00  0.00    +0.094 C 
ATOM     13  C   UNL     1      -1.957   2.065  24.764  0.00  0.00    +0.031 C 
ATOM     14  C   UNL     1      -1.975   1.287  24.492  0.00  0.00    +0.082 C 
ATOM     15  C   UNL     1      -2.693   0.886  24.434  0.00  0.00    +0.031 C 
ATOM     16  C   UNL     1      -3.394   1.263  24.649  0.00  0.00    +0.094 C 
BRANCH   5   2
ATOM      1  F   UNL     1      -6.937   1.594  25.178  0.00  0.00    -0.164 F 
ATOM      2  C   UNL     1      -6.218   1.995  25.235  0.00  0.00    +0.435 C 
ATOM      3  F   UNL     1      -6.249   2.166  24.429  0.00  0.00    -0.164 F 
ATOM      4  F   UNL     1      -6.187   1.823  26.042  0.00  0.00    -0.164 F 
ENDBRANCH   5   2
ENDBRANCH  17  14
BRANCH  19  20
ATOM     20  C   UNL     1      -0.197   0.729  23.354  0.00  0.00    +0.099 C 
ATOM     21  C   UNL     1      -0.222   0.006  22.958  0.00  0.00    +0.043 C 
ATOM     22  C   UNL     1       0.479  -0.371  22.743  0.00  0.00    +0.097 C 
ATOM     23  N   UNL     1       1.207  -0.025  22.925  0.00  0.00    -0.257 N 
ATOM     24  C   UNL     1       1.231   0.698  23.322  0.00  0.00    +0.156 C 
ATOM     25  C   UNL     1       0.529   1.075  23.536  0.00  0.00    +0.051 C 
ATOM     26  C   UNL     1       2.023   0.904  23.426  0.00  0.00    +0.254 C 
ATOM     27  O   UNL     1       2.301   1.586  23.798  0.00  0.00    -0.272 OA
ATOM     28  N   UNL     1       2.487   0.309  23.095  0.00  0.00    -0.191 N 
ATOM     29  C   UNL     1       1.982  -0.265  22.785  0.00  0.00    +0.317 C 
ATOM     30  O   UNL     1       2.214  -0.959  22.402  0.00  0.00    -0.252 OA
BRANCH  28  31
ATOM     31  C   UNL     1       3.312   0.290  23.076  0.00  0.00    +0.062 A 
ATOM     32  C   UNL     1       3.726   0.830  22.609  0.00  0.00    +0.016 A 
ATOM     33  C   UNL     1       4.551   0.812  22.590  0.00  0.00    +0.013 A 
ATOM     34  C   UNL     1       4.961   0.254  23.038  0.00  0.00    +0.058 A 
ATOM     35 CL   UNL     1       5.786   0.236  23.020  0.00  0.00    -0.082 Cl
ATOM     36  C   UNL     1       4.548  -0.285  23.505  0.00  0.00    +0.013 A 
ATOM     37  C   UNL     1       3.723  -0.267  23.524  0.00  0.00    +0.016 A 
ENDBRANCH  28  31
ENDBRANCH  19  20
TORSDOF 4
ENDMDL
MODEL 2
REMARK VINA RESULT:      -7.6      4.073      7.765
REMARK  Name = 
REMARK  4 active torsions:
REMARK  status: ('A' for Active; 'I' for Inactive)
REMARK    1  A    between atoms: C_2  and  C_5
REMARK    2  A    between atoms: C_14  and  C_17
REMARK    3  A    between atoms: N_19  and  C_20
REMARK    4  A    between atoms: N_28  and  C_31
REMARK                            x       y       z     vdW  Elec       q    Type
REMARK                         _______ _______ _______ _____ _____    ______ ____
ROOT
ATOM     17  C   UNL     1      -0.181   0.228  23.551  0.00  0.00    +0.241 C 
ATOM     18  O   UNL     1      -0.763   0.048  22.994  0.00  0.00    -0.273 OA
ATOM     19  N   UNL     1      -0.393   0.391  24.332  0.00  0.00    -0.207 NA
ENDROOT
BRANCH  17  14
ATOM      5  C   UNL     1       4.373   0.474  22.996  0.00  0.00    +0.157 A 
ATOM      6  C   UNL     1       4.583   0.329  22.212  0.00  0.00    +0.044 A 
ATOM      7  C   UNL     1       4.000   0.167  21.651  0.00  0.00    +0.103 A 
ATOM      8  N   UNL     1       3.207   0.150  21.874  0.00  0.00    -0.212 NA
ATOM      9  C   UNL     1       2.995   0.295  22.658  0.00  0.00    +0.220 A 
ATOM     10  N   UNL     1       3.578   0.457  23.220  0.00  0.00    -0.210 NA
ATOM     11  N   UNL     1       2.202   0.278  22.882  0.00  0.00    -0.278 N 
ATOM     12  C   UNL     1       1.619   0.117  22.321  0.00  0.00    +0.094 C 
ATOM     13  C   UNL     1       0.824   0.100  22.544  0.00  0.00    +0.031 C 
ATOM     14  C   UNL     1       0.613   0.245  23.328  0.00  0.00    +0.082 C 
ATOM     15  C   UNL     1       1.196   0.406  23.889  0.00  0.00    +0.031 C 
ATOM     16  C   UNL     1       1.990   0.423  23.666  0.00  0.00    +0.094 C 
BRANCH   5   2
ATOM      1  F   UNL     1       5.538   0.797  24.118  0.00  0.00    -0.164 F 
ATOM      2  C   UNL     1       4.956   0.635  23.557  0.00  0.00    +0.435 C 
ATOM      3  F   UNL     1       4.919   1.437  23.364  0.00  0.00    -0.164 F 
ATOM      4  F   UNL     1       4.992  -0.166  23.750  0.00  0.00    -0.164 F 
ENDBRANCH   5   2
ENDBRANCH  17  14
BRANCH  19  20
ATOM     20  C   UNL     1      -1.188   0.374  24.555  0.00  0.00    +0.099 C 
ATOM     21  C   UNL     1      -1.526  -0.328  24.826  0.00  0.00    +0.043 C 
ATOM     22  C   UNL     1      -2.319  -0.344  25.049  0.00  0.00    +0.097 C 
ATOM     23  N   UNL     1      -2.776   0.341  25.001  0.00  0.00    -0.257 N 
ATOM     24  C   UNL     1      -2.439   1.043  24.730  0.00  0.00    +0.156 C 
ATOM     25  C   UNL     1      -1.644   1.060  24.507  0.00  0.00    +0.051 C 
ATOM     26  C   UNL     1      -3.020   1.627  24.742  0.00  0.00    +0.254 C 
ATOM     27  O   UNL     1      -2.922   2.415  24.515  0.00  0.00    -0.272 OA
ATOM     28  N   UNL     1      -3.718   1.287  25.020  0.00  0.00    -0.191 N 
ATOM     29  C   UNL     1      -3.566   0.492  25.180  0.00  0.00    +0.317 C 
ATOM     30  O   UNL     1      -4.111  -0.057  25.470  0.00  0.00    -0.252 OA
BRANCH  28  31
ATOM     31  C   UNL     1      -4.440   1.673  25.121  0.00  0.00    +0.062 A 
ATOM     32  C   UNL     1      -5.091   1.458  24.661  0.00  0.00    +0.016 A 
ATOM     33  C   UNL     1      -5.813   1.844  24.762  0.00  0.00    +0.013 A 
ATOM     34  C   UNL     1      -5.884   2.445  25.323  0.00  0.00    +0.058 A 
ATOM     35 CL   UNL     1      -6.606   2.831  25.424  0.00  0.00    -0.082 Cl
ATOM     36  C   UNL     1      -5.234   2.660  25.783  0.00  0.00    +0.013 A 
ATOM     37  C   UNL     1      -4.512   2.274  25.682  0.00  0.00    +0.016 A 
ENDBRANCH  28  31
ENDBRANCH  19  20
TORSDOF 4
ENDMDL
MODEL 3
REMARK VINA RESULT:      -7.4     16.186     17.927
REMARK  Name = 
REMARK  4 active torsions:
REMARK  status: ('A' for Active; 'I' for Inactive)
REMARK    1  A    between atoms: C_2  and  C_5
REMARK    2  A    between atoms: C_14  and  C_17
REMARK    3  A    between atoms: N_19  and  C_20
REMARK    4  A    between atoms: N_28  and  C_31
REMARK                            x       y       z     vdW  Elec       q    Type
REMARK                         _______ _______ _______ _____ _____    ______ ____
ROOT
ATOM     17  C   UNL     1      -7.247 -10.034  12.937  0.00  0.00    +0.241 C 
ATOM     18  O   UNL     1      -7.246 -10.781  13.288  0.00  0.00    -0.273 OA
ATOM     19  N   UNL     1      -7.816  -9.477  13.151  0.00  0.00    -0.207 NA
ENDROOT
BRANCH  17  14
ATOM      5  C   UNL     1      -3.602  -9.219  10.261  0.00  0.00    +0.157 A 
ATOM      6  C   UNL     1      -3.832  -8.893   9.539  0.00  0.00    +0.044 A 
ATOM      7  C   UNL     1      -4.631  -8.758   9.383  0.00  0.00    +0.103 A 
ATOM      8  N   UNL     1      -5.199  -8.948   9.949  0.00  0.00    -0.212 NA
ATOM      9  C   UNL     1      -4.970  -9.274  10.672  0.00  0.00    +0.220 A 
ATOM     10  N   UNL     1      -4.172  -9.409  10.828  0.00  0.00    -0.210 NA
ATOM     11  N   UNL     1      -5.539  -9.464  11.238  0.00  0.00    -0.278 N 
ATOM     12  C   UNL     1      -6.337  -9.328  11.081  0.00  0.00    +0.094 C 
ATOM     13  C   UNL     1      -6.907  -9.519  11.648  0.00  0.00    +0.031 C 
ATOM     14  C   UNL     1      -6.677  -9.844  12.370  0.00  0.00    +0.082 C 
ATOM     15  C   UNL     1      -5.878  -9.979  12.526  0.00  0.00    +0.031 C 
ATOM     16  C   UNL     1      -5.310  -9.789  11.960  0.00  0.00    +0.094 C 
BRANCH   5   2
ATOM      1  F   UNL     1      -2.005  -9.489  10.574  0.00  0.00    -0.164 F 
ATOM      2  C   UNL     1      -2.803  -9.354  10.417  0.00  0.00    +0.435 C 
ATOM      3  F   UNL     1      -2.898 -10.148  10.217  0.00  0.00    -0.164 F 
ATOM      4  F   UNL     1      -2.708  -8.559  10.618  0.00  0.00    -0.164 F 
ENDBRANCH   5   2
ENDBRANCH  17  14
BRANCH  19  20
ATOM     20  C   UNL     1      -8.385  -9.667  13.718  0.00  0.00    +0.099 C 
ATOM     21  C   UNL     1      -9.076 -10.060  13.494  0.00  0.00    +0.043 C 
ATOM     22  C   UNL     1      -9.644 -10.249  14.060  0.00  0.00    +0.097 C 
ATOM     23  N   UNL     1      -9.524 -10.047  14.851  0.00  0.00    -0.257 N 
ATOM     24  C   UNL     1      -8.833  -9.655  15.075  0.00  0.00    +0.156 C 
ATOM     25  C   UNL     1      -8.264  -9.464  14.508  0.00  0.00    +0.051 C 
ATOM     26  C   UNL     1      -8.866  -9.526  15.889  0.00  0.00    +0.254 C 
ATOM     27  O   UNL     1      -8.289  -9.151  16.344  0.00  0.00    -0.272 OA
ATOM     28  N   UNL     1      -9.576  -9.840  16.168  0.00  0.00    -0.191 N 
ATOM     29  C   UNL     1      -9.982 -10.161  15.526  0.00  0.00    +0.317 C 
ATOM     30  O   UNL     1     -10.719 -10.532  15.555  0.00  0.00    -0.252 OA
BRANCH  28  31
ATOM     31  C   UNL     1      -9.835  -9.832  16.951  0.00  0.00    +0.062 A 
ATOM     32  C   UNL     1      -9.650 -10.462  17.453  0.00  0.00    +0.016 A 
ATOM     33  C   UNL     1      -9.909 -10.454  18.236  0.00  0.00    +0.013 A 
ATOM     34  C   UNL     1     -10.352  -9.818  18.518  0.00  0.00    +0.058 A 
ATOM     35 CL   UNL     1     -10.611  -9.811  19.301  0.00  0.00    -0.082 Cl
ATOM     36  C   UNL     1     -10.536  -9.189  18.017  0.00  0.00    +0.013 A 
ATOM     37  C   UNL     1     -10.278  -9.197  17.234  0.00  0.00    +0.016 A 
ENDBRANCH  28  31
ENDBRANCH  19  20
TORSDOF 4
ENDMDL
MODEL 4
REMARK VINA RESULT:      -6.4     15.350     17.186
REMARK  Name = 
REMARK  4 active torsions:
REMARK  status: ('A' for Active; 'I' for Inactive)
REMARK    1  A    between atoms: C_2  and  C_5
REMARK    2  A    between atoms: C_14  and  C_17
REMARK    3  A    between atoms: N_19  and  C_20
REMARK    4  A    between atoms: N_28  and  C_31
REMARK                            x       y       z     vdW  Elec       q    Type
REMARK                         _______ _______ _______ _____ _____    ______ ____
ROOT
ATOM     17  C   UNL     1      -5.360 -10.363  14.240  0.00  0.00    +0.241 C 
ATOM     18  O   UNL     1      -6.117 -10.682  14.167  0.00  0.00    -0.273 OA
ATOM     19  N   UNL     1      -5.075 -10.139  14.981  0.00  0.00    -0.207 NA
ENDROOT
BRANCH  17  14
ATOM      5  C   UNL     1      -3.316  -9.567  10.202  0.00  0.00    +0.157 A 
ATOM      6  C   UNL     1      -2.521  -9.784  10.226  0.00  0.00    +0.044 A 
ATOM      7  C   UNL     1      -2.198 -10.096  10.918  0.00  0.00    +0.103 A 
ATOM      8  N   UNL     1      -2.671 -10.193  11.586  0.00  0.00    -0.212 NA
ATOM      9  C   UNL     1      -3.467  -9.977  11.564  0.00  0.00    +0.220 A 
ATOM     10  N   UNL     1      -3.790  -9.664  10.872  0.00  0.00    -0.210 NA
ATOM     11  N   UNL     1      -3.940 -10.073  12.232  0.00  0.00    -0.278 N 
ATOM     12  C   UNL     1      -3.617 -10.386  12.924  0.00  0.00    +0.094 C 
ATOM     13  C   UNL     1      -4.091 -10.482  13.594  0.00  0.00    +0.031 C 
ATOM     14  C   UNL     1      -4.887 -10.266  13.570  0.00  0.00    +0.082 C 
ATOM     15  C   UNL     1      -5.209  -9.953  12.878  0.00  0.00    +0.031 C 
ATOM     16  C   UNL     1      -4.736  -9.857  12.210  0.00  0.00    +0.094 C 
BRANCH   5   2
ATOM      1  F   UNL     1      -3.962  -8.942   8.819  0.00  0.00    -0.164 F 
ATOM      2  C   UNL     1      -3.639  -9.255   9.511  0.00  0.00    +0.435 C 
ATOM      3  F   UNL     1      -3.851 -10.014   9.266  0.00  0.00    -0.164 F 
ATOM      4  F   UNL     1      -3.427  -8.496   9.755  0.00  0.00    -0.164 F 
ENDBRANCH   5   2
ENDBRANCH  17  14
BRANCH  19  20
ATOM     20  C   UNL     1      -5.549 -10.236  15.650  0.00  0.00    +0.099 C 
ATOM     21  C   UNL     1      -5.225 -10.543  16.344  0.00  0.00    +0.043 C 
ATOM     22  C   UNL     1      -5.698 -10.639  17.012  0.00  0.00    +0.097 C 
ATOM     23  N   UNL     1      -6.495 -10.429  16.988  0.00  0.00    -0.257 N 
ATOM     24  C   UNL     1      -6.819 -10.121  16.295  0.00  0.00    +0.156 C 
ATOM     25  C   UNL     1      -6.346 -10.024  15.625  0.00  0.00    +0.051 C 
ATOM     26  C   UNL     1      -7.616  -9.963  16.434  0.00  0.00    +0.254 C 
ATOM     27  O   UNL     1      -8.151  -9.650  15.889  0.00  0.00    -0.272 OA
ATOM     28  N   UNL     1      -7.786 -10.173  17.213  0.00  0.00    -0.191 N 
ATOM     29  C   UNL     1      -7.092 -10.460  17.555  0.00  0.00    +0.317 C 
ATOM     30  O   UNL     1      -7.011 -10.733  18.330  0.00  0.00    -0.252 OA
BRANCH  28  31
ATOM     31  C   UNL     1      -8.519 -10.107  17.585  0.00  0.00    +0.062 A 
ATOM     32  C   UNL     1      -8.800  -9.365  17.815  0.00  0.00    +0.016 A 
ATOM     33  C   UNL     1      -9.533  -9.299  18.187  0.00  0.00    +0.013 A 
ATOM     34  C   UNL     1      -9.986  -9.974  18.329  0.00  0.00    +0.058 A 
ATOM     35 CL   UNL     1     -10.719  -9.908  18.701  0.00  0.00    -0.082 Cl
ATOM     36  C   UNL     1      -9.706 -10.715  18.099  0.00  0.00    +0.013 A 
ATOM     37  C   UNL     1      -8.972 -10.781  17.727  0.00  0.00    +0.016 A 
ENDBRANCH  28  31
ENDBRANCH  19  20
TORSDOF 4
ENDMDL
MODEL 5
REMARK VINA RESULT:      -5.8     15.096     16.224
REMARK  Name = 
REMARK  4 active torsions:
REMARK  status: ('A' for Active; 'I' for Inactive)
REMARK    1  A    between atoms: C_2  and  C_5
REMARK    2  A    between atoms: C_14  and  C_17
REMARK    3  A    between atoms: N_19  and  C_20
REMARK    4  A    between atoms: N_28  and  C_31
REMARK                            x       y       z     vdW  Elec       q    Type
REMARK                         _______ _______ _______ _____ _____    ______ ____
ROOT
ATOM     17  C   UNL     1      -6.898  -9.737  14.928  0.00  0.00    +0.241 C 
ATOM     18  O   UNL     1      -6.961  -8.956  14.670  0.00  0.00    -0.273 OA
ATOM     19  N   UNL     1      -6.783 -10.344  14.381  0.00  0.00    -0.207 NA
ENDROOT
BRANCH  17  14
ATOM      5  C   UNL     1      -6.466 -10.663  19.407  0.00  0.00    +0.157 A 
ATOM      6  C   UNL     1      -7.203 -10.781  19.757  0.00  0.00    +0.044 A 
ATOM      7  C   UNL     1      -7.890 -10.725  19.303  0.00  0.00    +0.103 A 
ATOM      8  N   UNL     1      -7.839 -10.551  18.498  0.00  0.00    -0.212 NA
ATOM      9  C   UNL     1      -7.101 -10.433  18.147  0.00  0.00    +0.220 A 
ATOM     10  N   UNL     1      -6.415 -10.489  18.601  0.00  0.00    -0.210 NA
ATOM     11  N   UNL     1      -7.050 -10.259  17.343  0.00  0.00    -0.278 N 
ATOM     12  C   UNL     1      -7.737 -10.203  16.889  0.00  0.00    +0.094 C 
ATOM     13  C   UNL     1      -7.686 -10.028  16.083  0.00  0.00    +0.031 C 
ATOM     14  C   UNL     1      -6.948  -9.911  15.733  0.00  0.00    +0.082 C 
ATOM     15  C   UNL     1      -6.262  -9.967  16.187  0.00  0.00    +0.031 C 
ATOM     16  C   UNL     1      -6.313 -10.141  16.991  0.00  0.00    +0.094 C 
BRANCH   5   2
ATOM      1  F   UNL     1      -5.093 -10.776  20.315  0.00  0.00    -0.164 F 
ATOM      2  C   UNL     1      -5.779 -10.720  19.861  0.00  0.00    +0.435 C 
ATOM      3  F   UNL     1      -5.329 -10.781  19.172  0.00  0.00    -0.164 F 
ATOM      4  F   UNL     1      -6.230 -10.658  20.549  0.00  0.00    -0.164 F 
ENDBRANCH   5   2
ENDBRANCH  17  14
BRANCH  19  20
ATOM     20  C   UNL     1      -6.732 -10.170  13.576  0.00  0.00    +0.099 C 
ATOM     21  C   UNL     1      -7.419 -10.104  13.124  0.00  0.00    +0.043 C 
ATOM     22  C   UNL     1      -7.368  -9.930  12.320  0.00  0.00    +0.097 C 
ATOM     23  N   UNL     1      -6.631  -9.822  11.966  0.00  0.00    -0.257 N 
ATOM     24  C   UNL     1      -5.944  -9.888  12.418  0.00  0.00    +0.156 C 
ATOM     25  C   UNL     1      -5.994 -10.062  13.224  0.00  0.00    +0.051 C 
ATOM     26  C   UNL     1      -5.298  -9.753  11.923  0.00  0.00    +0.254 C 
ATOM     27  O   UNL     1      -4.504  -9.766  12.146  0.00  0.00    -0.272 OA
ATOM     28  N   UNL     1      -5.586  -9.604  11.165  0.00  0.00    -0.191 N 
ATOM     29  C   UNL     1      -6.409  -9.646  11.192  0.00  0.00    +0.317 C 
ATOM     30  O   UNL     1      -6.922  -9.533  10.555  0.00  0.00    -0.252 OA
BRANCH  28  31
ATOM     31  C   UNL     1      -5.131  -9.441  10.496  0.00  0.00    +0.062 A 
ATOM     32  C   UNL     1      -4.919  -8.663  10.320  0.00  0.00    +0.016 A 
ATOM     33  C   UNL     1      -4.464  -8.500   9.652  0.00  0.00    +0.013 A 
ATOM     34  C   UNL     1      -4.220  -9.115   9.159  0.00  0.00    +0.058 A 
ATOM     35 CL   UNL     1      -3.764  -8.953   8.491  0.00  0.00    -0.082 Cl
ATOM     36  C   UNL     1      -4.431  -9.893   9.335  0.00  0.00    +0.013 A 
ATOM     37  C   UNL     1      -4.886 -10.056  10.003  0.00  0.00    +0.016 A 
ENDBRANCH  28  31
ENDBRANCH  19  20
TORSDOF 4
ENDMDL
MODEL 6
REMARK VINA RESULT:      -5.7     15.835     17.261
REMARK  Name = 
REMARK  4 active torsions:
REMARK  status: ('A' for Active; 'I' for Inactive)
REMARK    1  A    between atoms: C_2  and  C_5
REMARK    2  A    between atoms: C_14  and  C_17
REMARK    3  A    between atoms: N_19  and  C_20
REMARK    4  A    between atoms: N_28  and  C_31
REMARK                            x       y       z     vdW  Elec       q    Type
REMARK                         _______ _______ _______ _____ _____    ______ ____
ROOT
ATOM     17  C   UNL     1      -5.930  -9.657  12.601  0.00  0.00    +0.241 C 
ATOM     18  O   UNL     1      -5.374  -9.109  12.867  0.00  0.00    -0.273 OA
ATOM     19  N   UNL     1      -6.145 -10.293  13.080  0.00  0.00    -0.207 NA
ENDROOT
BRANCH  17  14
ATOM      5  C   UNL     1      -8.200  -8.635   8.740  0.00  0.00    +0.157 A 
ATOM      6  C   UNL     1      -7.975  -9.135   8.124  0.00  0.00    +0.044 A 
ATOM      7  C   UNL     1      -7.410  -9.722   8.253  0.00  0.00    +0.103 A 
ATOM      8  N   UNL     1      -7.070  -9.809   8.999  0.00  0.00    -0.212 NA
ATOM      9  C   UNL     1      -7.293  -9.309   9.616  0.00  0.00    +0.220 A 
ATOM     10  N   UNL     1      -7.858  -8.722   9.487  0.00  0.00    -0.210 NA
ATOM     11  N   UNL     1      -6.953  -9.396  10.362  0.00  0.00    -0.278 N 
ATOM     12  C   UNL     1      -6.388  -9.983  10.491  0.00  0.00    +0.094 C 
ATOM     13  C   UNL     1      -6.046 -10.070  11.238  0.00  0.00    +0.031 C 
ATOM     14  C   UNL     1      -6.271  -9.570  11.854  0.00  0.00    +0.082 C 
ATOM     15  C   UNL     1      -6.836  -8.983  11.725  0.00  0.00    +0.031 C 
ATOM     16  C   UNL     1      -7.176  -8.896  10.979  0.00  0.00    +0.094 C 
BRANCH   5   2
ATOM      1  F   UNL     1      -9.330  -7.461   8.481  0.00  0.00    -0.164 F 
ATOM      2  C   UNL     1      -8.765  -8.048   8.610  0.00  0.00    +0.435 C 
ATOM      3  F   UNL     1      -8.193  -7.578   8.246  0.00  0.00    -0.164 F 
ATOM      4  F   UNL     1      -9.336  -8.518   8.975  0.00  0.00    -0.164 F 
ENDBRANCH   5   2
ENDBRANCH  17  14
BRANCH  19  20
ATOM     20  C   UNL     1      -5.804 -10.380  13.827  0.00  0.00    +0.099 C 
ATOM     21  C   UNL     1      -4.995 -10.528  13.896  0.00  0.00    +0.043 C 
ATOM     22  C   UNL     1      -4.654 -10.615  14.642  0.00  0.00    +0.097 C 
ATOM     23  N   UNL     1      -5.122 -10.555  15.320  0.00  0.00    -0.257 N 
ATOM     24  C   UNL     1      -5.931 -10.407  15.250  0.00  0.00    +0.156 C 
ATOM     25  C   UNL     1      -6.272 -10.320  14.503  0.00  0.00    +0.051 C 
ATOM     26  C   UNL     1      -6.250 -10.376  16.010  0.00  0.00    +0.254 C 
ATOM     27  O   UNL     1      -7.042 -10.241  16.197  0.00  0.00    -0.272 OA
ATOM     28  N   UNL     1      -5.640 -10.505  16.549  0.00  0.00    -0.191 N 
ATOM     29  C   UNL     1      -4.943 -10.615  16.122  0.00  0.00    +0.317 C 
ATOM     30  O   UNL     1      -4.196 -10.760  16.442  0.00  0.00    -0.252 OA
BRANCH  28  31
ATOM     31  C   UNL     1      -5.713 -10.520  17.370  0.00  0.00    +0.062 A 
ATOM     32  C   UNL     1      -5.054 -10.683  17.841  0.00  0.00    +0.016 A 
ATOM     33  C   UNL     1      -5.127 -10.699  18.662  0.00  0.00    +0.013 A 
ATOM     34  C   UNL     1      -5.859 -10.551  19.013  0.00  0.00    +0.058 A 
ATOM     35 CL   UNL     1      -5.933 -10.566  19.835  0.00  0.00    -0.082 Cl
ATOM     36  C   UNL     1      -6.517 -10.388  18.544  0.00  0.00    +0.013 A 
ATOM     37  C   UNL     1      -6.444 -10.373  17.722  0.00  0.00    +0.016 A 
ENDBRANCH  28  31
ENDBRANCH  19  20
TORSDOF 4
ENDMDL
MODEL 7
REMARK VINA RESULT:      -5.2     15.476     16.211
REMARK  Name = 
REMARK  4 active torsions:
REMARK  status: ('A' for Active; 'I' for Inactive)
REMARK    1  A    between atoms: C_2  and  C_5
REMARK    2  A    between atoms: C_14  and  C_17
REMARK    3  A    between atoms: N_19  and  C_20
REMARK    4  A    between atoms: N_28  and  C_31
REMARK                            x       y       z     vdW  Elec       q    Type
REMARK                         _______ _______ _______ _____ _____    ______ ____
ROOT
ATOM     17  C   UNL     1      -7.005 -10.094  14.019  0.00  0.00    +0.241 C 
ATOM     18  O   UNL     1      -6.816  -9.340  13.741  0.00  0.00    -0.273 OA
ATOM     19  N   UNL     1      -6.632 -10.757  13.701  0.00  0.00    -0.207 NA
ENDROOT
BRANCH  17  14
ATOM      5  C   UNL     1      -9.612 -10.421  17.788  0.00  0.00    +0.157 A 
ATOM      6  C   UNL     1     -10.384 -10.638  17.595  0.00  0.00    +0.044 A 
ATOM      7  C   UNL     1     -10.594 -10.764  16.807  0.00  0.00    +0.103 A 
ATOM      8  N   UNL     1     -10.031 -10.673  16.212  0.00  0.00    -0.212 NA
ATOM      9  C   UNL     1      -9.258 -10.456  16.403  0.00  0.00    +0.220 A 
ATOM     10  N   UNL     1      -9.049 -10.331  17.191  0.00  0.00    -0.210 NA
ATOM     11  N   UNL     1      -8.695 -10.366  15.808  0.00  0.00    -0.278 N 
ATOM     12  C   UNL     1      -8.905 -10.492  15.020  0.00  0.00    +0.094 C 
ATOM     13  C   UNL     1      -8.341 -10.401  14.423  0.00  0.00    +0.031 C 
ATOM     14  C   UNL     1      -7.569 -10.184  14.616  0.00  0.00    +0.082 C 
ATOM     15  C   UNL     1      -7.360 -10.058  15.404  0.00  0.00    +0.031 C 
ATOM     16  C   UNL     1      -7.922 -10.149  15.999  0.00  0.00    +0.094 C 
BRANCH   5   2
ATOM      1  F   UNL     1      -9.193 -10.169  19.364  0.00  0.00    -0.164 F 
ATOM      2  C   UNL     1      -9.403 -10.295  18.576  0.00  0.00    +0.435 C 
ATOM      3  F   UNL     1      -8.743 -10.781  18.478  0.00  0.00    -0.164 F 
ATOM      4  F   UNL     1     -10.062  -9.809  18.673  0.00  0.00    -0.164 F 
ENDBRANCH   5   2
ENDBRANCH  17  14
BRANCH  19  20
ATOM     20  C   UNL     1      -6.069 -10.666  13.104  0.00  0.00    +0.099 C 
ATOM     21  C   UNL     1      -6.286 -10.761  12.314  0.00  0.00    +0.043 C 
ATOM     22  C   UNL     1      -5.723 -10.670  11.718  0.00  0.00    +0.097 C 
ATOM     23  N   UNL     1      -4.942 -10.485  11.912  0.00  0.00    -0.257 N 
ATOM     24  C   UNL     1      -4.725 -10.390  12.702  0.00  0.00    +0.156 C 
ATOM     25  C   UNL     1      -5.289 -10.481  13.299  0.00  0.00    +0.051 C 
ATOM     26  C   UNL     1      -3.921 -10.209  12.726  0.00  0.00    +0.254 C 
ATOM     27  O   UNL     1      -3.475 -10.069  13.406  0.00  0.00    -0.272 OA
ATOM     28  N   UNL     1      -3.641 -10.192  11.951  0.00  0.00    -0.191 N 
ATOM     29  C   UNL     1      -4.272 -10.362  11.448  0.00  0.00    +0.317 C 
ATOM     30  O   UNL     1      -4.239 -10.403  10.624  0.00  0.00    -0.252 OA
BRANCH  28  31
ATOM     31  C   UNL     1      -2.865 -10.032  11.719  0.00  0.00    +0.062 A 
ATOM     32  C   UNL     1      -2.257 -10.549  11.930  0.00  0.00    +0.016 A 
ATOM     33  C   UNL     1      -1.481 -10.389  11.698  0.00  0.00    +0.013 A 
ATOM     34  C   UNL     1      -1.315  -9.713  11.255  0.00  0.00    +0.058 A 
ATOM     35 CL   UNL     1      -0.539  -9.554  11.023  0.00  0.00    -0.082 Cl
ATOM     36  C   UNL     1      -1.922  -9.197  11.044  0.00  0.00    +0.013 A 
ATOM     37  C   UNL     1      -2.697  -9.357  11.276  0.00  0.00    +0.016 A 
ENDBRANCH  28  31
ENDBRANCH  19  20
TORSDOF 4
ENDMDL
