MODEL 1
REMARK VINA RESULT:     -12.2      0.000      0.000
REMARK  Name = 
REMARK  5 active torsions:
REMARK  status: ('A' for Active; 'I' for Inactive)
REMARK    1  A    between atoms: O_2  and  C_3
REMARK    2  A    between atoms: C_6  and  C_7
REMARK    3  A    between atoms: C_7  and  N_8
REMARK    4  A    between atoms: C_13  and  C_14
REMARK    5  A    between atoms: C_16  and  C_19
REMARK                            x       y       z     vdW  Elec       q    Type
REMARK                         _______ _______ _______ _____ _____    ______ ____
ROOT
ATOM      8  N   UNL     1      -4.602   1.228  24.891  0.00  0.00    -0.260 NA
ATOM      9  C   UNL     1      -5.262   0.814  25.164  0.00  0.00    +0.105 C 
ATOM     10  C   UNL     1      -5.929   1.224  25.423  0.00  0.00    +0.160 C 
ATOM     11  O   UNL     1      -5.937   2.049  25.409  0.00  0.00    -0.350 OA
ATOM     12  C   UNL     1      -5.278   2.463  25.136  0.00  0.00    +0.166 C 
ATOM     13  C   UNL     1      -4.611   2.053  24.877  0.00  0.00    +0.147 C 
ENDROOT
BRANCH  13  14
ATOM     14  C   UNL     1      -3.951   2.468  24.604  0.00  0.00    +0.156 A 
ATOM     15  N   UNL     1      -3.347   2.778  25.071  0.00  0.00    -0.228 NA
ATOM     16  C   UNL     1      -2.803   3.147  24.572  0.00  0.00    +0.102 A 
ATOM     17  C   UNL     1      -3.072   3.065  23.796  0.00  0.00    +0.119 A 
ATOM     18  N   UNL     1      -3.783   2.645  23.816  0.00  0.00    -0.226 NA
BRANCH  16  19
ATOM     19  C   UNL     1      -2.111   3.531  24.807  0.00  0.00    +0.020 A 
ATOM     20  C   UNL     1      -1.438   3.091  24.987  0.00  0.00    +0.002 A 
ATOM     21  C   UNL     1      -0.746   3.475  25.222  0.00  0.00    +0.001 A 
ATOM     22  C   UNL     1      -0.728   4.297  25.276  0.00  0.00    +0.011 A 
ATOM     23  C   UNL     1      -1.403   4.738  25.095  0.00  0.00    +0.058 A 
ATOM     24 CL   UNL     1      -1.385   5.560  25.149  0.00  0.00    -0.082 Cl
ATOM     25  C   UNL     1      -2.095   4.354  24.860  0.00  0.00    +0.013 A 
ENDBRANCH  16  19
ENDBRANCH  13  14
BRANCH   8   7
ATOM      7  C   UNL     1      -3.935   0.817  24.632  0.00  0.00    +0.100 C 
BRANCH   7   6
ATOM      3  C   UNL     1      -3.786  -1.632  24.954  0.00  0.00    +0.139 A 
ATOM      4  C   UNL     1      -3.530  -1.121  25.550  0.00  0.00    +0.037 A 
ATOM      5  C   UNL     1      -3.580  -0.304  25.442  0.00  0.00    +0.000 A 
ATOM      6  C   UNL     1      -3.886   0.001  24.739  0.00  0.00    -0.006 A 
ATOM     26  C   UNL     1      -4.141  -0.509  24.145  0.00  0.00    +0.000 A 
ATOM     27  C   UNL     1      -4.092  -1.326  24.252  0.00  0.00    +0.037 A 
BRANCH   3   2
ATOM      1  C   UNL     1      -3.353  -2.915  24.500  0.00  0.00    +0.252 C 
ATOM      2  O   UNL     1      -3.736  -2.448  25.062  0.00  0.00    -0.471 OA
ENDBRANCH   3   2
ENDBRANCH   7   6
ENDBRANCH   8   7
TORSDOF 5
ENDMDL
MODEL 2
REMARK VINA RESULT:     -12.1      2.169      4.845
REMARK  Name = 
REMARK  5 active torsions:
REMARK  status: ('A' for Active; 'I' for Inactive)
REMARK    1  A    between atoms: O_2  and  C_3
REMARK    2  A    between atoms: C_6  and  C_7
REMARK    3  A    between atoms: C_7  and  N_8
REMARK    4  A    between atoms: C_13  and  C_14
REMARK    5  A    between atoms: C_16  and  C_19
REMARK                            x       y       z     vdW  Elec       q    Type
REMARK                         _______ _______ _______ _____ _____    ______ ____
ROOT
ATOM      8  N   UNL     1      -4.258   2.477  25.183  0.00  0.00    -0.260 NA
ATOM      9  C   UNL     1      -4.588   3.171  25.482  0.00  0.00    +0.105 C 
ATOM     10  C   UNL     1      -5.399   3.214  25.627  0.00  0.00    +0.160 C 
ATOM     11  O   UNL     1      -5.880   2.562  25.471  0.00  0.00    -0.350 OA
ATOM     12  C   UNL     1      -5.550   1.867  25.171  0.00  0.00    +0.166 C 
ATOM     13  C   UNL     1      -4.740   1.825  25.027  0.00  0.00    +0.147 C 
ENDROOT
BRANCH  13  14
ATOM     14  C   UNL     1      -4.409   1.130  24.727  0.00  0.00    +0.156 A 
ATOM     15  N   UNL     1      -4.327   0.418  25.134  0.00  0.00    -0.228 NA
ATOM     16  C   UNL     1      -3.971  -0.126  24.626  0.00  0.00    +0.102 A 
ATOM     17  C   UNL     1      -3.833   0.251  23.905  0.00  0.00    +0.119 A 
ATOM     18  N   UNL     1      -4.104   1.028  23.968  0.00  0.00    -0.226 NA
BRANCH  16  19
ATOM     19  C   UNL     1      -3.785  -0.910  24.807  0.00  0.00    +0.020 A 
ATOM     20  C   UNL     1      -3.403  -1.089  25.516  0.00  0.00    +0.002 A 
ATOM     21  C   UNL     1      -3.218  -1.872  25.697  0.00  0.00    +0.001 A 
ATOM     22  C   UNL     1      -3.413  -2.475  25.170  0.00  0.00    +0.011 A 
ATOM     23  C   UNL     1      -3.795  -2.296  24.461  0.00  0.00    +0.058 A 
ATOM     24 CL   UNL     1      -3.990  -2.898  23.934  0.00  0.00    -0.082 Cl
ATOM     25  C   UNL     1      -3.981  -1.512  24.279  0.00  0.00    +0.013 A 
ENDBRANCH  16  19
ENDBRANCH  13  14
BRANCH   8   7
ATOM      7  C   UNL     1      -3.446   2.435  25.038  0.00  0.00    +0.100 C 
BRANCH   7   6
ATOM      3  C   UNL     1      -2.033   4.447  25.313  0.00  0.00    +0.139 A 
ATOM      4  C   UNL     1      -2.083   3.892  25.921  0.00  0.00    +0.037 A 
ATOM      5  C   UNL     1      -2.554   3.221  25.829  0.00  0.00    +0.000 A 
ATOM      6  C   UNL     1      -2.975   3.105  25.130  0.00  0.00    -0.006 A 
ATOM     26  C   UNL     1      -2.926   3.660  24.522  0.00  0.00    +0.000 A 
ATOM     27  C   UNL     1      -2.455   4.332  24.613  0.00  0.00    +0.037 A 
BRANCH   3   2
ATOM      1  C   UNL     1      -0.885   5.213  24.942  0.00  0.00    +0.252 C 
ATOM      2  O   UNL     1      -1.562   5.118  25.405  0.00  0.00    -0.471 OA
ENDBRANCH   3   2
ENDBRANCH   7   6
ENDBRANCH   8   7
TORSDOF 5
ENDMDL
MODEL 3
REMARK VINA RESULT:     -11.5      2.194      3.217
REMARK  Name = 
REMARK  5 active torsions:
REMARK  status: ('A' for Active; 'I' for Inactive)
REMARK    1  A    between atoms: O_2  and  C_3
REMARK    2  A    between atoms: C_6  and  C_7
REMARK    3  A    between atoms: C_7  and  N_8
REMARK    4  A    between atoms: C_13  and  C_14
REMARK    5  A    between atoms: C_16  and  C_19
REMARK                            x       y       z     vdW  Elec       q    Type
REMARK                         _______ _______ _______ _____ _____    ______ ____
ROOT
ATOM      8  N   UNL     1      -0.707   0.389  24.628  0.00  0.00    -0.260 NA
ATOM      9  C   UNL     1      -0.590  -0.303  24.194  0.00  0.00    +0.105 C 
ATOM     10  C   UNL     1       0.019  -0.343  23.638  0.00  0.00    +0.160 C 
ATOM     11  O   UNL     1       0.511   0.308  23.517  0.00  0.00    -0.350 OA
ATOM     12  C   UNL     1       0.394   1.000  23.952  0.00  0.00    +0.166 C 
ATOM     13  C   UNL     1      -0.214   1.040  24.507  0.00  0.00    +0.147 C 
ENDROOT
BRANCH  13  14
ATOM     14  C   UNL     1      -0.331   1.732  24.942  0.00  0.00    +0.156 A 
ATOM     15  N   UNL     1      -0.827   2.357  24.733  0.00  0.00    -0.228 NA
ATOM     16  C   UNL     1      -0.774   2.931  25.324  0.00  0.00    +0.102 A 
ATOM     17  C   UNL     1      -0.246   2.661  25.897  0.00  0.00    +0.119 A 
ATOM     18  N   UNL     1       0.028   1.919  25.660  0.00  0.00    -0.226 NA
BRANCH  16  19
ATOM     19  C   UNL     1      -1.179   3.650  25.339  0.00  0.00    +0.020 A 
ATOM     20  C   UNL     1      -0.839   4.322  25.002  0.00  0.00    +0.002 A 
ATOM     21  C   UNL     1      -1.244   5.041  25.017  0.00  0.00    +0.001 A 
ATOM     22  C   UNL     1      -1.988   5.088  25.368  0.00  0.00    +0.011 A 
ATOM     23  C   UNL     1      -2.329   4.416  25.705  0.00  0.00    +0.058 A 
ATOM     24 CL   UNL     1      -3.073   4.463  26.056  0.00  0.00    -0.082 Cl
ATOM     25  C   UNL     1      -1.924   3.696  25.690  0.00  0.00    +0.013 A 
ENDBRANCH  16  19
ENDBRANCH  13  14
BRANCH   8   7
ATOM      7  C   UNL     1      -1.316   0.429  25.184  0.00  0.00    +0.100 C 
BRANCH   7   6
ATOM      3  C   UNL     1      -3.025  -1.358  25.279  0.00  0.00    +0.139 A 
ATOM      4  C   UNL     1      -2.361  -1.396  25.767  0.00  0.00    +0.037 A 
ATOM      5  C   UNL     1      -1.791  -0.800  25.735  0.00  0.00    +0.000 A 
ATOM      6  C   UNL     1      -1.885  -0.166  25.215  0.00  0.00    -0.006 A 
ATOM     26  C   UNL     1      -2.549  -0.129  24.728  0.00  0.00    +0.000 A 
ATOM     27  C   UNL     1      -3.119  -0.724  24.759  0.00  0.00    +0.037 A 
BRANCH   3   2
ATOM      1  C   UNL     1      -3.587  -2.562  24.753  0.00  0.00    +0.252 C 
ATOM      2  O   UNL     1      -3.595  -1.953  25.311  0.00  0.00    -0.471 OA
ENDBRANCH   3   2
ENDBRANCH   7   6
ENDBRANCH   8   7
TORSDOF 5
ENDMDL
MODEL 4
REMARK VINA RESULT:     -11.3      2.875      5.654
REMARK  Name = 
REMARK  5 active torsions:
REMARK  status: ('A' for Active; 'I' for Inactive)
REMARK    1  A    between atoms: O_2  and  C_3
REMARK    2  A    between atoms: C_6  and  C_7
REMARK    3  A    between atoms: C_7  and  N_8
REMARK    4  A    between atoms: C_13  and  C_14
REMARK    5  A    between atoms: C_16  and  C_19
REMARK                            x       y       z     vdW  Elec       q    Type
REMARK                         _______ _______ _______ _____ _____    ______ ____
ROOT
ATOM      8  N   UNL     1      -0.709   1.334  24.733  0.00  0.00    -0.260 NA
ATOM      9  C   UNL     1      -0.128   1.862  24.481  0.00  0.00    +0.105 C 
ATOM     10  C   UNL     1       0.512   1.591  24.036  0.00  0.00    +0.160 C 
ATOM     11  O   UNL     1       0.570   0.791  23.843  0.00  0.00    -0.350 OA
ATOM     12  C   UNL     1      -0.012   0.263  24.095  0.00  0.00    +0.166 C 
ATOM     13  C   UNL     1      -0.651   0.534  24.539  0.00  0.00    +0.147 C 
ENDROOT
BRANCH  13  14
ATOM     14  C   UNL     1      -1.233   0.005  24.791  0.00  0.00    +0.156 A 
ATOM     15  N   UNL     1      -1.850  -0.290  24.332  0.00  0.00    -0.228 NA
ATOM     16  C   UNL     1      -2.298  -0.799  24.804  0.00  0.00    +0.102 A 
ATOM     17  C   UNL     1      -1.956  -0.817  25.554  0.00  0.00    +0.119 A 
ATOM     18  N   UNL     1      -1.297  -0.320  25.547  0.00  0.00    -0.226 NA
BRANCH  16  19
ATOM     19  C   UNL     1      -2.969  -1.216  24.566  0.00  0.00    +0.020 A 
ATOM     20  C   UNL     1      -3.639  -0.807  24.313  0.00  0.00    +0.002 A 
ATOM     21  C   UNL     1      -4.311  -1.224  24.075  0.00  0.00    +0.001 A 
ATOM     22  C   UNL     1      -4.312  -2.048  24.092  0.00  0.00    +0.011 A 
ATOM     23  C   UNL     1      -3.641  -2.457  24.346  0.00  0.00    +0.058 A 
ATOM     24 CL   UNL     1      -3.642  -3.281  24.362  0.00  0.00    -0.082 Cl
ATOM     25  C   UNL     1      -2.970  -2.040  24.583  0.00  0.00    +0.013 A 
ENDBRANCH  16  19
ENDBRANCH  13  14
BRANCH   8   7
ATOM      7  C   UNL     1      -1.348   1.606  25.178  0.00  0.00    +0.100 C 
BRANCH   7   6
ATOM      3  C   UNL     1      -1.764   4.036  25.393  0.00  0.00    +0.139 A 
ATOM      4  C   UNL     1      -2.132   3.606  24.792  0.00  0.00    +0.037 A 
ATOM      5  C   UNL     1      -1.993   2.796  24.721  0.00  0.00    +0.000 A 
ATOM      6  C   UNL     1      -1.487   2.416  25.250  0.00  0.00    -0.006 A 
ATOM     26  C   UNL     1      -1.120   2.845  25.851  0.00  0.00    +0.000 A 
ATOM     27  C   UNL     1      -1.259   3.656  25.923  0.00  0.00    +0.037 A 
BRANCH   3   2
ATOM      1  C   UNL     1      -1.415   5.384  25.072  0.00  0.00    +0.252 C 
ATOM      2  O   UNL     1      -1.903   4.846  25.464  0.00  0.00    -0.471 OA
ENDBRANCH   3   2
ENDBRANCH   7   6
ENDBRANCH   8   7
TORSDOF 5
ENDMDL
MODEL 5
REMARK VINA RESULT:     -10.6      2.387      3.636
REMARK  Name = 
REMARK  5 active torsions:
REMARK  status: ('A' for Active; 'I' for Inactive)
REMARK    1  A    between atoms: O_2  and  C_3
REMARK    2  A    between atoms: C_6  and  C_7
REMARK    3  A    between atoms: C_7  and  N_8
REMARK    4  A    between atoms: C_13  and  C_14
REMARK    5  A    between atoms: C_16  and  C_19
REMARK                            x       y       z     vdW  Elec       q    Type
REMARK                         _______ _______ _______ _____ _____    ______ ____
ROOT
ATOM      8  N   UNL     1      -1.123   1.904  25.191  0.00  0.00    -0.260 NA
ATOM      9  C   UNL     1      -0.362   1.761  25.477  0.00  0.00    +0.105 C 
ATOM     10  C   UNL     1       0.081   2.378  25.799  0.00  0.00    +0.160 C 
ATOM     11  O   UNL     1      -0.237   3.138  25.836  0.00  0.00    -0.350 OA
ATOM     12  C   UNL     1      -0.997   3.282  25.550  0.00  0.00    +0.166 C 
ATOM     13  C   UNL     1      -1.440   2.665  25.228  0.00  0.00    +0.147 C 
ENDROOT
BRANCH  13  14
ATOM     14  C   UNL     1      -2.201   2.809  24.943  0.00  0.00    +0.156 A 
ATOM     15  N   UNL     1      -2.899   2.762  25.379  0.00  0.00    -0.228 NA
ATOM     16  C   UNL     1      -3.526   2.949  24.876  0.00  0.00    +0.102 A 
ATOM     17  C   UNL     1      -3.215   3.111  24.130  0.00  0.00    +0.119 A 
ATOM     18  N   UNL     1      -2.396   3.025  24.170  0.00  0.00    -0.226 NA
BRANCH  16  19
ATOM     19  C   UNL     1      -4.325   2.970  25.084  0.00  0.00    +0.020 A 
ATOM     20  C   UNL     1      -4.641   3.646  25.435  0.00  0.00    +0.002 A 
ATOM     21  C   UNL     1      -5.440   3.667  25.643  0.00  0.00    +0.001 A 
ATOM     22  C   UNL     1      -5.921   3.013  25.500  0.00  0.00    +0.011 A 
ATOM     23  C   UNL     1      -5.604   2.337  25.149  0.00  0.00    +0.058 A 
ATOM     24 CL   UNL     1      -6.085   1.683  25.006  0.00  0.00    -0.082 Cl
ATOM     25  C   UNL     1      -4.805   2.316  24.941  0.00  0.00    +0.013 A 
ENDBRANCH  16  19
ENDBRANCH  13  14
BRANCH   8   7
ATOM      7  C   UNL     1      -1.565   1.287  24.869  0.00  0.00    +0.100 C 
BRANCH   7   6
ATOM      3  C   UNL     1      -0.803  -1.053  25.131  0.00  0.00    +0.139 A 
ATOM      4  C   UNL     1      -1.273  -0.704  25.714  0.00  0.00    +0.037 A 
ATOM      5  C   UNL     1      -1.527   0.076  25.626  0.00  0.00    +0.000 A 
ATOM      6  C   UNL     1      -1.311   0.507  24.957  0.00  0.00    -0.006 A 
ATOM     26  C   UNL     1      -0.842   0.159  24.375  0.00  0.00    +0.000 A 
ATOM     27  C   UNL     1      -0.588  -0.621  24.462  0.00  0.00    +0.037 A 
BRANCH   3   2
ATOM      1  C   UNL     1      -1.002  -2.450  24.911  0.00  0.00    +0.252 C 
ATOM      2  O   UNL     1      -0.550  -1.833  25.219  0.00  0.00    -0.471 OA
ENDBRANCH   3   2
ENDBRANCH   7   6
ENDBRANCH   8   7
TORSDOF 5
ENDMDL
