MODEL 1
REMARK VINA RESULT:      -9.7      0.000      0.000
REMARK  Name = 
REMARK  7 active torsions:
REMARK  status: ('A' for Active; 'I' for Inactive)
REMARK    1  A    between atoms: C_2  and  C_4
REMARK    2  A    between atoms: C_6  and  C_7
REMARK    3  A    between atoms: C_7  and  C_8
REMARK    4  A    between atoms: C_11  and  C_13
REMARK    5  A    between atoms: C_23  and  C_24
REMARK    6  A    between atoms: C_24  and  N_25
REMARK    7  A    between atoms: N_28  and  C_31
REMARK                            x       y       z     vdW  Elec       q    Type
REMARK                         _______ _______ _______ _____ _____    ______ ____
ROOT
ATOM      4  C   UNL     1      -1.826   2.638  25.023  0.00  0.00    +0.006 C 
ATOM      5  C   UNL     1      -2.612   2.455  24.858  0.00  0.00    +0.005 C 
ATOM      6  C   UNL     1      -2.828   2.204  24.102  0.00  0.00    +0.027 C 
ATOM     20  C   UNL     1      -2.256   2.134  23.512  0.00  0.00    -0.048 C 
ATOM     21  C   UNL     1      -2.470   1.883  22.756  0.00  0.00    +0.026 C 
ATOM     22  C   UNL     1      -1.468   2.317  23.677  0.00  0.00    -0.034 C 
ATOM     23  C   UNL     1      -1.253   2.568  24.433  0.00  0.00    +0.037 C 
ENDROOT
BRANCH   4   2
ATOM      1  C   UNL     1      -1.372   2.339  26.345  0.00  0.00    +0.000 C 
ATOM      2  C   UNL     1      -1.610   2.889  25.778  0.00  0.00    +0.000 C 
ATOM      3  C   UNL     1      -1.633   3.693  25.968  0.00  0.00    +0.000 C 
ENDBRANCH   4   2
BRANCH   6   7
ATOM      7  C   UNL     1      -3.615   2.021  23.936  0.00  0.00    +0.091 C 
BRANCH   7   8
ATOM      8  C   UNL     1      -3.943   1.316  24.215  0.00  0.00    +0.227 A 
ATOM      9  N   UNL     1      -4.652   1.243  24.630  0.00  0.00    -0.111 NA
ATOM     10  N   UNL     1      -4.766   0.444  24.799  0.00  0.00    -0.107 NA
ATOM     11  C   UNL     1      -4.127   0.024  24.489  0.00  0.00    +0.250 A 
ATOM     12  O   UNL     1      -3.618   0.564  24.128  0.00  0.00    -0.420 OA
BRANCH  11  13
ATOM     13  C   UNL     1      -4.017  -0.792  24.531  0.00  0.00    +0.055 A 
ATOM     14  C   UNL     1      -4.273  -1.277  23.914  0.00  0.00    +0.004 A 
ATOM     15  C   UNL     1      -4.163  -2.093  23.956  0.00  0.00    -0.004 A 
ATOM     16  C   UNL     1      -3.796  -2.425  24.616  0.00  0.00    -0.022 A 
ATOM     17  C   UNL     1      -3.685  -3.242  24.658  0.00  0.00    +0.031 C 
ATOM     18  C   UNL     1      -3.539  -1.943  25.233  0.00  0.00    -0.004 A 
ATOM     19  C   UNL     1      -3.650  -1.125  25.190  0.00  0.00    +0.004 A 
ENDBRANCH  11  13
ENDBRANCH   7   8
ENDBRANCH   6   7
BRANCH  23  24
ATOM     24  C   UNL     1      -0.466   2.751  24.598  0.00  0.00    +0.076 C 
BRANCH  24  25
ATOM     25  N   UNL     1       0.140   2.310  24.255  0.00  0.00    -0.269 NA
ATOM     26  C   UNL     1       0.240   1.516  24.458  0.00  0.00    +0.094 C 
ATOM     27  C   UNL     1       0.847   1.076  24.114  0.00  0.00    +0.110 C 
ATOM     28  N   UNL     1       1.354   1.429  23.567  0.00  0.00    -0.289 N 
ATOM     29  C   UNL     1       1.254   2.222  23.364  0.00  0.00    +0.110 C 
ATOM     30  C   UNL     1       0.647   2.662  23.707  0.00  0.00    +0.094 C 
BRANCH  28  31
ATOM     31  C   UNL     1       1.961   0.988  23.222  0.00  0.00    +0.151 A 
ATOM     32  C   UNL     1       1.789   0.276  22.841  0.00  0.00    +0.133 A 
ATOM     33  N   UNL     1       2.395  -0.164  22.497  0.00  0.00    -0.238 NA
ATOM     34  C   UNL     1       3.175   0.106  22.535  0.00  0.00    +0.120 A 
ATOM     35  C   UNL     1       3.346   0.818  22.916  0.00  0.00    +0.121 A 
ATOM     36  N   UNL     1       2.739   1.258  23.260  0.00  0.00    -0.226 NA
ENDBRANCH  28  31
ENDBRANCH  24  25
ENDBRANCH  23  24
TORSDOF 7
ENDMDL
MODEL 2
REMARK VINA RESULT:      -9.6      2.034      6.071
REMARK  Name = 
REMARK  7 active torsions:
REMARK  status: ('A' for Active; 'I' for Inactive)
REMARK    1  A    between atoms: C_2  and  C_4
REMARK    2  A    between atoms: C_6  and  C_7
REMARK    3  A    between atoms: C_7  and  C_8
REMARK    4  A    between atoms: C_11  and  C_13
REMARK    5  A    between atoms: C_23  and  C_24
REMARK    6  A    between atoms: C_24  and  N_25
REMARK    7  A    between atoms: N_28  and  C_31
REMARK                            x       y       z     vdW  Elec       q    Type
REMARK                         _______ _______ _______ _____ _____    ______ ____
ROOT
ATOM      4  C   UNL     1      -0.305   1.889  24.312  0.00  0.00    +0.006 C 
ATOM      5  C   UNL     1       0.127   1.211  24.130  0.00  0.00    +0.005 C 
ATOM      6  C   UNL     1      -0.256   0.542  23.836  0.00  0.00    +0.027 C 
ATOM     20  C   UNL     1      -1.073   0.552  23.723  0.00  0.00    -0.048 C 
ATOM     21  C   UNL     1      -1.458  -0.116  23.429  0.00  0.00    +0.026 C 
ATOM     22  C   UNL     1      -1.507   1.231  23.905  0.00  0.00    -0.034 C 
ATOM     23  C   UNL     1      -1.123   1.899  24.199  0.00  0.00    +0.037 C 
ENDROOT
BRANCH   4   2
ATOM      1  C   UNL     1       0.279   2.600  25.404  0.00  0.00    +0.000 C 
ATOM      2  C   UNL     1       0.078   2.557  24.605  0.00  0.00    +0.000 C 
ATOM      3  C   UNL     1       0.261   3.183  24.100  0.00  0.00    +0.000 C 
ENDBRANCH   4   2
BRANCH   6   7
ATOM      7  C   UNL     1       0.177  -0.136  23.655  0.00  0.00    +0.091 C 
BRANCH   7   8
ATOM      8  C   UNL     1       0.880  -0.074  23.226  0.00  0.00    +0.227 A 
ATOM      9  N   UNL     1       0.945  -0.065  22.403  0.00  0.00    -0.111 NA
ATOM     10  N   UNL     1       1.746   0.004  22.213  0.00  0.00    -0.107 NA
ATOM     11  C   UNL     1       2.173   0.036  22.918  0.00  0.00    +0.250 A 
ATOM     12  O   UNL     1       1.637  -0.012  23.544  0.00  0.00    -0.420 OA
BRANCH  11  13
ATOM     13  C   UNL     1       2.992   0.105  22.986  0.00  0.00    +0.055 A 
ATOM     14  C   UNL     1       3.436  -0.523  23.284  0.00  0.00    +0.004 A 
ATOM     15  C   UNL     1       4.255  -0.456  23.352  0.00  0.00    -0.004 A 
ATOM     16  C   UNL     1       4.631   0.243  23.122  0.00  0.00    -0.022 A 
ATOM     17  C   UNL     1       5.451   0.311  23.190  0.00  0.00    +0.031 C 
ATOM     18  C   UNL     1       4.189   0.871  22.824  0.00  0.00    -0.004 A 
ATOM     19  C   UNL     1       3.368   0.802  22.756  0.00  0.00    +0.004 A 
ENDBRANCH  11  13
ENDBRANCH   7   8
ENDBRANCH   6   7
BRANCH  23  24
ATOM     24  C   UNL     1      -1.556   2.576  24.380  0.00  0.00    +0.076 C 
BRANCH  24  25
ATOM     25  N   UNL     1      -2.362   2.519  24.542  0.00  0.00    -0.269 NA
ATOM     26  C   UNL     1      -2.915   2.690  23.953  0.00  0.00    +0.094 C 
ATOM     27  C   UNL     1      -3.722   2.632  24.116  0.00  0.00    +0.110 C 
ATOM     28  N   UNL     1      -3.976   2.405  24.868  0.00  0.00    -0.289 N 
ATOM     29  C   UNL     1      -3.424   2.235  25.456  0.00  0.00    +0.110 C 
ATOM     30  C   UNL     1      -2.617   2.292  25.293  0.00  0.00    +0.094 C 
BRANCH  28  31
ATOM     31  C   UNL     1      -4.783   2.348  25.031  0.00  0.00    +0.151 A 
ATOM     32  C   UNL     1      -5.164   2.952  25.446  0.00  0.00    +0.133 A 
ATOM     33  N   UNL     1      -5.971   2.895  25.608  0.00  0.00    -0.238 NA
ATOM     34  C   UNL     1      -6.397   2.234  25.356  0.00  0.00    +0.120 A 
ATOM     35  C   UNL     1      -6.016   1.632  24.941  0.00  0.00    +0.121 A 
ATOM     36  N   UNL     1      -5.209   1.689  24.779  0.00  0.00    -0.226 NA
ENDBRANCH  28  31
ENDBRANCH  24  25
ENDBRANCH  23  24
TORSDOF 7
ENDMDL
MODEL 3
REMARK VINA RESULT:      -9.1      1.972      4.702
REMARK  Name = 
REMARK  7 active torsions:
REMARK  status: ('A' for Active; 'I' for Inactive)
REMARK    1  A    between atoms: C_2  and  C_4
REMARK    2  A    between atoms: C_6  and  C_7
REMARK    3  A    between atoms: C_7  and  C_8
REMARK    4  A    between atoms: C_11  and  C_13
REMARK    5  A    between atoms: C_23  and  C_24
REMARK    6  A    between atoms: C_24  and  N_25
REMARK    7  A    between atoms: N_28  and  C_31
REMARK                            x       y       z     vdW  Elec       q    Type
REMARK                         _______ _______ _______ _____ _____    ______ ____
ROOT
ATOM      4  C   UNL     1      -0.479   2.376  25.121  0.00  0.00    +0.006 C 
ATOM      5  C   UNL     1      -0.162   1.696  24.779  0.00  0.00    +0.005 C 
ATOM      6  C   UNL     1      -0.485   1.394  24.083  0.00  0.00    +0.027 C 
ATOM     20  C   UNL     1      -1.126   1.774  23.728  0.00  0.00    -0.048 C 
ATOM     21  C   UNL     1      -1.450   1.474  23.031  0.00  0.00    +0.026 C 
ATOM     22  C   UNL     1      -1.444   2.455  24.070  0.00  0.00    -0.034 C 
ATOM     23  C   UNL     1      -1.120   2.755  24.767  0.00  0.00    +0.037 C 
ENDROOT
BRANCH   4   2
ATOM      1  C   UNL     1       0.275   3.380  25.803  0.00  0.00    +0.000 C 
ATOM      2  C   UNL     1      -0.156   2.676  25.818  0.00  0.00    +0.000 C 
ATOM      3  C   UNL     1      -0.263   2.273  26.530  0.00  0.00    +0.000 C 
ENDBRANCH   4   2
BRANCH   6   7
ATOM      7  C   UNL     1      -0.169   0.714  23.741  0.00  0.00    +0.091 C 
BRANCH   7   8
ATOM      8  C   UNL     1      -0.364  -0.029  24.043  0.00  0.00    +0.227 A 
ATOM      9  N   UNL     1       0.166  -0.581  24.351  0.00  0.00    -0.111 NA
ATOM     10  N   UNL     1      -0.266  -1.243  24.588  0.00  0.00    -0.107 NA
ATOM     11  C   UNL     1      -1.062  -1.100  24.426  0.00  0.00    +0.250 A 
ATOM     12  O   UNL     1      -1.122  -0.349  24.089  0.00  0.00    -0.420 OA
BRANCH  11  13
ATOM     13  C   UNL     1      -1.687  -1.616  24.575  0.00  0.00    +0.055 A 
ATOM     14  C   UNL     1      -2.292  -1.394  25.091  0.00  0.00    +0.004 A 
ATOM     15  C   UNL     1      -2.918  -1.909  25.241  0.00  0.00    -0.004 A 
ATOM     16  C   UNL     1      -2.940  -2.648  24.873  0.00  0.00    -0.022 A 
ATOM     17  C   UNL     1      -3.566  -3.165  25.023  0.00  0.00    +0.031 C 
ATOM     18  C   UNL     1      -2.336  -2.871  24.358  0.00  0.00    -0.004 A 
ATOM     19  C   UNL     1      -1.710  -2.354  24.209  0.00  0.00    +0.004 A 
ENDBRANCH  11  13
ENDBRANCH   7   8
ENDBRANCH   6   7
BRANCH  23  24
ATOM     24  C   UNL     1      -1.437   3.436  25.108  0.00  0.00    +0.076 C 
BRANCH  24  25
ATOM     25  N   UNL     1      -2.253   3.508  25.202  0.00  0.00    -0.269 NA
ATOM     26  C   UNL     1      -2.711   3.835  24.599  0.00  0.00    +0.094 C 
ATOM     27  C   UNL     1      -3.527   3.908  24.693  0.00  0.00    +0.110 C 
ATOM     28  N   UNL     1      -3.886   3.653  25.391  0.00  0.00    -0.289 N 
ATOM     29  C   UNL     1      -3.428   3.325  25.994  0.00  0.00    +0.110 C 
ATOM     30  C   UNL     1      -2.612   3.253  25.900  0.00  0.00    +0.094 C 
BRANCH  28  31
ATOM     31  C   UNL     1      -4.703   3.725  25.486  0.00  0.00    +0.151 A 
ATOM     32  C   UNL     1      -5.045   4.473  25.556  0.00  0.00    +0.133 A 
ATOM     33  N   UNL     1      -5.861   4.545  25.651  0.00  0.00    -0.238 NA
ATOM     34  C   UNL     1      -6.336   3.870  25.675  0.00  0.00    +0.120 A 
ATOM     35  C   UNL     1      -5.993   3.123  25.604  0.00  0.00    +0.121 A 
ATOM     36  N   UNL     1      -5.176   3.051  25.509  0.00  0.00    -0.226 NA
ENDBRANCH  28  31
ENDBRANCH  24  25
ENDBRANCH  23  24
TORSDOF 7
ENDMDL
MODEL 4
REMARK VINA RESULT:      -8.9      2.734      4.115
REMARK  Name = 
REMARK  7 active torsions:
REMARK  status: ('A' for Active; 'I' for Inactive)
REMARK    1  A    between atoms: C_2  and  C_4
REMARK    2  A    between atoms: C_6  and  C_7
REMARK    3  A    between atoms: C_7  and  C_8
REMARK    4  A    between atoms: C_11  and  C_13
REMARK    5  A    between atoms: C_23  and  C_24
REMARK    6  A    between atoms: C_24  and  N_25
REMARK    7  A    between atoms: N_28  and  C_31
REMARK                            x       y       z     vdW  Elec       q    Type
REMARK                         _______ _______ _______ _____ _____    ______ ____
ROOT
ATOM      4  C   UNL     1      -5.057   1.335  24.964  0.00  0.00    +0.006 C 
ATOM      5  C   UNL     1      -5.005   0.561  24.687  0.00  0.00    +0.005 C 
ATOM      6  C   UNL     1      -4.448   0.364  24.111  0.00  0.00    +0.027 C 
ATOM     20  C   UNL     1      -3.942   0.943  23.812  0.00  0.00    -0.048 C 
ATOM     21  C   UNL     1      -3.384   0.748  23.237  0.00  0.00    +0.026 C 
ATOM     22  C   UNL     1      -3.993   1.719  24.090  0.00  0.00    -0.034 C 
ATOM     23  C   UNL     1      -4.551   1.915  24.666  0.00  0.00    +0.037 C 
ENDROOT
BRANCH   4   2
ATOM      1  C   UNL     1      -6.324   1.889  25.322  0.00  0.00    +0.000 C 
ATOM      2  C   UNL     1      -5.613   1.531  25.540  0.00  0.00    +0.000 C 
ATOM      3  C   UNL     1      -5.460   1.369  26.335  0.00  0.00    +0.000 C 
ENDBRANCH   4   2
BRANCH   6   7
ATOM      7  C   UNL     1      -4.396  -0.411  23.834  0.00  0.00    +0.091 C 
BRANCH   7   8
ATOM      8  C   UNL     1      -3.925  -0.961  24.231  0.00  0.00    +0.227 A 
ATOM      9  N   UNL     1      -4.197  -1.614  24.656  0.00  0.00    -0.111 NA
ATOM     10  N   UNL     1      -3.541  -2.010  24.960  0.00  0.00    -0.107 NA
ATOM     11  C   UNL     1      -2.864  -1.602  24.724  0.00  0.00    +0.250 A 
ATOM     12  O   UNL     1      -3.102  -0.953  24.273  0.00  0.00    -0.420 OA
BRANCH  11  13
ATOM     13  C   UNL     1      -2.086  -1.807  24.905  0.00  0.00    +0.055 A 
ATOM     14  C   UNL     1      -1.657  -1.357  25.448  0.00  0.00    +0.004 A 
ATOM     15  C   UNL     1      -0.879  -1.561  25.631  0.00  0.00    -0.004 A 
ATOM     16  C   UNL     1      -0.529  -2.215  25.270  0.00  0.00    -0.022 A 
ATOM     17  C   UNL     1       0.250  -2.419  25.452  0.00  0.00    +0.031 C 
ATOM     18  C   UNL     1      -0.957  -2.665  24.727  0.00  0.00    -0.004 A 
ATOM     19  C   UNL     1      -1.736  -2.460  24.545  0.00  0.00    +0.004 A 
ENDBRANCH  11  13
ENDBRANCH   7   8
ENDBRANCH   6   7
BRANCH  23  24
ATOM     24  C   UNL     1      -4.602   2.690  24.943  0.00  0.00    +0.076 C 
BRANCH  24  25
ATOM     25  N   UNL     1      -3.934   3.172  24.944  0.00  0.00    -0.269 NA
ATOM     26  C   UNL     1      -3.383   3.113  25.557  0.00  0.00    +0.094 C 
ATOM     27  C   UNL     1      -2.715   3.596  25.559  0.00  0.00    +0.110 C 
ATOM     28  N   UNL     1      -2.596   4.138  24.948  0.00  0.00    -0.289 N 
ATOM     29  C   UNL     1      -3.145   4.197  24.336  0.00  0.00    +0.110 C 
ATOM     30  C   UNL     1      -3.814   3.714  24.334  0.00  0.00    +0.094 C 
BRANCH  28  31
ATOM     31  C   UNL     1      -1.926   4.622  24.949  0.00  0.00    +0.151 A 
ATOM     32  C   UNL     1      -2.002   5.429  25.101  0.00  0.00    +0.133 A 
ATOM     33  N   UNL     1      -1.333   5.912  25.103  0.00  0.00    -0.238 NA
ATOM     34  C   UNL     1      -0.589   5.588  24.953  0.00  0.00    +0.120 A 
ATOM     35  C   UNL     1      -0.515   4.780  24.801  0.00  0.00    +0.121 A 
ATOM     36  N   UNL     1      -1.184   4.297  24.799  0.00  0.00    -0.226 NA
ENDBRANCH  28  31
ENDBRANCH  24  25
ENDBRANCH  23  24
TORSDOF 7
ENDMDL
MODEL 5
REMARK VINA RESULT:      -8.8      1.735      2.761
REMARK  Name = 
REMARK  7 active torsions:
REMARK  status: ('A' for Active; 'I' for Inactive)
REMARK    1  A    between atoms: C_2  and  C_4
REMARK    2  A    between atoms: C_6  and  C_7
REMARK    3  A    between atoms: C_7  and  C_8
REMARK    4  A    between atoms: C_11  and  C_13
REMARK    5  A    between atoms: C_23  and  C_24
REMARK    6  A    between atoms: C_24  and  N_25
REMARK    7  A    between atoms: N_28  and  C_31
REMARK                            x       y       z     vdW  Elec       q    Type
REMARK                         _______ _______ _______ _____ _____    ______ ____
ROOT
ATOM      4  C   UNL     1      -1.913   0.453  24.227  0.00  0.00    +0.006 C 
ATOM      5  C   UNL     1      -2.563   0.851  23.913  0.00  0.00    +0.005 C 
ATOM      6  C   UNL     1      -2.452   1.436  23.341  0.00  0.00    +0.027 C 
ATOM     20  C   UNL     1      -1.691   1.622  23.084  0.00  0.00    -0.048 C 
ATOM     21  C   UNL     1      -1.579   2.206  22.513  0.00  0.00    +0.026 C 
ATOM     22  C   UNL     1      -1.040   1.224  23.399  0.00  0.00    -0.034 C 
ATOM     23  C   UNL     1      -1.152   0.639  23.971  0.00  0.00    +0.037 C 
ENDROOT
BRANCH   4   2
ATOM      1  C   UNL     1      -1.901   0.042  25.596  0.00  0.00    +0.000 C 
ATOM      2  C   UNL     1      -2.024  -0.131  24.799  0.00  0.00    +0.000 C 
ATOM      3  C   UNL     1      -2.259  -0.890  24.573  0.00  0.00    +0.000 C 
ENDBRANCH   4   2
BRANCH   6   7
ATOM      7  C   UNL     1      -3.102   1.834  23.026  0.00  0.00    +0.091 C 
BRANCH   7   8
ATOM      8  C   UNL     1      -3.632   2.220  23.528  0.00  0.00    +0.227 A 
ATOM      9  N   UNL     1      -3.749   3.036  23.574  0.00  0.00    -0.111 NA
ATOM     10  N   UNL     1      -4.327   3.178  24.146  0.00  0.00    -0.107 NA
ATOM     11  C   UNL     1      -4.566   2.450  24.452  0.00  0.00    +0.250 A 
ATOM     12  O   UNL     1      -4.137   1.859  24.070  0.00  0.00    -0.420 OA
BRANCH  11  13
ATOM     13  C   UNL     1      -5.136   2.335  25.038  0.00  0.00    +0.055 A 
ATOM     14  C   UNL     1      -5.688   1.726  24.962  0.00  0.00    +0.004 A 
ATOM     15  C   UNL     1      -6.257   1.609  25.547  0.00  0.00    -0.004 A 
ATOM     16  C   UNL     1      -6.275   2.102  26.209  0.00  0.00    -0.022 A 
ATOM     17  C   UNL     1      -6.844   1.986  26.795  0.00  0.00    +0.031 C 
ATOM     18  C   UNL     1      -5.723   2.711  26.286  0.00  0.00    -0.004 A 
ATOM     19  C   UNL     1      -5.153   2.827  25.699  0.00  0.00    +0.004 A 
ENDBRANCH  11  13
ENDBRANCH   7   8
ENDBRANCH   6   7
BRANCH  23  24
ATOM     24  C   UNL     1      -0.501   0.242  24.285  0.00  0.00    +0.076 C 
BRANCH  24  25
ATOM     25  N   UNL     1       0.235   0.300  23.919  0.00  0.00    -0.269 NA
ATOM     26  C   UNL     1       0.725   0.945  24.077  0.00  0.00    +0.094 C 
ATOM     27  C   UNL     1       1.462   1.003  23.711  0.00  0.00    +0.110 C 
ATOM     28  N   UNL     1       1.708   0.416  23.185  0.00  0.00    -0.289 N 
ATOM     29  C   UNL     1       1.219  -0.228  23.026  0.00  0.00    +0.110 C 
ATOM     30  C   UNL     1       0.482  -0.286  23.393  0.00  0.00    +0.094 C 
BRANCH  28  31
ATOM     31  C   UNL     1       2.446   0.475  22.818  0.00  0.00    +0.151 A 
ATOM     32  C   UNL     1       2.569   0.121  22.082  0.00  0.00    +0.133 A 
ATOM     33  N   UNL     1       3.305   0.180  21.715  0.00  0.00    -0.238 NA
ATOM     34  C   UNL     1       3.919   0.591  22.084  0.00  0.00    +0.120 A 
ATOM     35  C   UNL     1       3.795   0.944  22.819  0.00  0.00    +0.121 A 
ATOM     36  N   UNL     1       3.058   0.886  23.186  0.00  0.00    -0.226 NA
ENDBRANCH  28  31
ENDBRANCH  24  25
ENDBRANCH  23  24
TORSDOF 7
ENDMDL
MODEL 6
REMARK VINA RESULT:      -8.7      2.634      5.153
REMARK  Name = 
REMARK  7 active torsions:
REMARK  status: ('A' for Active; 'I' for Inactive)
REMARK    1  A    between atoms: C_2  and  C_4
REMARK    2  A    between atoms: C_6  and  C_7
REMARK    3  A    between atoms: C_7  and  C_8
REMARK    4  A    between atoms: C_11  and  C_13
REMARK    5  A    between atoms: C_23  and  C_24
REMARK    6  A    between atoms: C_24  and  N_25
REMARK    7  A    between atoms: N_28  and  C_31
REMARK                            x       y       z     vdW  Elec       q    Type
REMARK                         _______ _______ _______ _____ _____    ______ ____
ROOT
ATOM      4  C   UNL     1      -5.029   2.169  24.982  0.00  0.00    +0.006 C 
ATOM      5  C   UNL     1      -4.669   2.898  24.841  0.00  0.00    +0.005 C 
ATOM      6  C   UNL     1      -4.088   2.966  24.260  0.00  0.00    +0.027 C 
ATOM     20  C   UNL     1      -3.867   2.305  23.818  0.00  0.00    -0.048 C 
ATOM     21  C   UNL     1      -3.286   2.372  23.237  0.00  0.00    +0.026 C 
ATOM     22  C   UNL     1      -4.227   1.576  23.958  0.00  0.00    -0.034 C 
ATOM     23  C   UNL     1      -4.808   1.508  24.540  0.00  0.00    +0.037 C 
ENDROOT
BRANCH   4   2
ATOM      1  C   UNL     1      -6.395   1.968  25.349  0.00  0.00    +0.000 C 
ATOM      2  C   UNL     1      -5.610   2.101  25.563  0.00  0.00    +0.000 C 
ATOM      3  C   UNL     1      -5.405   2.167  26.360  0.00  0.00    +0.000 C 
ENDBRANCH   4   2
BRANCH   6   7
ATOM      7  C   UNL     1      -3.728   3.694  24.119  0.00  0.00    +0.091 C 
BRANCH   7   8
ATOM      8  C   UNL     1      -3.051   3.909  24.542  0.00  0.00    +0.227 A 
ATOM      9  N   UNL     1      -2.842   4.675  24.765  0.00  0.00    -0.111 NA
ATOM     10  N   UNL     1      -2.128   4.634  25.177  0.00  0.00    -0.107 NA
ATOM     11  C   UNL     1      -1.896   3.843  25.207  0.00  0.00    +0.250 A 
ATOM     12  O   UNL     1      -2.468   3.395  24.815  0.00  0.00    -0.420 OA
BRANCH  11  13
ATOM     13  C   UNL     1      -1.214   3.551  25.567  0.00  0.00    +0.055 A 
ATOM     14  C   UNL     1      -1.272   3.091  26.249  0.00  0.00    +0.004 A 
ATOM     15  C   UNL     1      -0.590   2.798  26.610  0.00  0.00    -0.004 A 
ATOM     16  C   UNL     1       0.151   2.966  26.287  0.00  0.00    -0.022 A 
ATOM     17  C   UNL     1       0.834   2.674  26.647  0.00  0.00    +0.031 C 
ATOM     18  C   UNL     1       0.210   3.426  25.604  0.00  0.00    -0.004 A 
ATOM     19  C   UNL     1      -0.474   3.718  25.244  0.00  0.00    +0.004 A 
ENDBRANCH  11  13
ENDBRANCH   7   8
ENDBRANCH   6   7
BRANCH  23  24
ATOM     24  C   UNL     1      -5.168   0.779  24.680  0.00  0.00    +0.076 C 
BRANCH  24  25
ATOM     25  N   UNL     1      -4.723   0.086  24.644  0.00  0.00    -0.269 NA
ATOM     26  C   UNL     1      -4.756  -0.391  23.971  0.00  0.00    +0.094 C 
ATOM     27  C   UNL     1      -4.311  -1.084  23.935  0.00  0.00    +0.110 C 
ATOM     28  N   UNL     1      -3.834  -1.301  24.573  0.00  0.00    -0.289 N 
ATOM     29  C   UNL     1      -3.801  -0.825  25.245  0.00  0.00    +0.110 C 
ATOM     30  C   UNL     1      -4.246  -0.131  25.281  0.00  0.00    +0.094 C 
BRANCH  28  31
ATOM     31  C   UNL     1      -3.388  -1.996  24.537  0.00  0.00    +0.151 A 
ATOM     32  C   UNL     1      -3.766  -2.729  24.551  0.00  0.00    +0.133 A 
ATOM     33  N   UNL     1      -3.322  -3.423  24.515  0.00  0.00    -0.238 NA
ATOM     34  C   UNL     1      -2.498  -3.384  24.465  0.00  0.00    +0.120 A 
ATOM     35  C   UNL     1      -2.121  -2.650  24.451  0.00  0.00    +0.121 A 
ATOM     36  N   UNL     1      -2.566  -1.956  24.487  0.00  0.00    -0.226 NA
ENDBRANCH  28  31
ENDBRANCH  24  25
ENDBRANCH  23  24
TORSDOF 7
ENDMDL
MODEL 7
REMARK VINA RESULT:      -8.6      1.673      3.801
REMARK  Name = 
REMARK  7 active torsions:
REMARK  status: ('A' for Active; 'I' for Inactive)
REMARK    1  A    between atoms: C_2  and  C_4
REMARK    2  A    between atoms: C_6  and  C_7
REMARK    3  A    between atoms: C_7  and  C_8
REMARK    4  A    between atoms: C_11  and  C_13
REMARK    5  A    between atoms: C_23  and  C_24
REMARK    6  A    between atoms: C_24  and  N_25
REMARK    7  A    between atoms: N_28  and  C_31
REMARK                            x       y       z     vdW  Elec       q    Type
REMARK                         _______ _______ _______ _____ _____    ______ ____
ROOT
ATOM      4  C   UNL     1      -3.276  -0.838  25.224  0.00  0.00    +0.006 C 
ATOM      5  C   UNL     1      -3.959  -0.378  25.176  0.00  0.00    +0.005 C 
ATOM      6  C   UNL     1      -4.082   0.113  24.525  0.00  0.00    +0.027 C 
ATOM     20  C   UNL     1      -3.521   0.144  23.921  0.00  0.00    -0.048 C 
ATOM     21  C   UNL     1      -3.643   0.635  23.269  0.00  0.00    +0.026 C 
ATOM     22  C   UNL     1      -2.837  -0.316  23.968  0.00  0.00    -0.034 C 
ATOM     23  C   UNL     1      -2.715  -0.806  24.620  0.00  0.00    +0.037 C 
ENDROOT
BRANCH   4   2
ATOM      1  C   UNL     1      -3.329  -2.133  25.824  0.00  0.00    +0.000 C 
ATOM      2  C   UNL     1      -3.154  -1.329  25.875  0.00  0.00    +0.000 C 
ATOM      3  C   UNL     1      -2.856  -1.015  26.578  0.00  0.00    +0.000 C 
ENDBRANCH   4   2
BRANCH   6   7
ATOM      7  C   UNL     1      -4.765   0.572  24.477  0.00  0.00    +0.091 C 
BRANCH   7   8
ATOM      8  C   UNL     1      -4.789   1.316  24.837  0.00  0.00    +0.227 A 
ATOM      9  N   UNL     1      -5.425   1.631  25.256  0.00  0.00    -0.111 NA
ATOM     10  N   UNL     1      -5.210   2.383  25.518  0.00  0.00    -0.107 NA
ATOM     11  C   UNL     1      -4.440   2.532  25.261  0.00  0.00    +0.250 A 
ATOM     12  O   UNL     1      -4.180   1.871  24.840  0.00  0.00    -0.420 OA
BRANCH  11  13
ATOM     13  C   UNL     1      -4.006   3.219  25.400  0.00  0.00    +0.055 A 
ATOM     14  C   UNL     1      -3.640   3.336  26.130  0.00  0.00    +0.004 A 
ATOM     15  C   UNL     1      -3.206   4.023  26.270  0.00  0.00    -0.004 A 
ATOM     16  C   UNL     1      -3.139   4.595  25.679  0.00  0.00    -0.022 A 
ATOM     17  C   UNL     1      -2.705   5.283  25.818  0.00  0.00    +0.031 C 
ATOM     18  C   UNL     1      -3.504   4.480  24.948  0.00  0.00    -0.004 A 
ATOM     19  C   UNL     1      -3.938   3.791  24.809  0.00  0.00    +0.004 A 
ENDBRANCH  11  13
ENDBRANCH   7   8
ENDBRANCH   6   7
BRANCH  23  24
ATOM     24  C   UNL     1      -2.032  -1.266  24.666  0.00  0.00    +0.076 C 
BRANCH  24  25
ATOM     25  N   UNL     1      -1.326  -0.989  24.343  0.00  0.00    -0.269 NA
ATOM     26  C   UNL     1      -1.038  -1.315  23.642  0.00  0.00    +0.094 C 
ATOM     27  C   UNL     1      -0.331  -1.039  23.318  0.00  0.00    +0.110 C 
ATOM     28  N   UNL     1       0.087  -0.436  23.696  0.00  0.00    -0.289 N 
ATOM     29  C   UNL     1      -0.201  -0.110  24.397  0.00  0.00    +0.110 C 
ATOM     30  C   UNL     1      -0.907  -0.387  24.720  0.00  0.00    +0.094 C 
BRANCH  28  31
ATOM     31  C   UNL     1       0.795  -0.159  23.372  0.00  0.00    +0.151 A 
ATOM     32  C   UNL     1       1.117   0.554  23.636  0.00  0.00    +0.133 A 
ATOM     33  N   UNL     1       1.824   0.831  23.312  0.00  0.00    -0.238 NA
ATOM     34  C   UNL     1       2.208   0.395  22.725  0.00  0.00    +0.120 A 
ATOM     35  C   UNL     1       1.884  -0.317  22.463  0.00  0.00    +0.121 A 
ATOM     36  N   UNL     1       1.178  -0.594  22.786  0.00  0.00    -0.226 NA
ENDBRANCH  28  31
ENDBRANCH  24  25
ENDBRANCH  23  24
TORSDOF 7
ENDMDL
MODEL 8
REMARK VINA RESULT:      -8.4      1.986      4.022
REMARK  Name = 
REMARK  7 active torsions:
REMARK  status: ('A' for Active; 'I' for Inactive)
REMARK    1  A    between atoms: C_2  and  C_4
REMARK    2  A    between atoms: C_6  and  C_7
REMARK    3  A    between atoms: C_7  and  C_8
REMARK    4  A    between atoms: C_11  and  C_13
REMARK    5  A    between atoms: C_23  and  C_24
REMARK    6  A    between atoms: C_24  and  N_25
REMARK    7  A    between atoms: N_28  and  C_31
REMARK                            x       y       z     vdW  Elec       q    Type
REMARK                         _______ _______ _______ _____ _____    ______ ____
ROOT
ATOM      4  C   UNL     1       0.148   0.014  23.985  0.00  0.00    +0.006 C 
ATOM      5  C   UNL     1      -0.058  -0.698  24.347  0.00  0.00    +0.005 C 
ATOM      6  C   UNL     1      -0.451  -0.694  25.072  0.00  0.00    +0.027 C 
ATOM     20  C   UNL     1      -0.639   0.022  25.436  0.00  0.00    -0.048 C 
ATOM     21  C   UNL     1      -1.031   0.027  26.161  0.00  0.00    +0.026 C 
ATOM     22  C   UNL     1      -0.433   0.735  25.074  0.00  0.00    -0.034 C 
ATOM     23  C   UNL     1      -0.040   0.730  24.348  0.00  0.00    +0.037 C 
ENDROOT
BRANCH   4   2
ATOM      1  C   UNL     1       0.111  -0.045  22.558  0.00  0.00    +0.000 C 
ATOM      2  C   UNL     1       0.540   0.010  23.260  0.00  0.00    +0.000 C 
ATOM      3  C   UNL     1       1.364   0.060  23.237  0.00  0.00    +0.000 C 
ENDBRANCH   4   2
BRANCH   6   7
ATOM      7  C   UNL     1      -0.657  -1.406  25.434  0.00  0.00    +0.091 C 
BRANCH   7   8
ATOM      8  C   UNL     1      -1.210  -1.905  25.079  0.00  0.00    +0.227 A 
ATOM      9  N   UNL     1      -1.081  -2.687  24.850  0.00  0.00    -0.111 NA
ATOM     10  N   UNL     1      -1.781  -2.975  24.520  0.00  0.00    -0.107 NA
ATOM     11  C   UNL     1      -2.341  -2.370  24.544  0.00  0.00    +0.250 A 
ATOM     12  O   UNL     1      -1.988  -1.709  24.890  0.00  0.00    -0.420 OA
BRANCH  11  13
ATOM     13  C   UNL     1      -3.118  -2.417  24.272  0.00  0.00    +0.055 A 
ATOM     14  C   UNL     1      -3.536  -1.729  24.093  0.00  0.00    +0.004 A 
ATOM     15  C   UNL     1      -4.313  -1.775  23.820  0.00  0.00    -0.004 A 
ATOM     16  C   UNL     1      -4.672  -2.512  23.726  0.00  0.00    -0.022 A 
ATOM     17  C   UNL     1      -5.450  -2.559  23.452  0.00  0.00    +0.031 C 
ATOM     18  C   UNL     1      -4.256  -3.201  23.904  0.00  0.00    -0.004 A 
ATOM     19  C   UNL     1      -3.478  -3.153  24.177  0.00  0.00    +0.004 A 
ENDBRANCH  11  13
ENDBRANCH   7   8
ENDBRANCH   6   7
BRANCH  23  24
ATOM     24  C   UNL     1       0.165   1.443  23.987  0.00  0.00    +0.076 C 
BRANCH  24  25
ATOM     25  N   UNL     1      -0.199   2.144  24.220  0.00  0.00    -0.269 NA
ATOM     26  C   UNL     1      -0.920   2.367  23.884  0.00  0.00    +0.094 C 
ATOM     27  C   UNL     1      -1.285   3.069  24.117  0.00  0.00    +0.110 C 
ATOM     28  N   UNL     1      -0.930   3.548  24.688  0.00  0.00    -0.289 N 
ATOM     29  C   UNL     1      -0.210   3.326  25.024  0.00  0.00    +0.110 C 
ATOM     30  C   UNL     1       0.155   2.624  24.790  0.00  0.00    +0.094 C 
BRANCH  28  31
ATOM     31  C   UNL     1      -1.295   4.250  24.922  0.00  0.00    +0.151 A 
ATOM     32  C   UNL     1      -0.924   4.974  24.783  0.00  0.00    +0.133 A 
ATOM     33  N   UNL     1      -1.289   5.676  25.016  0.00  0.00    -0.238 NA
ATOM     34  C   UNL     1      -2.025   5.654  25.389  0.00  0.00    +0.120 A 
ATOM     35  C   UNL     1      -2.396   4.930  25.527  0.00  0.00    +0.121 A 
ATOM     36  N   UNL     1      -2.030   4.228  25.294  0.00  0.00    -0.226 NA
ENDBRANCH  28  31
ENDBRANCH  24  25
ENDBRANCH  23  24
TORSDOF 7
ENDMDL
MODEL 9
REMARK VINA RESULT:      -8.1      2.323      3.379
REMARK  Name = 
REMARK  7 active torsions:
REMARK  status: ('A' for Active; 'I' for Inactive)
REMARK    1  A    between atoms: C_2  and  C_4
REMARK    2  A    between atoms: C_6  and  C_7
REMARK    3  A    between atoms: C_7  and  C_8
REMARK    4  A    between atoms: C_11  and  C_13
REMARK    5  A    between atoms: C_23  and  C_24
REMARK    6  A    between atoms: C_24  and  N_25
REMARK    7  A    between atoms: N_28  and  C_31
REMARK                            x       y       z     vdW  Elec       q    Type
REMARK                         _______ _______ _______ _____ _____    ______ ____
ROOT
ATOM      4  C   UNL     1      -1.312   2.939  24.568  0.00  0.00    +0.006 C 
ATOM      5  C   UNL     1      -1.974   3.357  24.311  0.00  0.00    +0.005 C 
ATOM      6  C   UNL     1      -2.449   3.050  23.710  0.00  0.00    +0.027 C 
ATOM     20  C   UNL     1      -2.260   2.324  23.366  0.00  0.00    -0.048 C 
ATOM     21  C   UNL     1      -2.734   2.016  22.765  0.00  0.00    +0.026 C 
ATOM     22  C   UNL     1      -1.597   1.906  23.623  0.00  0.00    -0.034 C 
ATOM     23  C   UNL     1      -1.123   2.213  24.224  0.00  0.00    +0.037 C 
ENDROOT
BRANCH   4   2
ATOM      1  C   UNL     1      -0.133   3.632  24.982  0.00  0.00    +0.000 C 
ATOM      2  C   UNL     1      -0.838   3.246  25.168  0.00  0.00    +0.000 C 
ATOM      3  C   UNL     1      -1.069   3.167  25.958  0.00  0.00    +0.000 C 
ENDBRANCH   4   2
BRANCH   6   7
ATOM      7  C   UNL     1      -3.111   3.468  23.452  0.00  0.00    +0.091 C 
BRANCH   7   8
ATOM      8  C   UNL     1      -3.774   3.533  23.942  0.00  0.00    +0.227 A 
ATOM      9  N   UNL     1      -4.189   4.227  24.104  0.00  0.00    -0.111 NA
ATOM     10  N   UNL     1      -4.808   4.039  24.616  0.00  0.00    -0.107 NA
ATOM     11  C   UNL     1      -4.775   3.229  24.770  0.00  0.00    +0.250 A 
ATOM     12  O   UNL     1      -4.135   2.916  24.352  0.00  0.00    -0.420 OA
BRANCH  11  13
ATOM     13  C   UNL     1      -5.290   2.805  25.255  0.00  0.00    +0.055 A 
ATOM     14  C   UNL     1      -5.367   3.007  26.051  0.00  0.00    +0.004 A 
ATOM     15  C   UNL     1      -5.882   2.585  26.538  0.00  0.00    -0.004 A 
ATOM     16  C   UNL     1      -6.320   1.958  26.227  0.00  0.00    -0.022 A 
ATOM     17  C   UNL     1      -6.835   1.535  26.713  0.00  0.00    +0.031 C 
ATOM     18  C   UNL     1      -6.244   1.755  25.431  0.00  0.00    -0.004 A 
ATOM     19  C   UNL     1      -5.728   2.179  24.945  0.00  0.00    +0.004 A 
ENDBRANCH  11  13
ENDBRANCH   7   8
ENDBRANCH   6   7
BRANCH  23  24
ATOM     24  C   UNL     1      -0.460   1.795  24.480  0.00  0.00    +0.076 C 
BRANCH  24  25
ATOM     25  N   UNL     1      -0.503   0.978  24.584  0.00  0.00    -0.269 NA
ATOM     26  C   UNL     1      -0.156   0.473  24.030  0.00  0.00    +0.094 C 
ATOM     27  C   UNL     1      -0.198  -0.344  24.133  0.00  0.00    +0.110 C 
ATOM     28  N   UNL     1      -0.587  -0.657  24.790  0.00  0.00    -0.289 N 
ATOM     29  C   UNL     1      -0.933  -0.153  25.343  0.00  0.00    +0.110 C 
ATOM     30  C   UNL     1      -0.891   0.664  25.240  0.00  0.00    +0.094 C 
BRANCH  28  31
ATOM     31  C   UNL     1      -0.629  -1.475  24.894  0.00  0.00    +0.151 A 
ATOM     32  C   UNL     1      -1.271  -1.896  24.590  0.00  0.00    +0.133 A 
ATOM     33  N   UNL     1      -1.314  -2.713  24.694  0.00  0.00    -0.238 NA
ATOM     34  C   UNL     1      -0.714  -3.110  25.100  0.00  0.00    +0.120 A 
ATOM     35  C   UNL     1      -0.073  -2.688  25.402  0.00  0.00    +0.121 A 
ATOM     36  N   UNL     1      -0.031  -1.871  25.299  0.00  0.00    -0.226 NA
ENDBRANCH  28  31
ENDBRANCH  24  25
ENDBRANCH  23  24
TORSDOF 7
ENDMDL
MODEL 10
REMARK VINA RESULT:      -8.1      1.584      2.795
REMARK  Name = 
REMARK  7 active torsions:
REMARK  status: ('A' for Active; 'I' for Inactive)
REMARK    1  A    between atoms: C_2  and  C_4
REMARK    2  A    between atoms: C_6  and  C_7
REMARK    3  A    between atoms: C_7  and  C_8
REMARK    4  A    between atoms: C_11  and  C_13
REMARK    5  A    between atoms: C_23  and  C_24
REMARK    6  A    between atoms: C_24  and  N_25
REMARK    7  A    between atoms: N_28  and  C_31
REMARK                            x       y       z     vdW  Elec       q    Type
REMARK                         _______ _______ _______ _____ _____    ______ ____
ROOT
ATOM      4  C   UNL     1      -0.937   0.968  23.836  0.00  0.00    +0.006 C 
ATOM      5  C   UNL     1      -1.442   0.659  24.410  0.00  0.00    +0.005 C 
ATOM      6  C   UNL     1      -1.280  -0.075  24.750  0.00  0.00    +0.027 C 
ATOM     20  C   UNL     1      -0.612  -0.500  24.516  0.00  0.00    -0.048 C 
ATOM     21  C   UNL     1      -0.449  -1.233  24.856  0.00  0.00    +0.026 C 
ATOM     22  C   UNL     1      -0.107  -0.191  23.942  0.00  0.00    -0.034 C 
ATOM     23  C   UNL     1      -0.270   0.543  23.602  0.00  0.00    +0.037 C 
ENDROOT
BRANCH   4   2
ATOM      1  C   UNL     1      -0.891   2.395  23.890  0.00  0.00    +0.000 C 
ATOM      2  C   UNL     1      -1.099   1.701  23.495  0.00  0.00    +0.000 C 
ATOM      3  C   UNL     1      -1.471   1.741  22.759  0.00  0.00    +0.000 C 
ENDBRANCH   4   2
BRANCH   6   7
ATOM      7  C   UNL     1      -1.784  -0.384  25.324  0.00  0.00    +0.091 C 
BRANCH   7   8
ATOM      8  C   UNL     1      -2.603  -0.328  25.228  0.00  0.00    +0.227 A 
ATOM      9  N   UNL     1      -3.113  -0.952  25.049  0.00  0.00    -0.111 NA
ATOM     10  N   UNL     1      -3.879  -0.648  25.004  0.00  0.00    -0.107 NA
ATOM     11  C   UNL     1      -3.841   0.162  25.155  0.00  0.00    +0.250 A 
ATOM     12  O   UNL     1      -3.052   0.359  25.293  0.00  0.00    -0.420 OA
BRANCH  11  13
ATOM     13  C   UNL     1      -4.480   0.683  25.166  0.00  0.00    +0.055 A 
ATOM     14  C   UNL     1      -4.531   1.285  24.604  0.00  0.00    +0.004 A 
ATOM     15  C   UNL     1      -5.170   1.807  24.613  0.00  0.00    -0.004 A 
ATOM     16  C   UNL     1      -5.758   1.727  25.187  0.00  0.00    -0.022 A 
ATOM     17  C   UNL     1      -6.398   2.249  25.197  0.00  0.00    +0.031 C 
ATOM     18  C   UNL     1      -5.709   1.126  25.749  0.00  0.00    -0.004 A 
ATOM     19  C   UNL     1      -5.069   0.603  25.738  0.00  0.00    +0.004 A 
ENDBRANCH  11  13
ENDBRANCH   7   8
ENDBRANCH   6   7
BRANCH  23  24
ATOM     24  C   UNL     1       0.236   0.852  23.027  0.00  0.00    +0.076 C 
BRANCH  24  25
ATOM     25  N   UNL     1       1.042   0.682  23.053  0.00  0.00    -0.269 NA
ATOM     26  C   UNL     1       1.349   0.067  22.596  0.00  0.00    +0.094 C 
ATOM     27  C   UNL     1       2.156  -0.103  22.621  0.00  0.00    +0.110 C 
ATOM     28  N   UNL     1       2.656   0.343  23.104  0.00  0.00    -0.289 N 
ATOM     29  C   UNL     1       2.349   0.957  23.560  0.00  0.00    +0.110 C 
ATOM     30  C   UNL     1       1.542   1.127  23.535  0.00  0.00    +0.094 C 
BRANCH  28  31
ATOM     31  C   UNL     1       3.464   0.173  23.130  0.00  0.00    +0.151 A 
ATOM     32  C   UNL     1       4.009   0.717  22.833  0.00  0.00    +0.133 A 
ATOM     33  N   UNL     1       4.816   0.547  22.859  0.00  0.00    -0.238 NA
ATOM     34  C   UNL     1       5.077  -0.167  23.181  0.00  0.00    +0.120 A 
ATOM     35  C   UNL     1       4.532  -0.710  23.477  0.00  0.00    +0.121 A 
ATOM     36  N   UNL     1       3.725  -0.540  23.451  0.00  0.00    -0.226 NA
ENDBRANCH  28  31
ENDBRANCH  24  25
ENDBRANCH  23  24
TORSDOF 7
ENDMDL
