MODEL 1
REMARK VINA RESULT:     -13.1      0.000      0.000
REMARK  Name = 
REMARK  6 active torsions:
REMARK  status: ('A' for Active; 'I' for Inactive)
REMARK    1  A    between atoms: C_2  and  N_4
REMARK    2  A    between atoms: C_5  and  C_7
REMARK    3  A    between atoms: C_14  and  C_15
REMARK    4  A    between atoms: C_15  and  N_16
REMARK    5  A    between atoms: C_18  and  C_21
REMARK    6  A    between atoms: C_24  and  C_27
REMARK                            x       y       z     vdW  Elec       q    Type
REMARK                         _______ _______ _______ _____ _____    ______ ____
ROOT
ATOM     15  C   UNL     1      -4.779   2.542  24.637  0.00  0.00    +0.145 C 
ENDROOT
BRANCH  15  14
ATOM      7  C   UNL     1      -2.853   3.858  25.050  0.00  0.00    +0.094 C 
ATOM      8  C   UNL     1      -2.934   3.548  24.341  0.00  0.00    +0.081 C 
ATOM      9  N   UNL     1      -3.458   3.464  24.973  0.00  0.00    -0.272 NA
ATOM     10  C   UNL     1      -3.060   4.001  25.780  0.00  0.00    +0.072 C 
ATOM     11  C   UNL     1      -3.096   4.207  26.399  0.00  0.00    +0.018 C 
ATOM     12  C   UNL     1      -3.372   3.771  25.666  0.00  0.00    +0.013 C 
ATOM     13  C   UNL     1      -4.132   3.338  25.737  0.00  0.00    +0.019 C 
ATOM     14  C   UNL     1      -4.249   3.016  25.055  0.00  0.00    +0.082 C 
BRANCH   7   5
ATOM      4  N   UNL     1      -1.503   4.202  24.729  0.00  0.00    -0.207 NA
ATOM      5  C   UNL     1      -2.179   4.316  25.188  0.00  0.00    +0.242 C 
ATOM      6  O   UNL     1      -2.182   4.886  25.784  0.00  0.00    -0.273 OA
BRANCH   4   2
ATOM      1  C   UNL     1      -0.836   5.465  24.692  0.00  0.00    +0.023 C 
ATOM      2  C   UNL     1      -0.830   4.659  24.866  0.00  0.00    +0.095 C 
ATOM      3  C   UNL     1      -0.151   4.310  25.178  0.00  0.00    +0.023 C 
ENDBRANCH   4   2
ENDBRANCH   7   5
ENDBRANCH  15  14
BRANCH  15  16
ATOM     16  N   UNL     1      -4.855   1.742  24.826  0.00  0.00    -0.229 N 
ATOM     17  C   UNL     1      -4.347   1.138  24.586  0.00  0.00    +0.118 A 
ATOM     18  C   UNL     1      -4.631   0.429  24.900  0.00  0.00    +0.123 A 
ATOM     19  N   UNL     1      -5.314   0.596  25.332  0.00  0.00    -0.129 NA
ATOM     20  N   UNL     1      -5.452   1.407  25.286  0.00  0.00    -0.064 NA
BRANCH  18  21
ATOM     21  C   UNL     1      -4.291  -0.316  24.798  0.00  0.00    +0.021 A 
ATOM     22  C   UNL     1      -4.352  -0.702  24.070  0.00  0.00    +0.001 A 
ATOM     23  C   UNL     1      -4.012  -1.446  23.969  0.00  0.00    -0.004 A 
ATOM     24  C   UNL     1      -3.612  -1.806  24.594  0.00  0.00    -0.023 A 
ATOM     25  C   UNL     1      -3.551  -1.420  25.321  0.00  0.00    -0.004 A 
ATOM     26  C   UNL     1      -3.891  -0.676  25.423  0.00  0.00    +0.001 A 
BRANCH  24  27
ATOM     27  C   UNL     1      -3.272  -2.550  24.493  0.00  0.00    +0.019 C 
ATOM     28  C   UNL     1      -2.932  -3.296  24.391  0.00  0.00    +0.004 C 
ATOM     29  C   UNL     1      -3.999  -2.848  24.239  0.00  0.00    +0.004 C 
ATOM     30  C   UNL     1      -2.545  -2.254  24.746  0.00  0.00    +0.004 C 
ENDBRANCH  24  27
ENDBRANCH  18  21
ENDBRANCH  15  16
TORSDOF 6
ENDMDL
MODEL 2
REMARK VINA RESULT:     -12.0      1.680      5.576
REMARK  Name = 
REMARK  6 active torsions:
REMARK  status: ('A' for Active; 'I' for Inactive)
REMARK    1  A    between atoms: C_2  and  N_4
REMARK    2  A    between atoms: C_5  and  C_7
REMARK    3  A    between atoms: C_14  and  C_15
REMARK    4  A    between atoms: C_15  and  N_16
REMARK    5  A    between atoms: C_18  and  C_21
REMARK    6  A    between atoms: C_24  and  C_27
REMARK                            x       y       z     vdW  Elec       q    Type
REMARK                         _______ _______ _______ _____ _____    ______ ____
ROOT
ATOM     15  C   UNL     1      -4.883   0.998  24.776  0.00  0.00    +0.145 C 
ENDROOT
BRANCH  15  14
ATOM      7  C   UNL     1      -3.763  -1.090  24.773  0.00  0.00    +0.094 C 
ATOM      8  C   UNL     1      -4.000  -0.806  24.088  0.00  0.00    +0.081 C 
ATOM      9  N   UNL     1      -4.101  -0.449  24.826  0.00  0.00    -0.272 NA
ATOM     10  C   UNL     1      -3.672  -1.086  25.540  0.00  0.00    +0.072 C 
ATOM     11  C   UNL     1      -3.521  -1.224  26.160  0.00  0.00    +0.018 C 
ATOM     12  C   UNL     1      -3.866  -0.734  25.493  0.00  0.00    +0.013 C 
ATOM     13  C   UNL     1      -4.243   0.023  25.726  0.00  0.00    +0.019 C 
ATOM     14  C   UNL     1      -4.491   0.337  25.075  0.00  0.00    +0.082 C 
BRANCH   7   5
ATOM      4  N   UNL     1      -2.776  -1.960  24.216  0.00  0.00    -0.207 NA
ATOM      5  C   UNL     1      -3.374  -1.819  24.765  0.00  0.00    +0.242 C 
ATOM      6  O   UNL     1      -3.584  -2.405  25.307  0.00  0.00    -0.273 OA
BRANCH   4   2
ATOM      1  C   UNL     1      -1.594  -2.735  24.433  0.00  0.00    +0.023 C 
ATOM      2  C   UNL     1      -2.387  -2.688  24.208  0.00  0.00    +0.095 C 
ATOM      3  C   UNL     1      -2.790  -3.369  23.975  0.00  0.00    +0.023 C 
ENDBRANCH   4   2
ENDBRANCH   7   5
ENDBRANCH  15  14
BRANCH  15  16
ATOM     16  N   UNL     1      -4.640   1.756  24.994  0.00  0.00    -0.229 N 
ATOM     17  C   UNL     1      -3.903   2.092  24.839  0.00  0.00    +0.118 A 
ATOM     18  C   UNL     1      -3.899   2.855  25.154  0.00  0.00    +0.123 A 
ATOM     19  N   UNL     1      -4.635   2.989  25.504  0.00  0.00    -0.129 NA
ATOM     20  N   UNL     1      -5.092   2.310  25.404  0.00  0.00    -0.064 NA
BRANCH  18  21
ATOM     21  C   UNL     1      -3.271   3.388  25.125  0.00  0.00    +0.021 A 
ATOM     22  C   UNL     1      -2.995   3.662  24.397  0.00  0.00    +0.001 A 
ATOM     23  C   UNL     1      -2.367   4.196  24.368  0.00  0.00    -0.004 A 
ATOM     24  C   UNL     1      -2.015   4.456  25.067  0.00  0.00    -0.023 A 
ATOM     25  C   UNL     1      -2.291   4.183  25.795  0.00  0.00    -0.004 A 
ATOM     26  C   UNL     1      -2.919   3.649  25.824  0.00  0.00    +0.001 A 
BRANCH  24  27
ATOM     27  C   UNL     1      -1.387   4.990  25.038  0.00  0.00    +0.019 C 
ATOM     28  C   UNL     1      -0.758   5.524  25.009  0.00  0.00    +0.004 C 
ATOM     29  C   UNL     1      -1.912   5.616  25.154  0.00  0.00    +0.004 C 
ATOM     30  C   UNL     1      -0.860   4.365  24.922  0.00  0.00    +0.004 C 
ENDBRANCH  24  27
ENDBRANCH  18  21
ENDBRANCH  15  16
TORSDOF 6
ENDMDL
MODEL 3
REMARK VINA RESULT:     -10.9      2.540      6.257
REMARK  Name = 
REMARK  6 active torsions:
REMARK  status: ('A' for Active; 'I' for Inactive)
REMARK    1  A    between atoms: C_2  and  N_4
REMARK    2  A    between atoms: C_5  and  C_7
REMARK    3  A    between atoms: C_14  and  C_15
REMARK    4  A    between atoms: C_15  and  N_16
REMARK    5  A    between atoms: C_18  and  C_21
REMARK    6  A    between atoms: C_24  and  C_27
REMARK                            x       y       z     vdW  Elec       q    Type
REMARK                         _______ _______ _______ _____ _____    ______ ____
ROOT
ATOM     15  C   UNL     1      -0.599  -0.288  25.363  0.00  0.00    +0.145 C 
ENDROOT
BRANCH  15  14
ATOM      7  C   UNL     1      -2.484  -1.666  24.957  0.00  0.00    +0.094 C 
ATOM      8  C   UNL     1      -1.844  -1.794  24.533  0.00  0.00    +0.081 C 
ATOM      9  N   UNL     1      -1.934  -1.219  25.118  0.00  0.00    -0.272 NA
ATOM     10  C   UNL     1      -2.909  -1.310  25.494  0.00  0.00    +0.072 C 
ATOM     11  C   UNL     1      -3.381  -1.115  25.901  0.00  0.00    +0.018 C 
ATOM     12  C   UNL     1      -2.565  -1.100  25.529  0.00  0.00    +0.013 C 
ATOM     13  C   UNL     1      -2.011  -0.493  25.838  0.00  0.00    +0.019 C 
ATOM     14  C   UNL     1      -1.364  -0.586  25.445  0.00  0.00    +0.082 C 
BRANCH   7   5
ATOM      4  N   UNL     1      -3.388  -2.280  24.036  0.00  0.00    -0.207 NA
ATOM      5  C   UNL     1      -3.137  -2.150  24.810  0.00  0.00    +0.242 C 
ATOM      6  O   UNL     1      -3.538  -2.504  25.439  0.00  0.00    -0.273 OA
BRANCH   4   2
ATOM      1  C   UNL     1      -3.977  -3.581  23.980  0.00  0.00    +0.023 C 
ATOM      2  C   UNL     1      -4.040  -2.763  23.889  0.00  0.00    +0.095 C 
ATOM      3  C   UNL     1      -4.757  -2.430  23.652  0.00  0.00    +0.023 C 
ENDBRANCH   4   2
ENDBRANCH   7   5
ENDBRANCH  15  14
BRANCH  15  16
ATOM     16  N   UNL     1      -0.480   0.463  25.044  0.00  0.00    -0.229 N 
ATOM     17  C   UNL     1      -0.838   1.161  25.301  0.00  0.00    +0.118 A 
ATOM     18  C   UNL     1      -0.561   1.778  24.828  0.00  0.00    +0.123 A 
ATOM     19  N   UNL     1      -0.033   1.461  24.279  0.00  0.00    -0.129 NA
ATOM     20  N   UNL     1       0.017   0.649  24.413  0.00  0.00    -0.064 NA
BRANCH  18  21
ATOM     21  C   UNL     1      -0.775   2.572  24.893  0.00  0.00    +0.021 A 
ATOM     22  C   UNL     1      -0.455   3.038  25.494  0.00  0.00    +0.001 A 
ATOM     23  C   UNL     1      -0.669   3.832  25.559  0.00  0.00    -0.004 A 
ATOM     24  C   UNL     1      -1.203   4.160  25.023  0.00  0.00    -0.023 A 
ATOM     25  C   UNL     1      -1.523   3.694  24.422  0.00  0.00    -0.004 A 
ATOM     26  C   UNL     1      -1.309   2.900  24.357  0.00  0.00    +0.001 A 
BRANCH  24  27
ATOM     27  C   UNL     1      -1.418   4.954  25.088  0.00  0.00    +0.019 C 
ATOM     28  C   UNL     1      -1.632   5.749  25.153  0.00  0.00    +0.004 C 
ATOM     29  C   UNL     1      -0.713   5.175  24.718  0.00  0.00    +0.004 C 
ATOM     30  C   UNL     1      -2.123   4.734  25.457  0.00  0.00    +0.004 C 
ENDBRANCH  24  27
ENDBRANCH  18  21
ENDBRANCH  15  16
TORSDOF 6
ENDMDL
MODEL 4
REMARK VINA RESULT:     -10.7      2.146      3.000
REMARK  Name = 
REMARK  6 active torsions:
REMARK  status: ('A' for Active; 'I' for Inactive)
REMARK    1  A    between atoms: C_2  and  N_4
REMARK    2  A    between atoms: C_5  and  C_7
REMARK    3  A    between atoms: C_14  and  C_15
REMARK    4  A    between atoms: C_15  and  N_16
REMARK    5  A    between atoms: C_18  and  C_21
REMARK    6  A    between atoms: C_24  and  C_27
REMARK                            x       y       z     vdW  Elec       q    Type
REMARK                         _______ _______ _______ _____ _____    ______ ____
ROOT
ATOM     15  C   UNL     1       0.022   0.941  24.116  0.00  0.00    +0.145 C 
ENDROOT
BRANCH  15  14
ATOM      7  C   UNL     1      -0.642   3.076  24.901  0.00  0.00    +0.094 C 
ATOM      8  C   UNL     1      -0.776   2.907  24.153  0.00  0.00    +0.081 C 
ATOM      9  N   UNL     1      -0.421   2.411  24.709  0.00  0.00    -0.272 NA
ATOM     10  C   UNL     1      -0.390   2.934  25.617  0.00  0.00    +0.072 C 
ATOM     11  C   UNL     1      -0.231   2.964  26.250  0.00  0.00    +0.018 C 
ATOM     12  C   UNL     1      -0.294   2.583  25.440  0.00  0.00    +0.013 C 
ATOM     13  C   UNL     1       0.023   1.767  25.373  0.00  0.00    +0.019 C 
ATOM     14  C   UNL     1      -0.090   1.563  24.646  0.00  0.00    +0.082 C 
BRANCH   7   5
ATOM      4  N   UNL     1      -1.583   4.151  24.901  0.00  0.00    -0.207 NA
ATOM      5  C   UNL     1      -0.877   3.822  25.168  0.00  0.00    +0.242 C 
ATOM      6  O   UNL     1      -0.403   4.236  25.702  0.00  0.00    -0.273 OA
BRANCH   4   2
ATOM      1  C   UNL     1      -1.399   5.568  24.935  0.00  0.00    +0.023 C 
ATOM      2  C   UNL     1      -1.817   4.896  25.168  0.00  0.00    +0.095 C 
ATOM      3  C   UNL     1      -2.469   4.970  25.668  0.00  0.00    +0.023 C 
ENDBRANCH   4   2
ENDBRANCH   7   5
ENDBRANCH  15  14
BRANCH  15  16
ATOM     16  N   UNL     1      -0.284   0.194  24.286  0.00  0.00    -0.229 N 
ATOM     17  C   UNL     1      -1.061  -0.051  24.158  0.00  0.00    +0.118 A 
ATOM     18  C   UNL     1      -1.124  -0.836  24.406  0.00  0.00    +0.123 A 
ATOM     19  N   UNL     1      -0.386  -1.075  24.686  0.00  0.00    -0.129 NA
ATOM     20  N   UNL     1       0.133  -0.439  24.612  0.00  0.00    -0.064 NA
BRANCH  18  21
ATOM     21  C   UNL     1      -1.806  -1.300  24.378  0.00  0.00    +0.021 A 
ATOM     22  C   UNL     1      -2.548  -0.941  24.331  0.00  0.00    +0.001 A 
ATOM     23  C   UNL     1      -3.229  -1.405  24.303  0.00  0.00    -0.004 A 
ATOM     24  C   UNL     1      -3.169  -2.228  24.322  0.00  0.00    -0.023 A 
ATOM     25  C   UNL     1      -2.428  -2.586  24.369  0.00  0.00    -0.004 A 
ATOM     26  C   UNL     1      -1.746  -2.122  24.397  0.00  0.00    +0.001 A 
BRANCH  24  27
ATOM     27  C   UNL     1      -3.850  -2.691  24.294  0.00  0.00    +0.019 C 
ATOM     28  C   UNL     1      -4.533  -3.156  24.266  0.00  0.00    +0.004 C 
ATOM     29  C   UNL     1      -4.208  -2.138  23.797  0.00  0.00    +0.004 C 
ATOM     30  C   UNL     1      -3.494  -3.246  24.791  0.00  0.00    +0.004 C 
ENDBRANCH  24  27
ENDBRANCH  18  21
ENDBRANCH  15  16
TORSDOF 6
ENDMDL
