MODEL 1
REMARK VINA RESULT:     -10.0      0.000      0.000
REMARK  Name = 
REMARK  7 active torsions:
REMARK  status: ('A' for Active; 'I' for Inactive)
REMARK    1  A    between atoms: O_2  and  C_3
REMARK    2  A    between atoms: C_3  and  C_4
REMARK    3  A    between atoms: C_4  and  O_5
REMARK    4  A    between atoms: O_5  and  C_6
REMARK    5  A    between atoms: C_7  and  C_12
REMARK    6  A    between atoms: C_15  and  C_17
REMARK    7  A    between atoms: N_21  and  C_22
REMARK                            x       y       z     vdW  Elec       q    Type
REMARK                         _______ _______ _______ _____ _____    ______ ____
ROOT
ATOM     12  C   UNL     1      -3.756   1.227  24.646  0.00  0.00    +0.208 A 
ATOM     13  N   UNL     1      -3.559   1.065  23.861  0.00  0.00    -0.056 NA
ATOM     14  O   UNL     1      -2.944   0.516  23.860  0.00  0.00    -0.336 OA
ATOM     15  C   UNL     1      -2.760   0.337  24.645  0.00  0.00    +0.251 A 
ATOM     16  N   UNL     1      -3.262   0.777  25.131  0.00  0.00    -0.189 NA
ENDROOT
BRANCH  12   7
ATOM      6  C   UNL     1      -4.156   2.535  25.061  0.00  0.00    +0.228 A 
ATOM      7  C   UNL     1      -4.343   1.747  24.901  0.00  0.00    +0.092 A 
ATOM      8  C   UNL     1      -5.118   1.480  24.997  0.00  0.00    +0.009 A 
ATOM      9  C   UNL     1      -5.706   2.001  25.252  0.00  0.00    +0.021 A 
ATOM     10  C   UNL     1      -5.518   2.787  25.411  0.00  0.00    +0.102 A 
ATOM     11  N   UNL     1      -4.744   3.055  25.316  0.00  0.00    -0.210 NA
BRANCH   6   5
ATOM      5  O   UNL     1      -3.381   2.802  24.965  0.00  0.00    -0.457 OA
BRANCH   5   4
ATOM      4  C   UNL     1      -3.184   3.578  25.168  0.00  0.00    +0.239 C 
BRANCH   4   3
ATOM      3  C   UNL     1      -2.415   3.851  25.053  0.00  0.00    +0.189 C 
BRANCH   3   2
ATOM      1  C   UNL     1      -1.466   4.913  25.168  0.00  0.00    +0.174 C 
ATOM      2  O   UNL     1      -2.171   4.557  25.405  0.00  0.00    -0.347 OA
ENDBRANCH   3   2
ENDBRANCH   4   3
ENDBRANCH   5   4
ENDBRANCH   6   5
ENDBRANCH  12   7
BRANCH  15  17
ATOM     17  C   UNL     1      -2.178  -0.188  24.899  0.00  0.00    +0.138 C 
ATOM     18  C   UNL     1      -1.412   0.012  25.130  0.00  0.00    +0.027 C 
ATOM     19  C   UNL     1      -1.020  -0.683  25.341  0.00  0.00    +0.019 C 
ATOM     20  C   UNL     1      -1.543  -1.312  25.240  0.00  0.00    +0.072 C 
ATOM     21  N   UNL     1      -2.259  -1.007  24.967  0.00  0.00    -0.268 NA
BRANCH  21  22
ATOM     22  C   UNL     1      -2.937  -1.443  24.793  0.00  0.00    +0.058 C 
ATOM     23  C   UNL     1      -3.265  -1.763  24.106  0.00  0.00    +0.016 C 
ATOM     24  C   UNL     1      -3.896  -2.059  24.546  0.00  0.00    +0.003 C 
ATOM     25  C   UNL     1      -3.570  -1.740  25.233  0.00  0.00    +0.016 C 
ENDBRANCH  21  22
ENDBRANCH  15  17
TORSDOF 7
ENDMDL
MODEL 2
REMARK VINA RESULT:      -9.7      1.563      3.970
REMARK  Name = 
REMARK  7 active torsions:
REMARK  status: ('A' for Active; 'I' for Inactive)
REMARK    1  A    between atoms: O_2  and  C_3
REMARK    2  A    between atoms: C_3  and  C_4
REMARK    3  A    between atoms: C_4  and  O_5
REMARK    4  A    between atoms: O_5  and  C_6
REMARK    5  A    between atoms: C_7  and  C_12
REMARK    6  A    between atoms: C_15  and  C_17
REMARK    7  A    between atoms: N_21  and  C_22
REMARK                            x       y       z     vdW  Elec       q    Type
REMARK                         _______ _______ _______ _____ _____    ______ ____
ROOT
ATOM     12  C   UNL     1      -3.401   2.295  24.718  0.00  0.00    +0.208 A 
ATOM     13  N   UNL     1      -3.050   2.417  23.981  0.00  0.00    -0.056 NA
ATOM     14  O   UNL     1      -2.235   2.475  24.092  0.00  0.00    -0.336 OA
ATOM     15  C   UNL     1      -2.082   2.390  24.899  0.00  0.00    +0.251 A 
ATOM     16  N   UNL     1      -2.802   2.278  25.285  0.00  0.00    -0.189 NA
ENDROOT
BRANCH  12   7
ATOM      6  C   UNL     1      -4.560   1.462  24.798  0.00  0.00    +0.228 A 
ATOM      7  C   UNL     1      -4.208   2.206  24.862  0.00  0.00    +0.092 A 
ATOM      8  C   UNL     1      -4.665   2.860  25.070  0.00  0.00    +0.009 A 
ATOM      9  C   UNL     1      -5.473   2.772  25.214  0.00  0.00    +0.021 A 
ATOM     10  C   UNL     1      -5.823   2.028  25.150  0.00  0.00    +0.102 A 
ATOM     11  N   UNL     1      -5.368   1.373  24.942  0.00  0.00    -0.210 NA
BRANCH   6   5
ATOM      5  O   UNL     1      -4.103   0.807  24.589  0.00  0.00    -0.457 OA
BRANCH   5   4
ATOM      4  C   UNL     1      -4.452   0.061  24.537  0.00  0.00    +0.239 C 
BRANCH   4   3
ATOM      3  C   UNL     1      -3.994  -0.594  24.335  0.00  0.00    +0.189 C 
BRANCH   3   2
ATOM      1  C   UNL     1      -3.932  -2.000  24.085  0.00  0.00    +0.174 C 
ATOM      2  O   UNL     1      -4.359  -1.295  24.095  0.00  0.00    -0.347 OA
ENDBRANCH   3   2
ENDBRANCH   4   3
ENDBRANCH   5   4
ENDBRANCH   6   5
ENDBRANCH  12   7
BRANCH  15  17
ATOM     17  C   UNL     1      -1.339   2.411  25.256  0.00  0.00    +0.138 C 
ATOM     18  C   UNL     1      -0.895   1.758  25.492  0.00  0.00    +0.027 C 
ATOM     19  C   UNL     1      -0.190   2.034  25.821  0.00  0.00    +0.019 C 
ATOM     20  C   UNL     1      -0.199   2.858  25.788  0.00  0.00    +0.072 C 
ATOM     21  N   UNL     1      -0.908   3.092  25.438  0.00  0.00    -0.268 NA
BRANCH  21  22
ATOM     22  C   UNL     1      -1.146   3.869  25.296  0.00  0.00    +0.058 C 
ATOM     23  C   UNL     1      -1.625   4.414  25.688  0.00  0.00    +0.016 C 
ATOM     24  C   UNL     1      -1.482   4.968  25.095  0.00  0.00    +0.003 C 
ATOM     25  C   UNL     1      -1.002   4.424  24.702  0.00  0.00    +0.016 C 
ENDBRANCH  21  22
ENDBRANCH  15  17
TORSDOF 7
ENDMDL
MODEL 3
REMARK VINA RESULT:      -9.5      1.163      4.031
REMARK  Name = 
REMARK  7 active torsions:
REMARK  status: ('A' for Active; 'I' for Inactive)
REMARK    1  A    between atoms: O_2  and  C_3
REMARK    2  A    between atoms: C_3  and  C_4
REMARK    3  A    between atoms: C_4  and  O_5
REMARK    4  A    between atoms: O_5  and  C_6
REMARK    5  A    between atoms: C_7  and  C_12
REMARK    6  A    between atoms: C_15  and  C_17
REMARK    7  A    between atoms: N_21  and  C_22
REMARK                            x       y       z     vdW  Elec       q    Type
REMARK                         _______ _______ _______ _____ _____    ______ ____
ROOT
ATOM     12  C   UNL     1      -3.729   0.282  24.490  0.00  0.00    +0.208 A 
ATOM     13  N   UNL     1      -3.720   0.719  23.790  0.00  0.00    -0.056 NA
ATOM     14  O   UNL     1      -4.148   1.412  23.916  0.00  0.00    -0.336 OA
ATOM     15  C   UNL     1      -4.423   1.405  24.694  0.00  0.00    +0.251 A 
ATOM     16  N   UNL     1      -4.164   0.706  25.049  0.00  0.00    -0.189 NA
ENDROOT
BRANCH  12   7
ATOM      6  C   UNL     1      -2.545  -0.505  24.632  0.00  0.00    +0.228 A 
ATOM      7  C   UNL     1      -3.368  -0.450  24.610  0.00  0.00    +0.092 A 
ATOM      8  C   UNL     1      -3.829  -1.127  24.707  0.00  0.00    +0.009 A 
ATOM      9  C   UNL     1      -3.468  -1.859  24.827  0.00  0.00    +0.021 A 
ATOM     10  C   UNL     1      -2.646  -1.914  24.850  0.00  0.00    +0.102 A 
ATOM     11  N   UNL     1      -2.184  -1.238  24.752  0.00  0.00    -0.210 NA
BRANCH   6   5
ATOM      5  O   UNL     1      -2.084   0.172  24.535  0.00  0.00    -0.457 OA
BRANCH   5   4
ATOM      4  C   UNL     1      -1.269   0.137  24.662  0.00  0.00    +0.239 C 
BRANCH   4   3
ATOM      3  C   UNL     1      -0.773   0.694  24.311  0.00  0.00    +0.189 C 
BRANCH   3   2
ATOM      1  C   UNL     1       0.265   1.670  24.420  0.00  0.00    +0.174 C 
ATOM      2  O   UNL     1      -0.232   1.114  24.771  0.00  0.00    -0.347 OA
ENDBRANCH   3   2
ENDBRANCH   4   3
ENDBRANCH   5   4
ENDBRANCH   6   5
ENDBRANCH  12   7
BRANCH  15  17
ATOM     17  C   UNL     1      -4.876   1.992  25.054  0.00  0.00    +0.138 C 
ATOM     18  C   UNL     1      -5.652   1.911  25.319  0.00  0.00    +0.027 C 
ATOM     19  C   UNL     1      -5.888   2.633  25.641  0.00  0.00    +0.019 C 
ATOM     20  C   UNL     1      -5.258   3.160  25.575  0.00  0.00    +0.072 C 
ATOM     21  N   UNL     1      -4.632   2.764  25.212  0.00  0.00    -0.268 NA
BRANCH  21  22
ATOM     22  C   UNL     1      -3.891   3.084  25.038  0.00  0.00    +0.058 C 
ATOM     23  C   UNL     1      -3.542   3.419  24.370  0.00  0.00    +0.016 C 
ATOM     24  C   UNL     1      -2.844   3.536  24.792  0.00  0.00    +0.003 C 
ATOM     25  C   UNL     1      -3.192   3.202  25.462  0.00  0.00    +0.016 C 
ENDBRANCH  21  22
ENDBRANCH  15  17
TORSDOF 7
ENDMDL
MODEL 4
REMARK VINA RESULT:      -9.3      1.545      3.588
REMARK  Name = 
REMARK  7 active torsions:
REMARK  status: ('A' for Active; 'I' for Inactive)
REMARK    1  A    between atoms: O_2  and  C_3
REMARK    2  A    between atoms: C_3  and  C_4
REMARK    3  A    between atoms: C_4  and  O_5
REMARK    4  A    between atoms: O_5  and  C_6
REMARK    5  A    between atoms: C_7  and  C_12
REMARK    6  A    between atoms: C_15  and  C_17
REMARK    7  A    between atoms: N_21  and  C_22
REMARK                            x       y       z     vdW  Elec       q    Type
REMARK                         _______ _______ _______ _____ _____    ______ ____
ROOT
ATOM     12  C   UNL     1      -2.720   2.770  24.522  0.00  0.00    +0.208 A 
ATOM     13  N   UNL     1      -2.897   2.488  23.766  0.00  0.00    -0.056 NA
ATOM     14  O   UNL     1      -3.657   2.169  23.785  0.00  0.00    -0.336 OA
ATOM     15  C   UNL     1      -3.950   2.253  24.552  0.00  0.00    +0.251 A 
ATOM     16  N   UNL     1      -3.371   2.624  25.007  0.00  0.00    -0.189 NA
ENDROOT
BRANCH  12   7
ATOM      6  C   UNL     1      -1.306   2.709  24.729  0.00  0.00    +0.228 A 
ATOM      7  C   UNL     1      -2.015   3.132  24.751  0.00  0.00    +0.092 A 
ATOM      8  C   UNL     1      -2.018   3.918  25.002  0.00  0.00    +0.009 A 
ATOM      9  C   UNL     1      -1.313   4.281  25.232  0.00  0.00    +0.021 A 
ATOM     10  C   UNL     1      -0.606   3.858  25.209  0.00  0.00    +0.102 A 
ATOM     11  N   UNL     1      -0.602   3.072  24.958  0.00  0.00    -0.210 NA
BRANCH   6   5
ATOM      5  O   UNL     1      -1.304   1.923  24.478  0.00  0.00    -0.457 OA
BRANCH   5   4
ATOM      4  C   UNL     1      -0.619   1.468  24.556  0.00  0.00    +0.239 C 
BRANCH   4   3
ATOM      3  C   UNL     1      -0.544   0.763  24.136  0.00  0.00    +0.189 C 
BRANCH   3   2
ATOM      1  C   UNL     1      -0.163  -0.614  24.090  0.00  0.00    +0.174 C 
ATOM      2  O   UNL     1      -0.275   0.082  24.518  0.00  0.00    -0.347 OA
ENDBRANCH   3   2
ENDBRANCH   4   3
ENDBRANCH   5   4
ENDBRANCH   6   5
ENDBRANCH  12   7
BRANCH  15  17
ATOM     17  C   UNL     1      -4.692   2.009  24.816  0.00  0.00    +0.138 C 
ATOM     18  C   UNL     1      -5.331   2.500  24.990  0.00  0.00    +0.027 C 
ATOM     19  C   UNL     1      -5.959   2.025  25.235  0.00  0.00    +0.019 C 
ATOM     20  C   UNL     1      -5.709   1.240  25.213  0.00  0.00    +0.072 C 
ATOM     21  N   UNL     1      -4.926   1.229  24.954  0.00  0.00    -0.268 NA
BRANCH  21  22
ATOM     22  C   UNL     1      -4.458   0.558  24.851  0.00  0.00    +0.058 C 
ATOM     23  C   UNL     1      -4.253   0.082  24.209  0.00  0.00    +0.016 C 
ATOM     24  C   UNL     1      -3.796  -0.392  24.705  0.00  0.00    +0.003 C 
ATOM     25  C   UNL     1      -4.000   0.083  25.348  0.00  0.00    +0.016 C 
ENDBRANCH  21  22
ENDBRANCH  15  17
TORSDOF 7
ENDMDL
MODEL 5
REMARK VINA RESULT:      -9.1      1.109      2.353
REMARK  Name = 
REMARK  7 active torsions:
REMARK  status: ('A' for Active; 'I' for Inactive)
REMARK    1  A    between atoms: O_2  and  C_3
REMARK    2  A    between atoms: C_3  and  C_4
REMARK    3  A    between atoms: C_4  and  O_5
REMARK    4  A    between atoms: O_5  and  C_6
REMARK    5  A    between atoms: C_7  and  C_12
REMARK    6  A    between atoms: C_15  and  C_17
REMARK    7  A    between atoms: N_21  and  C_22
REMARK                            x       y       z     vdW  Elec       q    Type
REMARK                         _______ _______ _______ _____ _____    ______ ____
ROOT
ATOM     12  C   UNL     1      -1.975   1.903  24.711  0.00  0.00    +0.208 A 
ATOM     13  N   UNL     1      -2.235   1.642  23.972  0.00  0.00    -0.056 NA
ATOM     14  O   UNL     1      -2.064   0.837  23.911  0.00  0.00    -0.336 OA
ATOM     15  C   UNL     1      -1.699   0.600  24.612  0.00  0.00    +0.251 A 
ATOM     16  N   UNL     1      -1.644   1.259  25.106  0.00  0.00    -0.189 NA
ENDROOT
BRANCH  12   7
ATOM      6  C   UNL     1      -2.780   3.004  25.139  0.00  0.00    +0.228 A 
ATOM      7  C   UNL     1      -2.036   2.672  25.002  0.00  0.00    +0.092 A 
ATOM      8  C   UNL     1      -1.355   3.111  25.156  0.00  0.00    +0.009 A 
ATOM      9  C   UNL     1      -1.415   3.881  25.447  0.00  0.00    +0.021 A 
ATOM     10  C   UNL     1      -2.158   4.211  25.584  0.00  0.00    +0.102 A 
ATOM     11  N   UNL     1      -2.840   3.774  25.431  0.00  0.00    -0.210 NA
BRANCH   6   5
ATOM      5  O   UNL     1      -3.461   2.566  24.985  0.00  0.00    -0.457 OA
BRANCH   5   4
ATOM      4  C   UNL     1      -4.200   2.863  25.203  0.00  0.00    +0.239 C 
BRANCH   4   3
ATOM      3  C   UNL     1      -4.887   2.514  24.909  0.00  0.00    +0.189 C 
BRANCH   3   2
ATOM      1  C   UNL     1      -6.190   1.972  25.131  0.00  0.00    +0.174 C 
ATOM      2  O   UNL     1      -5.523   2.366  25.413  0.00  0.00    -0.347 OA
ENDBRANCH   3   2
ENDBRANCH   4   3
ENDBRANCH   5   4
ENDBRANCH   6   5
ENDBRANCH  12   7
BRANCH  15  17
ATOM     17  C   UNL     1      -1.435  -0.161  24.788  0.00  0.00    +0.138 C 
ATOM     18  C   UNL     1      -0.649  -0.407  24.817  0.00  0.00    +0.027 C 
ATOM     19  C   UNL     1      -0.639  -1.208  25.013  0.00  0.00    +0.019 C 
ATOM     20  C   UNL     1      -1.420  -1.457  25.105  0.00  0.00    +0.072 C 
ATOM     21  N   UNL     1      -1.912  -0.810  24.966  0.00  0.00    -0.268 NA
BRANCH  21  22
ATOM     22  C   UNL     1      -2.736  -0.812  25.000  0.00  0.00    +0.058 C 
ATOM     23  C   UNL     1      -3.343  -0.887  24.446  0.00  0.00    +0.016 C 
ATOM     24  C   UNL     1      -3.902  -0.814  25.047  0.00  0.00    +0.003 C 
ATOM     25  C   UNL     1      -3.296  -0.739  25.603  0.00  0.00    +0.016 C 
ENDBRANCH  21  22
ENDBRANCH  15  17
TORSDOF 7
ENDMDL
