MODEL 1
REMARK VINA RESULT:     -10.3      0.000      0.000
REMARK  Name = 
REMARK  5 active torsions:
REMARK  status: ('A' for Active; 'I' for Inactive)
REMARK    1  A    between atoms: C_3  and  N_4
REMARK    2  A    between atoms: N_7  and  C_8
REMARK    3  A    between atoms: C_8  and  C_9
REMARK    4  A    between atoms: C_16  and  S_17
REMARK    5  A    between atoms: S_17  and  C_18
REMARK                            x       y       z     vdW  Elec       q    Type
REMARK                         _______ _______ _______ _____ _____    ______ ____
ROOT
ATOM      1  O   UNL     1      -2.207   2.054  24.736  0.00  0.00    -0.220 OA
ATOM      2  C   UNL     1      -3.022   2.115  24.613  0.00  0.00    +0.189 C 
ATOM      3  C   UNL     1      -3.726   1.690  24.709  0.00  0.00    +0.158 C 
ATOM     11  C   UNL     1      -4.318   2.322  24.371  0.00  0.00    +0.170 C 
ATOM     12  C   UNL     1      -3.991   2.986  24.129  0.00  0.00    +0.176 C 
ATOM     13  O   UNL     1      -4.109   3.640  23.839  0.00  0.00    -0.327 OA
ATOM     14  C   UNL     1      -4.309   2.840  24.153  0.00  0.00    +0.248 C 
ATOM     15  O   UNL     1      -5.012   2.419  24.247  0.00  0.00    -0.328 OA
ATOM     16  C   UNL     1      -3.679   2.189  24.503  0.00  0.00    +0.140 C 
ENDROOT
BRANCH   3   4
ATOM      4  N   UNL     1      -3.862   0.934  25.012  0.00  0.00    -0.184 NA
ATOM      5  C   UNL     1      -3.746   0.271  24.535  0.00  0.00    +0.340 C 
ATOM      6  O   UNL     1      -3.495   0.364  23.754  0.00  0.00    -0.249 OA
ATOM      7  N   UNL     1      -3.882  -0.483  24.838  0.00  0.00    -0.182 NA
BRANCH   7   8
ATOM      8  C   UNL     1      -3.766  -1.146  24.360  0.00  0.00    +0.143 C 
BRANCH   8   9
ATOM      9  C   UNL     1      -3.920  -1.901  24.657  0.00  0.00    -0.003 C 
ATOM     10  C   UNL     1      -3.545  -2.557  24.329  0.00  0.00    -0.003 C 
ENDBRANCH   8   9
ENDBRANCH   7   8
ENDBRANCH   3   4
BRANCH  16  17
ATOM     17  S   UNL     1      -3.276   2.868  24.264  0.00  0.00    -0.107 S 
BRANCH  17  18
ATOM     18  C   UNL     1      -2.876   3.328  24.820  0.00  0.00    +0.025 A 
ATOM     19  C   UNL     1      -2.106   3.582  24.668  0.00  0.00    +0.006 A 
ATOM     20  C   UNL     1      -1.705   4.042  25.223  0.00  0.00    +0.001 A 
ATOM     21  C   UNL     1      -2.074   4.247  25.931  0.00  0.00    +0.000 A 
ATOM     22  C   UNL     1      -2.844   3.993  26.085  0.00  0.00    +0.001 A 
ATOM     23  C   UNL     1      -3.245   3.534  25.529  0.00  0.00    +0.006 A 
ENDBRANCH  17  18
ENDBRANCH  16  17
TORSDOF 5
ENDMDL
MODEL 2
REMARK VINA RESULT:     -10.2      1.289      3.981
REMARK  Name = 
REMARK  5 active torsions:
REMARK  status: ('A' for Active; 'I' for Inactive)
REMARK    1  A    between atoms: C_3  and  N_4
REMARK    2  A    between atoms: N_7  and  C_8
REMARK    3  A    between atoms: C_8  and  C_9
REMARK    4  A    between atoms: C_16  and  S_17
REMARK    5  A    between atoms: S_17  and  C_18
REMARK                            x       y       z     vdW  Elec       q    Type
REMARK                         _______ _______ _______ _____ _____    ______ ____
ROOT
ATOM      1  O   UNL     1      -2.787   0.499  24.062  0.00  0.00    -0.220 OA
ATOM      2  C   UNL     1      -3.353   0.918  24.492  0.00  0.00    +0.189 C 
ATOM      3  C   UNL     1      -3.430   1.552  25.019  0.00  0.00    +0.158 C 
ATOM     11  C   UNL     1      -4.351   1.522  25.142  0.00  0.00    +0.170 C 
ATOM     12  C   UNL     1      -4.719   0.962  24.747  0.00  0.00    +0.176 C 
ATOM     13  O   UNL     1      -5.360   0.656  24.600  0.00  0.00    -0.327 OA
ATOM     14  C   UNL     1      -4.794   1.222  24.969  0.00  0.00    +0.248 C 
ATOM     15  O   UNL     1      -4.873   1.854  25.494  0.00  0.00    -0.328 OA
ATOM     16  C   UNL     1      -3.833   1.242  24.832  0.00  0.00    +0.140 C 
ENDROOT
BRANCH   3   4
ATOM      4  N   UNL     1      -2.861   2.058  25.339  0.00  0.00    -0.184 NA
ATOM      5  C   UNL     1      -2.617   2.724  24.916  0.00  0.00    +0.340 C 
ATOM      6  O   UNL     1      -2.942   2.883  24.174  0.00  0.00    -0.249 OA
ATOM      7  N   UNL     1      -2.049   3.229  25.236  0.00  0.00    -0.182 NA
BRANCH   7   8
ATOM      8  C   UNL     1      -1.805   3.894  24.813  0.00  0.00    +0.143 C 
BRANCH   8   9
ATOM      9  C   UNL     1      -1.173   4.348  25.087  0.00  0.00    -0.003 C 
ATOM     10  C   UNL     1      -1.192   5.169  25.013  0.00  0.00    -0.003 C 
ENDBRANCH   8   9
ENDBRANCH   7   8
ENDBRANCH   3   4
BRANCH  16  17
ATOM     17  S   UNL     1      -4.167   0.631  24.389  0.00  0.00    -0.107 S 
BRANCH  17  18
ATOM     18  C   UNL     1      -3.978  -0.154  24.561  0.00  0.00    +0.025 A 
ATOM     19  C   UNL     1      -3.950  -0.714  23.956  0.00  0.00    +0.006 A 
ATOM     20  C   UNL     1      -3.762  -1.498  24.127  0.00  0.00    +0.001 A 
ATOM     21  C   UNL     1      -3.601  -1.723  24.904  0.00  0.00    +0.000 A 
ATOM     22  C   UNL     1      -3.628  -1.164  25.510  0.00  0.00    +0.001 A 
ATOM     23  C   UNL     1      -3.817  -0.379  25.338  0.00  0.00    +0.006 A 
ENDBRANCH  17  18
ENDBRANCH  16  17
TORSDOF 5
ENDMDL
MODEL 3
REMARK VINA RESULT:      -9.6      1.710      2.555
REMARK  Name = 
REMARK  5 active torsions:
REMARK  status: ('A' for Active; 'I' for Inactive)
REMARK    1  A    between atoms: C_3  and  N_4
REMARK    2  A    between atoms: N_7  and  C_8
REMARK    3  A    between atoms: C_8  and  C_9
REMARK    4  A    between atoms: C_16  and  S_17
REMARK    5  A    between atoms: S_17  and  C_18
REMARK                            x       y       z     vdW  Elec       q    Type
REMARK                         _______ _______ _______ _____ _____    ______ ____
ROOT
ATOM      1  O   UNL     1      -2.565   2.831  25.386  0.00  0.00    -0.220 OA
ATOM      2  C   UNL     1      -1.900   2.348  25.311  0.00  0.00    +0.189 C 
ATOM      3  C   UNL     1      -1.631   1.668  24.922  0.00  0.00    +0.158 C 
ATOM     11  C   UNL     1      -0.769   1.640  25.266  0.00  0.00    +0.170 C 
ATOM     12  C   UNL     1      -0.592   2.212  25.763  0.00  0.00    +0.176 C 
ATOM     13  O   UNL     1      -0.079   2.497  26.190  0.00  0.00    -0.327 OA
ATOM     14  C   UNL     1      -0.442   1.930  25.619  0.00  0.00    +0.248 C 
ATOM     15  O   UNL     1      -0.172   1.253  25.233  0.00  0.00    -0.328 OA
ATOM     16  C   UNL     1      -1.346   1.972  25.267  0.00  0.00    +0.140 C 
ENDROOT
BRANCH   3   4
ATOM      4  N   UNL     1      -2.014   1.166  24.389  0.00  0.00    -0.184 NA
ATOM      5  C   UNL     1      -2.523   0.579  24.669  0.00  0.00    +0.340 C 
ATOM      6  O   UNL     1      -2.648   0.494  25.480  0.00  0.00    -0.249 OA
ATOM      7  N   UNL     1      -2.905   0.078  24.137  0.00  0.00    -0.182 NA
BRANCH   7   8
ATOM      8  C   UNL     1      -3.413  -0.509  24.417  0.00  0.00    +0.143 C 
BRANCH   8   9
ATOM      9  C   UNL     1      -3.935  -0.884  23.899  0.00  0.00    -0.003 C 
ATOM     10  C   UNL     1      -4.106  -1.685  23.994  0.00  0.00    -0.003 C 
ENDBRANCH   8   9
ENDBRANCH   7   8
ENDBRANCH   3   4
BRANCH  16  17
ATOM     17  S   UNL     1      -1.218   2.601  25.786  0.00  0.00    -0.107 S 
BRANCH  17  18
ATOM     18  C   UNL     1      -1.256   3.378  25.510  0.00  0.00    +0.025 A 
ATOM     19  C   UNL     1      -1.797   3.906  25.840  0.00  0.00    +0.006 A 
ATOM     20  C   UNL     1      -1.836   4.682  25.565  0.00  0.00    +0.001 A 
ATOM     21  C   UNL     1      -1.334   4.931  24.959  0.00  0.00    +0.000 A 
ATOM     22  C   UNL     1      -0.793   4.403  24.629  0.00  0.00    +0.001 A 
ATOM     23  C   UNL     1      -0.754   3.626  24.904  0.00  0.00    +0.006 A 
ENDBRANCH  17  18
ENDBRANCH  16  17
TORSDOF 5
ENDMDL
MODEL 4
REMARK VINA RESULT:      -9.6      1.918      4.536
REMARK  Name = 
REMARK  5 active torsions:
REMARK  status: ('A' for Active; 'I' for Inactive)
REMARK    1  A    between atoms: C_3  and  N_4
REMARK    2  A    between atoms: N_7  and  C_8
REMARK    3  A    between atoms: C_8  and  C_9
REMARK    4  A    between atoms: C_16  and  S_17
REMARK    5  A    between atoms: S_17  and  C_18
REMARK                            x       y       z     vdW  Elec       q    Type
REMARK                         _______ _______ _______ _____ _____    ______ ____
ROOT
ATOM      1  O   UNL     1      -3.157   0.768  24.321  0.00  0.00    -0.220 OA
ATOM      2  C   UNL     1      -2.398   0.677  24.632  0.00  0.00    +0.189 C 
ATOM      3  C   UNL     1      -1.834   1.069  25.096  0.00  0.00    +0.158 C 
ATOM     11  C   UNL     1      -1.167   0.423  25.081  0.00  0.00    +0.170 C 
ATOM     12  C   UNL     1      -1.336  -0.219  24.675  0.00  0.00    +0.176 C 
ATOM     13  O   UNL     1      -1.098  -0.869  24.456  0.00  0.00    -0.327 OA
ATOM     14  C   UNL     1      -1.072  -0.088  24.866  0.00  0.00    +0.248 C 
ATOM     15  O   UNL     1      -0.510   0.301  25.327  0.00  0.00    -0.328 OA
ATOM     16  C   UNL     1      -1.779   0.578  24.872  0.00  0.00    +0.140 C 
ENDROOT
BRANCH   3   4
ATOM      4  N   UNL     1      -1.858   1.809  25.460  0.00  0.00    -0.184 NA
ATOM      5  C   UNL     1      -1.674   2.488  25.029  0.00  0.00    +0.340 C 
ATOM      6  O   UNL     1      -1.466   2.426  24.232  0.00  0.00    -0.249 OA
ATOM      7  N   UNL     1      -1.698   3.227  25.393  0.00  0.00    -0.182 NA
BRANCH   7   8
ATOM      8  C   UNL     1      -1.514   3.906  24.961  0.00  0.00    +0.143 C 
BRANCH   8   9
ATOM      9  C   UNL     1      -1.563   4.648  25.318  0.00  0.00    -0.003 C 
ATOM     10  C   UNL     1      -1.213   5.302  24.959  0.00  0.00    -0.003 C 
ENDBRANCH   8   9
ENDBRANCH   7   8
ENDBRANCH   3   4
BRANCH  16  17
ATOM     17  S   UNL     1      -2.015  -0.076  24.429  0.00  0.00    -0.107 S 
BRANCH  17  18
ATOM     18  C   UNL     1      -2.657  -0.532  24.675  0.00  0.00    +0.025 A 
ATOM     19  C   UNL     1      -3.222  -0.779  24.127  0.00  0.00    +0.006 A 
ATOM     20  C   UNL     1      -3.864  -1.235  24.373  0.00  0.00    +0.001 A 
ATOM     21  C   UNL     1      -3.942  -1.444  25.167  0.00  0.00    +0.000 A 
ATOM     22  C   UNL     1      -3.377  -1.197  25.716  0.00  0.00    +0.001 A 
ATOM     23  C   UNL     1      -2.735  -0.741  25.469  0.00  0.00    +0.006 A 
ENDBRANCH  17  18
ENDBRANCH  16  17
TORSDOF 5
ENDMDL
MODEL 5
REMARK VINA RESULT:      -9.5      1.681      2.320
REMARK  Name = 
REMARK  5 active torsions:
REMARK  status: ('A' for Active; 'I' for Inactive)
REMARK    1  A    between atoms: C_3  and  N_4
REMARK    2  A    between atoms: N_7  and  C_8
REMARK    3  A    between atoms: C_8  and  C_9
REMARK    4  A    between atoms: C_16  and  S_17
REMARK    5  A    between atoms: S_17  and  C_18
REMARK                            x       y       z     vdW  Elec       q    Type
REMARK                         _______ _______ _______ _____ _____    ______ ____
ROOT
ATOM      1  O   UNL     1      -4.367   0.969  25.021  0.00  0.00    -0.220 OA
ATOM      2  C   UNL     1      -3.794   1.451  24.671  0.00  0.00    +0.189 C 
ATOM      3  C   UNL     1      -2.974   1.564  24.635  0.00  0.00    +0.158 C 
ATOM     11  C   UNL     1      -2.958   2.287  24.052  0.00  0.00    +0.170 C 
ATOM     12  C   UNL     1      -3.655   2.532  23.808  0.00  0.00    +0.176 C 
ATOM     13  O   UNL     1      -4.011   3.012  23.397  0.00  0.00    -0.327 OA
ATOM     14  C   UNL     1      -3.317   2.612  23.767  0.00  0.00    +0.248 C 
ATOM     15  O   UNL     1      -2.501   2.727  23.729  0.00  0.00    -0.328 OA
ATOM     16  C   UNL     1      -3.349   1.856  24.374  0.00  0.00    +0.140 C 
ENDROOT
BRANCH   3   4
ATOM      4  N   UNL     1      -2.358   1.157  25.005  0.00  0.00    -0.184 NA
ATOM      5  C   UNL     1      -2.106   0.430  24.706  0.00  0.00    +0.340 C 
ATOM      6  O   UNL     1      -2.470   0.111  24.037  0.00  0.00    -0.249 OA
ATOM      7  N   UNL     1      -1.491   0.024  25.075  0.00  0.00    -0.182 NA
BRANCH   7   8
ATOM      8  C   UNL     1      -1.238  -0.702  24.776  0.00  0.00    +0.143 C 
BRANCH   8   9
ATOM      9  C   UNL     1      -0.525  -1.029  25.032  0.00  0.00    -0.003 C 
ATOM     10  C   UNL     1      -0.501  -1.809  25.298  0.00  0.00    -0.003 C 
ENDBRANCH   8   9
ENDBRANCH   7   8
ENDBRANCH   3   4
BRANCH  16  17
ATOM     17  S   UNL     1      -4.114   2.068  24.151  0.00  0.00    -0.107 S 
BRANCH  17  18
ATOM     18  C   UNL     1      -4.655   2.321  24.721  0.00  0.00    +0.025 A 
ATOM     19  C   UNL     1      -5.408   1.986  24.753  0.00  0.00    +0.006 A 
ATOM     20  C   UNL     1      -5.949   2.238  25.322  0.00  0.00    +0.001 A 
ATOM     21  C   UNL     1      -5.737   2.826  25.860  0.00  0.00    +0.000 A 
ATOM     22  C   UNL     1      -4.984   3.163  25.829  0.00  0.00    +0.001 A 
ATOM     23  C   UNL     1      -4.443   2.910  25.259  0.00  0.00    +0.006 A 
ENDBRANCH  17  18
ENDBRANCH  16  17
TORSDOF 5
ENDMDL
