MODEL 1
REMARK VINA RESULT:     -10.5      0.000      0.000
REMARK  Name = 
REMARK  6 active torsions:
REMARK  status: ('A' for Active; 'I' for Inactive)
REMARK    1  A    between atoms: N_2  and  C_4
REMARK    2  A    between atoms: C_8  and  O_9
REMARK    3  A    between atoms: O_9  and  C_10
REMARK    4  A    between atoms: N_14  and  C_15
REMARK    5  A    between atoms: C_19  and  N_23
REMARK    6  A    between atoms: C_24  and  C_26
REMARK                            x       y       z     vdW  Elec       q    Type
REMARK                         _______ _______ _______ _____ _____    ______ ____
ROOT
ATOM     15  C   UNL     1      -0.544   1.212  24.845  0.00  0.00    +0.170 C 
ATOM     16  C   UNL     1      -0.558   1.053  24.036  0.00  0.00    +0.169 C 
ATOM     17  O   UNL     1      -1.024   0.383  23.917  0.00  0.00    -0.350 OA
ATOM     18  C   UNL     1      -1.297   0.128  24.651  0.00  0.00    +0.167 C 
ATOM     19  C   UNL     1      -1.754  -0.444  25.032  0.00  0.00    +0.155 C 
ATOM     20  C   UNL     1      -1.740  -0.285  25.841  0.00  0.00    +0.166 C 
ATOM     21  O   UNL     1      -1.275   0.385  25.961  0.00  0.00    -0.350 OA
ATOM     22  C   UNL     1      -1.001   0.641  25.225  0.00  0.00    +0.169 C 
ENDROOT
BRANCH  15  14
ATOM     10  C   UNL     1      -0.310   2.637  25.121  0.00  0.00    +0.343 A 
ATOM     11  N   UNL     1       0.224   3.062  25.584  0.00  0.00    -0.071 NA
ATOM     12  N   UNL     1       0.722   2.521  25.960  0.00  0.00    -0.020 NA
ATOM     13  N   UNL     1       0.494   1.763  25.729  0.00  0.00    -0.040 NA
ATOM     14  N   UNL     1      -0.144   1.835  25.210  0.00  0.00    -0.180 N 
BRANCH  10   9
ATOM      9  O   UNL     1      -0.907   2.959  24.651  0.00  0.00    -0.421 OA
BRANCH   9   8
ATOM      4  C   UNL     1      -2.465   4.229  25.501  0.00  0.00    +0.051 A 
ATOM      5  C   UNL     1      -2.126   4.976  25.409  0.00  0.00    +0.015 A 
ATOM      6  C   UNL     1      -1.380   5.050  25.065  0.00  0.00    +0.004 A 
ATOM      7  C   UNL     1      -0.974   4.378  24.812  0.00  0.00    +0.038 A 
ATOM      8  C   UNL     1      -1.313   3.632  24.903  0.00  0.00    +0.150 A 
ATOM     31  C   UNL     1      -2.059   3.558  25.248  0.00  0.00    +0.052 A 
BRANCH   4   2
ATOM      1  C   UNL     1      -3.877   4.047  25.369  0.00  0.00    +0.112 C 
ATOM      2  N   UNL     1      -3.211   4.155  25.846  0.00  0.00    -0.304 N 
ATOM      3  C   UNL     1      -3.292   4.189  26.666  0.00  0.00    +0.112 C 
ENDBRANCH   4   2
ENDBRANCH   9   8
ENDBRANCH  10   9
ENDBRANCH  15  14
BRANCH  19  23
ATOM     23  N   UNL     1      -2.155  -1.066  24.667  0.00  0.00    -0.196 NA
ATOM     24  C   UNL     1      -2.907  -1.281  24.928  0.00  0.00    +0.300 C 
ATOM     25  O   UNL     1      -3.260  -0.875  25.553  0.00  0.00    -0.265 OA
BRANCH  24  26
ATOM     26  C   UNL     1      -3.308  -1.904  24.563  0.00  0.00    +0.200 A 
ATOM     27  C   UNL     1      -3.971  -1.834  24.076  0.00  0.00    +0.046 A 
ATOM     28  C   UNL     1      -4.189  -2.592  23.833  0.00  0.00    +0.044 A 
ATOM     29  C   UNL     1      -3.661  -3.129  24.169  0.00  0.00    +0.180 A 
ATOM     30  O   UNL     1      -3.117  -2.704  24.620  0.00  0.00    -0.446 OA
ENDBRANCH  24  26
ENDBRANCH  19  23
TORSDOF 6
ENDMDL
MODEL 2
REMARK VINA RESULT:      -9.8      1.621      2.975
REMARK  Name = 
REMARK  6 active torsions:
REMARK  status: ('A' for Active; 'I' for Inactive)
REMARK    1  A    between atoms: N_2  and  C_4
REMARK    2  A    between atoms: C_8  and  O_9
REMARK    3  A    between atoms: O_9  and  C_10
REMARK    4  A    between atoms: N_14  and  C_15
REMARK    5  A    between atoms: C_19  and  N_23
REMARK    6  A    between atoms: C_24  and  C_26
REMARK                            x       y       z     vdW  Elec       q    Type
REMARK                         _______ _______ _______ _____ _____    ______ ____
ROOT
ATOM     15  C   UNL     1      -4.209   2.142  24.625  0.00  0.00    +0.170 C 
ATOM     16  C   UNL     1      -4.620   1.862  25.283  0.00  0.00    +0.169 C 
ATOM     17  O   UNL     1      -4.581   1.039  25.275  0.00  0.00    -0.350 OA
ATOM     18  C   UNL     1      -4.146   0.809  24.613  0.00  0.00    +0.167 C 
ATOM     19  C   UNL     1      -3.853   0.159  24.198  0.00  0.00    +0.155 C 
ATOM     20  C   UNL     1      -3.442   0.439  23.541  0.00  0.00    +0.166 C 
ATOM     21  O   UNL     1      -3.481   1.263  23.548  0.00  0.00    -0.350 OA
ATOM     22  C   UNL     1      -3.916   1.492  24.211  0.00  0.00    +0.169 C 
ENDROOT
BRANCH  15  14
ATOM     10  C   UNL     1      -3.584   3.465  24.770  0.00  0.00    +0.343 A 
ATOM     11  N   UNL     1      -3.666   4.194  24.391  0.00  0.00    -0.071 NA
ATOM     12  N   UNL     1      -4.240   4.114  23.804  0.00  0.00    -0.020 NA
ATOM     13  N   UNL     1      -4.514   3.335  23.820  0.00  0.00    -0.040 NA
ATOM     14  N   UNL     1      -4.108   2.935  24.417  0.00  0.00    -0.180 N 
BRANCH  10   9
ATOM      9  O   UNL     1      -3.069   3.297  25.392  0.00  0.00    -0.421 OA
BRANCH   9   8
ATOM      4  C   UNL     1      -0.889   3.362  25.349  0.00  0.00    +0.051 A 
ATOM      5  C   UNL     1      -0.756   4.177  25.354  0.00  0.00    +0.015 A 
ATOM      6  C   UNL     1      -1.395   4.698  25.371  0.00  0.00    +0.004 A 
ATOM      7  C   UNL     1      -2.166   4.405  25.384  0.00  0.00    +0.038 A 
ATOM      8  C   UNL     1      -2.298   3.591  25.379  0.00  0.00    +0.150 A 
ATOM     31  C   UNL     1      -1.659   3.070  25.362  0.00  0.00    +0.052 A 
BRANCH   4   2
ATOM      1  C   UNL     1       0.105   2.599  26.037  0.00  0.00    +0.112 C 
ATOM      2  N   UNL     1      -0.249   2.840  25.332  0.00  0.00    -0.304 N 
ATOM      3  C   UNL     1       0.035   2.561  24.610  0.00  0.00    +0.112 C 
ENDBRANCH   4   2
ENDBRANCH   9   8
ENDBRANCH  10   9
ENDBRANCH  15  14
BRANCH  19  23
ATOM     23  N   UNL     1      -3.954  -0.633  24.406  0.00  0.00    -0.196 NA
ATOM     24  C   UNL     1      -3.310  -1.149  24.391  0.00  0.00    +0.300 C 
ATOM     25  O   UNL     1      -2.565  -0.873  24.168  0.00  0.00    -0.265 OA
BRANCH  24  26
ATOM     26  C   UNL     1      -3.411  -1.941  24.598  0.00  0.00    +0.200 A 
ATOM     27  C   UNL     1      -3.663  -2.545  24.097  0.00  0.00    +0.046 A 
ATOM     28  C   UNL     1      -3.685  -3.246  24.532  0.00  0.00    +0.044 A 
ATOM     29  C   UNL     1      -3.446  -3.074  25.303  0.00  0.00    +0.180 A 
ATOM     30  O   UNL     1      -3.277  -2.268  25.343  0.00  0.00    -0.446 OA
ENDBRANCH  24  26
ENDBRANCH  19  23
TORSDOF 6
ENDMDL
MODEL 3
REMARK VINA RESULT:      -9.8      1.325      5.393
REMARK  Name = 
REMARK  6 active torsions:
REMARK  status: ('A' for Active; 'I' for Inactive)
REMARK    1  A    between atoms: N_2  and  C_4
REMARK    2  A    between atoms: C_8  and  O_9
REMARK    3  A    between atoms: O_9  and  C_10
REMARK    4  A    between atoms: N_14  and  C_15
REMARK    5  A    between atoms: C_19  and  N_23
REMARK    6  A    between atoms: C_24  and  C_26
REMARK                            x       y       z     vdW  Elec       q    Type
REMARK                         _______ _______ _______ _____ _____    ______ ____
ROOT
ATOM     15  C   UNL     1      -0.668   0.572  24.333  0.00  0.00    +0.170 C 
ATOM     16  C   UNL     1      -0.875   0.905  23.607  0.00  0.00    +0.169 C 
ATOM     17  O   UNL     1      -0.878   1.725  23.696  0.00  0.00    -0.350 OA
ATOM     18  C   UNL     1      -0.674   1.899  24.475  0.00  0.00    +0.167 C 
ATOM     19  C   UNL     1      -0.550   2.513  25.013  0.00  0.00    +0.155 C 
ATOM     20  C   UNL     1      -0.344   2.180  25.738  0.00  0.00    +0.166 C 
ATOM     21  O   UNL     1      -0.340   1.360  25.650  0.00  0.00    -0.350 OA
ATOM     22  C   UNL     1      -0.544   1.186  24.869  0.00  0.00    +0.169 C 
ENDROOT
BRANCH  15  14
ATOM     10  C   UNL     1      -1.213  -0.743  24.699  0.00  0.00    +0.343 A 
ATOM     11  N   UNL     1      -0.895  -1.497  24.810  0.00  0.00    -0.071 NA
ATOM     12  N   UNL     1      -0.083  -1.453  24.672  0.00  0.00    -0.020 NA
ATOM     13  N   UNL     1       0.101  -0.673  24.477  0.00  0.00    -0.040 NA
ATOM     14  N   UNL     1      -0.598  -0.234  24.494  0.00  0.00    -0.180 N 
BRANCH  10   9
ATOM      9  O   UNL     1      -2.008  -0.535  24.781  0.00  0.00    -0.421 OA
BRANCH   9   8
ATOM      4  C   UNL     1      -3.530  -2.095  24.677  0.00  0.00    +0.051 A 
ATOM      5  C   UNL     1      -3.665  -2.236  25.478  0.00  0.00    +0.015 A 
ATOM      6  C   UNL     1      -3.247  -1.810  26.048  0.00  0.00    +0.004 A 
ATOM      7  C   UNL     1      -2.695  -1.243  25.815  0.00  0.00    +0.038 A 
ATOM      8  C   UNL     1      -2.560  -1.102  25.014  0.00  0.00    +0.150 A 
ATOM     31  C   UNL     1      -2.978  -1.529  24.444  0.00  0.00    +0.052 A 
BRANCH   4   2
ATOM      1  C   UNL     1      -4.488  -2.137  23.617  0.00  0.00    +0.112 C 
ATOM      2  N   UNL     1      -3.948  -2.523  24.106  0.00  0.00    -0.304 N 
ATOM      3  C   UNL     1      -3.825  -3.334  24.027  0.00  0.00    +0.112 C 
ENDBRANCH   4   2
ENDBRANCH   9   8
ENDBRANCH  10   9
ENDBRANCH  15  14
BRANCH  19  23
ATOM     23  N   UNL     1      -0.621   3.319  24.852  0.00  0.00    -0.196 NA
ATOM     24  C   UNL     1      -1.121   3.789  25.309  0.00  0.00    +0.300 C 
ATOM     25  O   UNL     1      -1.552   3.453  25.928  0.00  0.00    -0.265 OA
BRANCH  24  26
ATOM     26  C   UNL     1      -1.192   4.595  25.148  0.00  0.00    +0.200 A 
ATOM     27  C   UNL     1      -1.863   5.058  25.275  0.00  0.00    +0.046 A 
ATOM     28  C   UNL     1      -1.689   5.829  25.037  0.00  0.00    +0.044 A 
ATOM     29  C   UNL     1      -0.911   5.842  24.764  0.00  0.00    +0.180 A 
ATOM     30  O   UNL     1      -0.604   5.080  24.833  0.00  0.00    -0.446 OA
ENDBRANCH  24  26
ENDBRANCH  19  23
TORSDOF 6
ENDMDL
MODEL 4
REMARK VINA RESULT:      -9.1      1.830      4.909
REMARK  Name = 
REMARK  6 active torsions:
REMARK  status: ('A' for Active; 'I' for Inactive)
REMARK    1  A    between atoms: N_2  and  C_4
REMARK    2  A    between atoms: C_8  and  O_9
REMARK    3  A    between atoms: O_9  and  C_10
REMARK    4  A    between atoms: N_14  and  C_15
REMARK    5  A    between atoms: C_19  and  N_23
REMARK    6  A    between atoms: C_24  and  C_26
REMARK                            x       y       z     vdW  Elec       q    Type
REMARK                         _______ _______ _______ _____ _____    ______ ____
ROOT
ATOM     15  C   UNL     1      -1.205   1.221  24.595  0.00  0.00    +0.170 C 
ATOM     16  C   UNL     1      -1.148   1.536  25.355  0.00  0.00    +0.169 C 
ATOM     17  O   UNL     1      -1.791   2.040  25.469  0.00  0.00    -0.350 OA
ATOM     18  C   UNL     1      -2.244   2.037  24.781  0.00  0.00    +0.167 C 
ATOM     19  C   UNL     1      -2.922   2.346  24.425  0.00  0.00    +0.155 C 
ATOM     20  C   UNL     1      -2.978   2.031  23.665  0.00  0.00    +0.166 C 
ATOM     21  O   UNL     1      -2.335   1.527  23.551  0.00  0.00    -0.350 OA
ATOM     22  C   UNL     1      -1.882   1.530  24.240  0.00  0.00    +0.169 C 
ENDROOT
BRANCH  15  14
ATOM     10  C   UNL     1      -0.601  -0.110  24.437  0.00  0.00    +0.343 A 
ATOM     11  N   UNL     1      -0.008  -0.430  23.960  0.00  0.00    -0.071 NA
ATOM     12  N   UNL     1       0.283   0.173  23.478  0.00  0.00    -0.020 NA
ATOM     13  N   UNL     1      -0.130   0.865  23.657  0.00  0.00    -0.040 NA
ATOM     14  N   UNL     1      -0.676   0.689  24.250  0.00  0.00    -0.180 N 
BRANCH  10   9
ATOM      9  O   UNL     1      -1.042  -0.519  25.003  0.00  0.00    -0.421 OA
BRANCH   9   8
ATOM      4  C   UNL     1      -2.421  -2.155  24.577  0.00  0.00    +0.051 A 
ATOM      5  C   UNL     1      -1.896  -2.788  24.501  0.00  0.00    +0.015 A 
ATOM      6  C   UNL     1      -1.085  -2.663  24.593  0.00  0.00    +0.004 A 
ATOM      7  C   UNL     1      -0.801  -1.907  24.760  0.00  0.00    +0.038 A 
ATOM      8  C   UNL     1      -1.326  -1.276  24.836  0.00  0.00    +0.150 A 
ATOM     31  C   UNL     1      -2.136  -1.400  24.744  0.00  0.00    +0.052 A 
BRANCH   4   2
ATOM      1  C   UNL     1      -3.600  -2.906  24.877  0.00  0.00    +0.112 C 
ATOM      2  N   UNL     1      -3.232  -2.280  24.485  0.00  0.00    -0.304 N 
ATOM      3  C   UNL     1      -3.674  -1.780  24.001  0.00  0.00    +0.112 C 
ENDBRANCH   4   2
ENDBRANCH   9   8
ENDBRANCH  10   9
ENDBRANCH  15  14
BRANCH  19  23
ATOM     23  N   UNL     1      -3.450   2.878  24.770  0.00  0.00    -0.196 NA
ATOM     24  C   UNL     1      -4.261   2.730  24.741  0.00  0.00    +0.300 C 
ATOM     25  O   UNL     1      -4.545   2.051  24.368  0.00  0.00    -0.265 OA
BRANCH  24  26
ATOM     26  C   UNL     1      -4.790   3.262  25.086  0.00  0.00    +0.200 A 
ATOM     27  C   UNL     1      -5.471   3.064  25.507  0.00  0.00    +0.046 A 
ATOM     28  C   UNL     1      -5.832   3.765  25.752  0.00  0.00    +0.044 A 
ATOM     29  C   UNL     1      -5.374   4.395  25.482  0.00  0.00    +0.180 A 
ATOM     30  O   UNL     1      -4.730   4.084  25.071  0.00  0.00    -0.446 OA
ENDBRANCH  24  26
ENDBRANCH  19  23
TORSDOF 6
ENDMDL
MODEL 5
REMARK VINA RESULT:      -9.0      2.488      4.387
REMARK  Name = 
REMARK  6 active torsions:
REMARK  status: ('A' for Active; 'I' for Inactive)
REMARK    1  A    between atoms: N_2  and  C_4
REMARK    2  A    between atoms: C_8  and  O_9
REMARK    3  A    between atoms: O_9  and  C_10
REMARK    4  A    between atoms: N_14  and  C_15
REMARK    5  A    between atoms: C_19  and  N_23
REMARK    6  A    between atoms: C_24  and  C_26
REMARK                            x       y       z     vdW  Elec       q    Type
REMARK                         _______ _______ _______ _____ _____    ______ ____
ROOT
ATOM     15  C   UNL     1      -0.792   0.640  24.402  0.00  0.00    +0.170 C 
ATOM     16  C   UNL     1      -0.384   1.111  24.943  0.00  0.00    +0.169 C 
ATOM     17  O   UNL     1       0.403   1.156  24.697  0.00  0.00    -0.350 OA
ATOM     18  C   UNL     1       0.481   0.713  24.007  0.00  0.00    +0.167 C 
ATOM     19  C   UNL     1       1.014   0.467  23.427  0.00  0.00    +0.155 C 
ATOM     20  C   UNL     1       0.606  -0.004  22.887  0.00  0.00    +0.166 C 
ATOM     21  O   UNL     1      -0.181  -0.049  23.132  0.00  0.00    -0.350 OA
ATOM     22  C   UNL     1      -0.258   0.394  23.824  0.00  0.00    +0.169 C 
ENDROOT
BRANCH  15  14
ATOM     10  C   UNL     1      -2.222   0.976  24.347  0.00  0.00    +0.343 A 
ATOM     11  N   UNL     1      -2.925   0.549  24.420  0.00  0.00    -0.071 NA
ATOM     12  N   UNL     1      -2.731  -0.242  24.552  0.00  0.00    -0.020 NA
ATOM     13  N   UNL     1      -1.908  -0.304  24.562  0.00  0.00    -0.040 NA
ATOM     14  N   UNL     1      -1.594   0.449  24.435  0.00  0.00    -0.180 N 
BRANCH  10   9
ATOM      9  O   UNL     1      -2.159   1.787  24.211  0.00  0.00    -0.421 OA
BRANCH   9   8
ATOM      4  C   UNL     1      -3.827   3.076  24.775  0.00  0.00    +0.051 A 
ATOM      5  C   UNL     1      -4.202   3.175  24.047  0.00  0.00    +0.015 A 
ATOM      6  C   UNL     1      -3.896   2.811  23.373  0.00  0.00    +0.004 A 
ATOM      7  C   UNL     1      -3.214   2.348  23.428  0.00  0.00    +0.038 A 
ATOM      8  C   UNL     1      -2.840   2.250  24.156  0.00  0.00    +0.150 A 
ATOM     31  C   UNL     1      -3.146   2.614  24.830  0.00  0.00    +0.052 A 
BRANCH   4   2
ATOM      1  C   UNL     1      -4.907   3.279  25.690  0.00  0.00    +0.112 C 
ATOM      2  N   UNL     1      -4.134   3.440  25.450  0.00  0.00    -0.304 N 
ATOM      3  C   UNL     1      -3.667   3.964  25.883  0.00  0.00    +0.112 C 
ENDBRANCH   4   2
ENDBRANCH   9   8
ENDBRANCH  10   9
ENDBRANCH  15  14
BRANCH  19  23
ATOM     23  N   UNL     1       1.816   0.658  23.394  0.00  0.00    -0.196 NA
ATOM     24  C   UNL     1       2.308   0.281  22.850  0.00  0.00    +0.300 C 
ATOM     25  O   UNL     1       1.999  -0.288  22.339  0.00  0.00    -0.265 OA
BRANCH  24  26
ATOM     26  C   UNL     1       3.110   0.472  22.818  0.00  0.00    +0.200 A 
ATOM     27  C   UNL     1       3.738  -0.048  22.942  0.00  0.00    +0.046 A 
ATOM     28  C   UNL     1       4.441   0.376  22.856  0.00  0.00    +0.044 A 
ATOM     29  C   UNL     1       4.247   1.157  22.678  0.00  0.00    +0.180 A 
ATOM     30  O   UNL     1       3.425   1.217  22.654  0.00  0.00    -0.446 OA
ENDBRANCH  24  26
ENDBRANCH  19  23
TORSDOF 6
ENDMDL
MODEL 6
REMARK VINA RESULT:      -9.0      2.586      5.416
REMARK  Name = 
REMARK  6 active torsions:
REMARK  status: ('A' for Active; 'I' for Inactive)
REMARK    1  A    between atoms: N_2  and  C_4
REMARK    2  A    between atoms: C_8  and  O_9
REMARK    3  A    between atoms: O_9  and  C_10
REMARK    4  A    between atoms: N_14  and  C_15
REMARK    5  A    between atoms: C_19  and  N_23
REMARK    6  A    between atoms: C_24  and  C_26
REMARK                            x       y       z     vdW  Elec       q    Type
REMARK                         _______ _______ _______ _____ _____    ______ ____
ROOT
ATOM     15  C   UNL     1      -0.654   1.148  23.897  0.00  0.00    +0.170 C 
ATOM     16  C   UNL     1      -0.248   1.572  24.476  0.00  0.00    +0.169 C 
ATOM     17  O   UNL     1       0.558   1.424  24.383  0.00  0.00    -0.350 OA
ATOM     18  C   UNL     1       0.651   0.909  23.746  0.00  0.00    +0.167 C 
ATOM     19  C   UNL     1       1.205   0.498  23.294  0.00  0.00    +0.155 C 
ATOM     20  C   UNL     1       0.800   0.074  22.715  0.00  0.00    +0.166 C 
ATOM     21  O   UNL     1      -0.006   0.222  22.808  0.00  0.00    -0.350 OA
ATOM     22  C   UNL     1      -0.098   0.738  23.446  0.00  0.00    +0.169 C 
ENDROOT
BRANCH  15  14
ATOM     10  C   UNL     1      -2.010   0.672  24.206  0.00  0.00    +0.343 A 
ATOM     11  N   UNL     1      -2.766   0.835  23.918  0.00  0.00    -0.071 NA
ATOM     12  N   UNL     1      -2.694   1.401  23.321  0.00  0.00    -0.020 NA
ATOM     13  N   UNL     1      -1.895   1.587  23.241  0.00  0.00    -0.040 NA
ATOM     14  N   UNL     1      -1.472   1.136  23.788  0.00  0.00    -0.180 N 
BRANCH  10   9
ATOM      9  O   UNL     1      -1.825   0.137  24.807  0.00  0.00    -0.421 OA
BRANCH   9   8
ATOM      4  C   UNL     1      -2.911  -1.752  24.908  0.00  0.00    +0.051 A 
ATOM      5  C   UNL     1      -3.475  -1.578  25.485  0.00  0.00    +0.015 A 
ATOM      6  C   UNL     1      -3.488  -0.832  25.836  0.00  0.00    +0.004 A 
ATOM      7  C   UNL     1      -2.938  -0.260  25.610  0.00  0.00    +0.038 A 
ATOM      8  C   UNL     1      -2.375  -0.434  25.033  0.00  0.00    +0.150 A 
ATOM     31  C   UNL     1      -2.362  -1.181  24.682  0.00  0.00    +0.052 A 
BRANCH   4   2
ATOM      1  C   UNL     1      -3.606  -2.871  24.351  0.00  0.00    +0.112 C 
ATOM      2  N   UNL     1      -2.898  -2.499  24.557  0.00  0.00    -0.304 N 
ATOM      3  C   UNL     1      -2.178  -2.874  24.412  0.00  0.00    +0.112 C 
ENDBRANCH   4   2
ENDBRANCH   9   8
ENDBRANCH  10   9
ENDBRANCH  15  14
BRANCH  19  23
ATOM     23  N   UNL     1       2.023   0.510  23.403  0.00  0.00    -0.196 NA
ATOM     24  C   UNL     1       2.525   0.288  22.787  0.00  0.00    +0.300 C 
ATOM     25  O   UNL     1       2.210   0.053  22.062  0.00  0.00    -0.265 OA
BRANCH  24  26
ATOM     26  C   UNL     1       3.343   0.300  22.897  0.00  0.00    +0.200 A 
ATOM     27  C   UNL     1       3.846   0.928  22.719  0.00  0.00    +0.046 A 
ATOM     28  C   UNL     1       4.616   0.702  22.915  0.00  0.00    +0.044 A 
ATOM     29  C   UNL     1       4.587  -0.066  23.214  0.00  0.00    +0.180 A 
ATOM     30  O   UNL     1       3.800  -0.315  23.202  0.00  0.00    -0.446 OA
ENDBRANCH  24  26
ENDBRANCH  19  23
TORSDOF 6
ENDMDL
MODEL 7
REMARK VINA RESULT:      -8.9      1.948      4.053
REMARK  Name = 
REMARK  6 active torsions:
REMARK  status: ('A' for Active; 'I' for Inactive)
REMARK    1  A    between atoms: N_2  and  C_4
REMARK    2  A    between atoms: C_8  and  O_9
REMARK    3  A    between atoms: O_9  and  C_10
REMARK    4  A    between atoms: N_14  and  C_15
REMARK    5  A    between atoms: C_19  and  N_23
REMARK    6  A    between atoms: C_24  and  C_26
REMARK                            x       y       z     vdW  Elec       q    Type
REMARK                         _______ _______ _______ _____ _____    ______ ____
ROOT
ATOM     15  C   UNL     1      -1.581   3.086  24.793  0.00  0.00    +0.170 C 
ATOM     16  C   UNL     1      -1.372   3.416  24.066  0.00  0.00    +0.169 C 
ATOM     17  O   UNL     1      -0.729   2.992  23.771  0.00  0.00    -0.350 OA
ATOM     18  C   UNL     1      -0.540   2.401  24.314  0.00  0.00    +0.167 C 
ATOM     19  C   UNL     1      -0.027   1.774  24.468  0.00  0.00    +0.155 C 
ATOM     20  C   UNL     1      -0.236   1.445  25.194  0.00  0.00    +0.166 C 
ATOM     21  O   UNL     1      -0.879   1.868  25.490  0.00  0.00    -0.350 OA
ATOM     22  C   UNL     1      -1.067   2.460  24.946  0.00  0.00    +0.169 C 
ENDROOT
BRANCH  15  14
ATOM     10  C   UNL     1      -3.000   3.204  25.157  0.00  0.00    +0.343 A 
ATOM     11  N   UNL     1      -3.417   3.554  25.778  0.00  0.00    -0.071 NA
ATOM     12  N   UNL     1      -2.869   3.905  26.286  0.00  0.00    -0.020 NA
ATOM     13  N   UNL     1      -2.115   3.773  25.979  0.00  0.00    -0.040 NA
ATOM     14  N   UNL     1      -2.196   3.340  25.281  0.00  0.00    -0.180 N 
BRANCH  10   9
ATOM      9  O   UNL     1      -3.331   2.792  24.523  0.00  0.00    -0.421 OA
BRANCH   9   8
ATOM      4  C   UNL     1      -4.513   0.981  24.813  0.00  0.00    +0.051 A 
ATOM      5  C   UNL     1      -5.270   1.300  24.896  0.00  0.00    +0.015 A 
ATOM      6  C   UNL     1      -5.380   2.116  24.854  0.00  0.00    +0.004 A 
ATOM      7  C   UNL     1      -4.733   2.613  24.730  0.00  0.00    +0.038 A 
ATOM      8  C   UNL     1      -3.978   2.295  24.647  0.00  0.00    +0.150 A 
ATOM     31  C   UNL     1      -3.867   1.478  24.689  0.00  0.00    +0.052 A 
BRANCH   4   2
ATOM      1  C   UNL     1      -4.176  -0.186  25.567  0.00  0.00    +0.112 C 
ATOM      2  N   UNL     1      -4.403   0.164  24.855  0.00  0.00    -0.304 N 
ATOM      3  C   UNL     1      -4.519  -0.302  24.185  0.00  0.00    +0.112 C 
ENDBRANCH   4   2
ENDBRANCH   9   8
ENDBRANCH  10   9
ENDBRANCH  15  14
BRANCH  19  23
ATOM     23  N   UNL     1       0.588   1.521  23.980  0.00  0.00    -0.196 NA
ATOM     24  C   UNL     1       0.632   0.730  23.747  0.00  0.00    +0.300 C 
ATOM     25  O   UNL     1       0.061   0.193  24.003  0.00  0.00    -0.265 OA
BRANCH  24  26
ATOM     26  C   UNL     1       1.247   0.477  23.259  0.00  0.00    +0.200 A 
ATOM     27  C   UNL     1       1.197  -0.108  22.680  0.00  0.00    +0.046 A 
ATOM     28  C   UNL     1       1.940  -0.182  22.328  0.00  0.00    +0.044 A 
ATOM     29  C   UNL     1       2.448   0.356  22.689  0.00  0.00    +0.180 A 
ATOM     30  O   UNL     1       2.020   0.764  23.265  0.00  0.00    -0.446 OA
ENDBRANCH  24  26
ENDBRANCH  19  23
TORSDOF 6
ENDMDL
MODEL 8
REMARK VINA RESULT:      -8.9      2.226      5.994
REMARK  Name = 
REMARK  6 active torsions:
REMARK  status: ('A' for Active; 'I' for Inactive)
REMARK    1  A    between atoms: N_2  and  C_4
REMARK    2  A    between atoms: C_8  and  O_9
REMARK    3  A    between atoms: O_9  and  C_10
REMARK    4  A    between atoms: N_14  and  C_15
REMARK    5  A    between atoms: C_19  and  N_23
REMARK    6  A    between atoms: C_24  and  C_26
REMARK                            x       y       z     vdW  Elec       q    Type
REMARK                         _______ _______ _______ _____ _____    ______ ____
ROOT
ATOM     15  C   UNL     1      -4.332   2.054  24.495  0.00  0.00    +0.170 C 
ATOM     16  C   UNL     1      -4.017   2.184  23.744  0.00  0.00    +0.169 C 
ATOM     17  O   UNL     1      -3.501   2.825  23.792  0.00  0.00    -0.350 OA
ATOM     18  C   UNL     1      -3.497   3.092  24.571  0.00  0.00    +0.167 C 
ATOM     19  C   UNL     1      -3.176   3.653  25.084  0.00  0.00    +0.155 C 
ATOM     20  C   UNL     1      -3.491   3.524  25.835  0.00  0.00    +0.166 C 
ATOM     21  O   UNL     1      -4.007   2.882  25.787  0.00  0.00    -0.350 OA
ATOM     22  C   UNL     1      -4.011   2.615  25.006  0.00  0.00    +0.169 C 
ENDROOT
BRANCH  15  14
ATOM     10  C   UNL     1      -4.718   0.657  24.740  0.00  0.00    +0.343 A 
ATOM     11  N   UNL     1      -5.414   0.274  24.963  0.00  0.00    -0.071 NA
ATOM     12  N   UNL     1      -6.000   0.847  25.060  0.00  0.00    -0.020 NA
ATOM     13  N   UNL     1      -5.666   1.583  24.896  0.00  0.00    -0.040 NA
ATOM     14  N   UNL     1      -4.874   1.465  24.698  0.00  0.00    -0.180 N 
BRANCH  10   9
ATOM      9  O   UNL     1      -3.993   0.294  24.585  0.00  0.00    -0.421 OA
BRANCH   9   8
ATOM      4  C   UNL     1      -3.634  -1.855  24.708  0.00  0.00    +0.051 A 
ATOM      5  C   UNL     1      -3.509  -1.947  25.519  0.00  0.00    +0.015 A 
ATOM      6  C   UNL     1      -3.545  -1.291  26.018  0.00  0.00    +0.004 A 
ATOM      7  C   UNL     1      -3.706  -0.544  25.706  0.00  0.00    +0.038 A 
ATOM      8  C   UNL     1      -3.832  -0.453  24.897  0.00  0.00    +0.150 A 
ATOM     31  C   UNL     1      -3.795  -1.109  24.397  0.00  0.00    +0.052 A 
BRANCH   4   2
ATOM      1  C   UNL     1      -4.277  -2.770  23.817  0.00  0.00    +0.112 C 
ATOM      2  N   UNL     1      -3.598  -2.512  24.208  0.00  0.00    -0.304 N 
ATOM      3  C   UNL     1      -2.883  -2.908  24.100  0.00  0.00    +0.112 C 
ENDBRANCH   4   2
ENDBRANCH   9   8
ENDBRANCH  10   9
ENDBRANCH  15  14
BRANCH  19  23
ATOM     23  N   UNL     1      -2.635   4.242  24.880  0.00  0.00    -0.196 NA
ATOM     24  C   UNL     1      -1.906   4.282  25.264  0.00  0.00    +0.300 C 
ATOM     25  O   UNL     1      -1.718   3.734  25.852  0.00  0.00    -0.265 OA
BRANCH  24  26
ATOM     26  C   UNL     1      -1.364   4.871  25.061  0.00  0.00    +0.200 A 
ATOM     27  C   UNL     1      -0.602   4.748  24.770  0.00  0.00    +0.046 A 
ATOM     28  C   UNL     1      -0.256   5.487  24.642  0.00  0.00    +0.044 A 
ATOM     29  C   UNL     1      -0.805   6.065  24.853  0.00  0.00    +0.180 A 
ATOM     30  O   UNL     1      -1.490   5.684  25.112  0.00  0.00    -0.446 OA
ENDBRANCH  24  26
ENDBRANCH  19  23
TORSDOF 6
ENDMDL
MODEL 9
REMARK VINA RESULT:      -8.8      2.227      4.250
REMARK  Name = 
REMARK  6 active torsions:
REMARK  status: ('A' for Active; 'I' for Inactive)
REMARK    1  A    between atoms: N_2  and  C_4
REMARK    2  A    between atoms: C_8  and  O_9
REMARK    3  A    between atoms: O_9  and  C_10
REMARK    4  A    between atoms: N_14  and  C_15
REMARK    5  A    between atoms: C_19  and  N_23
REMARK    6  A    between atoms: C_24  and  C_26
REMARK                            x       y       z     vdW  Elec       q    Type
REMARK                         _______ _______ _______ _____ _____    ______ ____
ROOT
ATOM     15  C   UNL     1      -1.500   0.062  25.156  0.00  0.00    +0.170 C 
ATOM     16  C   UNL     1      -1.129   0.713  25.500  0.00  0.00    +0.169 C 
ATOM     17  O   UNL     1      -0.391   0.802  25.143  0.00  0.00    -0.350 OA
ATOM     18  C   UNL     1      -0.305   0.208  24.579  0.00  0.00    +0.167 C 
ATOM     19  C   UNL     1       0.203  -0.106  24.010  0.00  0.00    +0.155 C 
ATOM     20  C   UNL     1      -0.168  -0.757  23.666  0.00  0.00    +0.166 C 
ATOM     21  O   UNL     1      -0.906  -0.847  24.022  0.00  0.00    -0.350 OA
ATOM     22  C   UNL     1      -0.991  -0.251  24.587  0.00  0.00    +0.169 C 
ENDROOT
BRANCH  15  14
ATOM     10  C   UNL     1      -2.969   0.126  25.152  0.00  0.00    +0.343 A 
ATOM     11  N   UNL     1      -3.575  -0.348  25.452  0.00  0.00    -0.071 NA
ATOM     12  N   UNL     1      -3.229  -0.993  25.833  0.00  0.00    -0.020 NA
ATOM     13  N   UNL     1      -2.410  -0.918  25.768  0.00  0.00    -0.040 NA
ATOM     14  N   UNL     1      -2.249  -0.227  25.347  0.00  0.00    -0.180 N 
BRANCH  10   9
ATOM      9  O   UNL     1      -3.066   0.829  24.731  0.00  0.00    -0.421 OA
BRANCH   9   8
ATOM      4  C   UNL     1      -4.595   2.339  25.108  0.00  0.00    +0.051 A 
ATOM      5  C   UNL     1      -5.252   1.990  24.752  0.00  0.00    +0.015 A 
ATOM      6  C   UNL     1      -5.180   1.252  24.389  0.00  0.00    +0.004 A 
ATOM      7  C   UNL     1      -4.451   0.866  24.382  0.00  0.00    +0.038 A 
ATOM      8  C   UNL     1      -3.795   1.215  24.738  0.00  0.00    +0.150 A 
ATOM     31  C   UNL     1      -3.867   1.953  25.101  0.00  0.00    +0.052 A 
BRANCH   4   2
ATOM      1  C   UNL     1      -5.321   3.241  25.946  0.00  0.00    +0.112 C 
ATOM      2  N   UNL     1      -4.667   3.078  25.471  0.00  0.00    -0.304 N 
ATOM      3  C   UNL     1      -4.085   3.650  25.359  0.00  0.00    +0.112 C 
ENDBRANCH   4   2
ENDBRANCH   9   8
ENDBRANCH  10   9
ENDBRANCH  15  14
BRANCH  19  23
ATOM     23  N   UNL     1       0.952   0.182  23.818  0.00  0.00    -0.196 NA
ATOM     24  C   UNL     1       1.275   0.029  23.075  0.00  0.00    +0.300 C 
ATOM     25  O   UNL     1       0.850  -0.412  22.522  0.00  0.00    -0.265 OA
BRANCH  24  26
ATOM     26  C   UNL     1       2.024   0.318  22.883  0.00  0.00    +0.200 A 
ATOM     27  C   UNL     1       2.538  -0.002  22.322  0.00  0.00    +0.046 A 
ATOM     28  C   UNL     1       3.222   0.459  22.311  0.00  0.00    +0.044 A 
ATOM     29  C   UNL     1       3.131   1.063  22.865  0.00  0.00    +0.180 A 
ATOM     30  O   UNL     1       2.391   0.976  23.218  0.00  0.00    -0.446 OA
ENDBRANCH  24  26
ENDBRANCH  19  23
TORSDOF 6
ENDMDL
MODEL 10
REMARK VINA RESULT:      -8.4      1.599      2.486
REMARK  Name = 
REMARK  6 active torsions:
REMARK  status: ('A' for Active; 'I' for Inactive)
REMARK    1  A    between atoms: N_2  and  C_4
REMARK    2  A    between atoms: C_8  and  O_9
REMARK    3  A    between atoms: O_9  and  C_10
REMARK    4  A    between atoms: N_14  and  C_15
REMARK    5  A    between atoms: C_19  and  N_23
REMARK    6  A    between atoms: C_24  and  C_26
REMARK                            x       y       z     vdW  Elec       q    Type
REMARK                         _______ _______ _______ _____ _____    ______ ____
ROOT
ATOM     15  C   UNL     1      -0.891   2.805  25.452  0.00  0.00    +0.170 C 
ATOM     16  C   UNL     1      -0.607   2.492  26.160  0.00  0.00    +0.169 C 
ATOM     17  O   UNL     1      -0.480   1.685  26.049  0.00  0.00    -0.350 OA
ATOM     18  C   UNL     1      -0.685   1.498  25.273  0.00  0.00    +0.167 C 
ATOM     19  C   UNL     1      -0.734   0.885  24.723  0.00  0.00    +0.155 C 
ATOM     20  C   UNL     1      -1.018   1.198  24.015  0.00  0.00    +0.166 C 
ATOM     21  O   UNL     1      -1.145   2.005  24.126  0.00  0.00    -0.350 OA
ATOM     22  C   UNL     1      -0.939   2.191  24.904  0.00  0.00    +0.169 C 
ENDROOT
BRANCH  15  14
ATOM     10  C   UNL     1      -1.775   3.972  25.581  0.00  0.00    +0.343 A 
ATOM     11  N   UNL     1      -1.750   4.755  25.320  0.00  0.00    -0.071 NA
ATOM     12  N   UNL     1      -1.050   4.860  24.895  0.00  0.00    -0.020 NA
ATOM     13  N   UNL     1      -0.644   4.142  24.892  0.00  0.00    -0.040 NA
ATOM     14  N   UNL     1      -1.092   3.594  25.316  0.00  0.00    -0.180 N 
BRANCH  10   9
ATOM      9  O   UNL     1      -2.378   3.629  26.028  0.00  0.00    -0.421 OA
BRANCH   9   8
ATOM      4  C   UNL     1      -4.426   3.344  25.333  0.00  0.00    +0.051 A 
ATOM      5  C   UNL     1      -4.745   4.093  25.472  0.00  0.00    +0.015 A 
ATOM      6  C   UNL     1      -4.273   4.687  25.796  0.00  0.00    +0.004 A 
ATOM      7  C   UNL     1      -3.484   4.532  25.981  0.00  0.00    +0.038 A 
ATOM      8  C   UNL     1      -3.167   3.784  25.842  0.00  0.00    +0.150 A 
ATOM     31  C   UNL     1      -3.638   3.190  25.518  0.00  0.00    +0.052 A 
BRANCH   4   2
ATOM      1  C   UNL     1      -5.553   2.469  25.424  0.00  0.00    +0.112 C 
ATOM      2  N   UNL     1      -4.898   2.749  25.008  0.00  0.00    -0.304 N 
ATOM      3  C   UNL     1      -4.714   2.435  24.268  0.00  0.00    +0.112 C 
ENDBRANCH   4   2
ENDBRANCH   9   8
ENDBRANCH  10   9
ENDBRANCH  15  14
BRANCH  19  23
ATOM     23  N   UNL     1      -0.533   0.096  24.859  0.00  0.00    -0.196 NA
ATOM     24  C   UNL     1      -1.081  -0.501  24.704  0.00  0.00    +0.300 C 
ATOM     25  O   UNL     1      -1.829  -0.310  24.414  0.00  0.00    -0.265 OA
BRANCH  24  26
ATOM     26  C   UNL     1      -0.880  -1.290  24.840  0.00  0.00    +0.200 A 
ATOM     27  C   UNL     1      -1.338  -1.947  24.643  0.00  0.00    +0.046 A 
ATOM     28  C   UNL     1      -0.928  -2.624  24.878  0.00  0.00    +0.044 A 
ATOM     29  C   UNL     1      -0.217  -2.384  25.220  0.00  0.00    +0.180 A 
ATOM     30  O   UNL     1      -0.188  -1.560  25.196  0.00  0.00    -0.446 OA
ENDBRANCH  24  26
ENDBRANCH  19  23
TORSDOF 6
ENDMDL
