REMARK  Name = 
REMARK  5 active torsions:
REMARK  status: ('A' for Active; 'I' for Inactive)
REMARK    1  A    between atoms: N_2  and  C_4
REMARK    2  A    between atoms: C_4  and  C_5
REMARK    3  A    between atoms: N_7  and  C_8
REMARK    4  A    between atoms: N_20  and  C_21
REMARK    5  A    between atoms: C_24  and  C_27
REMARK                            x       y       z     vdW  Elec       q    Type
REMARK                         _______ _______ _______ _____ _____    ______ ____
ROOT
ATOM      8  C   UNL     1      -1.296  -1.150   0.000  0.00  0.00    +0.129 A 
ATOM      9  C   UNL     1      -1.167  -0.335   0.000  0.00  0.00    +0.023 A 
ATOM     10  C   UNL     1      -0.397  -0.039   0.000  0.00  0.00    +0.014 A 
ATOM     11  C   UNL     1       0.244  -0.558   0.000  0.00  0.00    +0.041 A 
ATOM     12  C   UNL     1       1.163  -0.557   0.000  0.00  0.00    +0.058 C 
ATOM     13  C   UNL     1       1.713  -0.121   0.000  0.00  0.00    +0.011 C 
ATOM     14  C   UNL     1       1.582  -0.925   0.000  0.00  0.00    +0.043 C 
ATOM     15  C   UNL     1       1.629  -1.912   0.000  0.00  0.00    +0.097 C 
ATOM     16  N   UNL     1       0.813  -2.091   0.000  0.00  0.00    -0.262 N 
ATOM     17  C   UNL     1       1.225  -1.510   0.000  0.00  0.00    +0.101 C 
ATOM     18  C   UNL     1       0.125  -2.547   0.000  0.00  0.00    +0.327 C 
ATOM     19  O   UNL     1      -0.614  -2.179   0.000  0.00  0.00    -0.250 OA
ATOM     20  N   UNL     1       0.176  -3.370   0.000  0.00  0.00    -0.162 NA
ATOM     30  C   UNL     1       0.622  -0.936   0.000  0.00  0.00    +0.110 C 
ATOM     31  N   UNL     1       0.115  -1.373   0.000  0.00  0.00    -0.298 N 
ATOM     32  C   UNL     1      -0.655  -1.669   0.000  0.00  0.00    +0.276 A 
ATOM     33  O   UNL     1      -1.029  -2.404   0.000  0.00  0.00    -0.266 OA
ENDROOT
BRANCH  20  21
ATOM     21  C   UNL     1       0.914  -3.738   0.000  0.00  0.00    +0.075 A 
ATOM     22  C   UNL     1       1.602  -3.283   0.000  0.00  0.00    +0.017 A 
ATOM     23  C   UNL     1       2.340  -3.650   0.000  0.00  0.00    +0.004 A 
ATOM     24  C   UNL     1       2.391  -4.474   0.000  0.00  0.00    +0.035 A 
ATOM     25  C   UNL     1       1.703  -4.929   0.000  0.00  0.00    +0.004 A 
ATOM     26  C   UNL     1       0.965  -4.562   0.000  0.00  0.00    +0.017 A 
BRANCH  24  27
ATOM     27  C   UNL     1       3.130  -4.842   0.000  0.00  0.00    +0.173 C 
ATOM     28  C   UNL     1       3.817  -4.386   0.000  0.00  0.00    +0.077 C 
ATOM     29  O   UNL     1       3.180  -5.665   0.000  0.00  0.00    -0.291 OA
ENDBRANCH  24  27
ENDBRANCH  20  21
BRANCH   8   7
ATOM      5  C   UNL     1      -2.707  -0.926   0.000  0.00  0.00    +0.262 C 
ATOM      6  O   UNL     1      -3.478  -1.222   0.000  0.00  0.00    -0.271 OA
ATOM      7  N   UNL     1      -2.066  -1.445   0.000  0.00  0.00    -0.173 NA
BRANCH   5   4
ATOM      4  C   UNL     1      -2.578  -0.111   0.000  0.00  0.00    +0.161 C 
BRANCH   4   2
ATOM      1  C   UNL     1      -3.091   1.223   0.000  0.00  0.00    +0.090 C 
ATOM      2  N   UNL     1      -3.220   0.408   0.000  0.00  0.00    -0.263 NA
ATOM      3  C   UNL     1      -3.990   0.112   0.000  0.00  0.00    +0.090 C 
ENDBRANCH   4   2
ENDBRANCH   5   4
ENDBRANCH   8   7
TORSDOF 5
