MODEL 1
REMARK VINA RESULT:      -9.1      0.000      0.000
REMARK  Name = 
REMARK  7 active torsions:
REMARK  status: ('A' for Active; 'I' for Inactive)
REMARK    1  A    between atoms: N_4  and  C_5
REMARK    2  A    between atoms: C_7  and  C_14
REMARK    3  A    between atoms: N_16  and  C_17
REMARK    4  A    between atoms: C_17  and  C_18
REMARK    5  A    between atoms: C_17  and  C_24
REMARK    6  A    between atoms: C_18  and  C_19
REMARK    7  A    between atoms: C_19  and  S_20
REMARK                            x       y       z     vdW  Elec       q    Type
REMARK                         _______ _______ _______ _____ _____    ______ ____
ROOT
ATOM      5  C   UNL     1      -4.553   2.276  24.442  0.00  0.00    +0.131 C 
ATOM      6  C   UNL     1      -4.628   1.531  24.788  0.00  0.00    +0.064 C 
ATOM      7  C   UNL     1      -4.123   0.918  24.561  0.00  0.00    +0.200 C 
ATOM      8  O   UNL     1      -4.582   0.526  25.122  0.00  0.00    -0.216 OA
ATOM      9  C   UNL     1      -3.545   1.051  23.988  0.00  0.00    +0.075 C 
ATOM     10  C   UNL     1      -3.470   1.796  23.642  0.00  0.00    +0.187 C 
ATOM     11  O   UNL     1      -2.892   1.928  23.069  0.00  0.00    -0.220 OA
ATOM     12  C   UNL     1      -3.974   2.408  23.868  0.00  0.00    +0.202 C 
ATOM     13  O   UNL     1      -3.899   3.154  23.522  0.00  0.00    -0.219 OA
ENDROOT
BRANCH   5   4
ATOM      1  C   UNL     1      -5.457   3.874  25.623  0.00  0.00    +0.096 C 
ATOM      2  C   UNL     1      -4.953   3.260  25.397  0.00  0.00    +0.242 C 
ATOM      3  O   UNL     1      -4.346   3.019  25.901  0.00  0.00    -0.273 OA
ATOM      4  N   UNL     1      -5.056   2.889  24.668  0.00  0.00    -0.204 NA
ENDBRANCH   5   4
BRANCH   7  14
ATOM     14  C   UNL     1      -3.779   0.170  24.529  0.00  0.00    +0.269 C 
ATOM     15  O   UNL     1      -3.873  -0.300  23.857  0.00  0.00    -0.271 OA
ATOM     16  N   UNL     1      -3.340  -0.110  25.170  0.00  0.00    -0.196 NA
BRANCH  16  17
ATOM     17  C   UNL     1      -2.995  -0.859  25.137  0.00  0.00    +0.176 C 
BRANCH  17  24
ATOM     24  C   UNL     1      -3.367  -1.500  25.498  0.00  0.00    +0.281 C 
ATOM     25  N   UNL     1      -3.598  -2.152  25.046  0.00  0.00    -0.086 NA
ATOM     26  O   UNL     1      -3.510  -1.491  26.311  0.00  0.00    -0.270 OA
ENDBRANCH  17  24
BRANCH  17  18
ATOM     18  C   UNL     1      -2.278  -0.966  24.744  0.00  0.00    +0.056 C 
BRANCH  18  19
ATOM     19  C   UNL     1      -1.580  -1.047  25.175  0.00  0.00    +0.153 C 
BRANCH  19  20
ATOM     20  S   UNL     1      -0.851  -0.977  24.796  0.00  0.00    -0.008 S 
ATOM     21  C   UNL     1      -0.121  -0.906  24.416  0.00  0.00    +0.176 C 
ATOM     22  O   UNL     1      -0.686  -0.300  25.237  0.00  0.00    -0.173 OA
ATOM     23  O   UNL     1      -1.015  -1.654  24.354  0.00  0.00    -0.173 OA
ENDBRANCH  19  20
ENDBRANCH  18  19
ENDBRANCH  17  18
ENDBRANCH  16  17
ENDBRANCH   7  14
TORSDOF 7
ENDMDL
MODEL 2
REMARK VINA RESULT:      -9.0      1.745      4.202
REMARK  Name = 
REMARK  7 active torsions:
REMARK  status: ('A' for Active; 'I' for Inactive)
REMARK    1  A    between atoms: N_4  and  C_5
REMARK    2  A    between atoms: C_7  and  C_14
REMARK    3  A    between atoms: N_16  and  C_17
REMARK    4  A    between atoms: C_17  and  C_18
REMARK    5  A    between atoms: C_17  and  C_24
REMARK    6  A    between atoms: C_18  and  C_19
REMARK    7  A    between atoms: C_19  and  S_20
REMARK                            x       y       z     vdW  Elec       q    Type
REMARK                         _______ _______ _______ _____ _____    ______ ____
ROOT
ATOM      5  C   UNL     1      -2.939  -0.844  24.818  0.00  0.00    +0.131 C 
ATOM      6  C   UNL     1      -3.566  -0.310  24.868  0.00  0.00    +0.064 C 
ATOM      7  C   UNL     1      -3.447   0.484  24.676  0.00  0.00    +0.200 C 
ATOM      8  O   UNL     1      -4.247   0.503  24.875  0.00  0.00    -0.216 OA
ATOM      9  C   UNL     1      -2.703   0.743  24.434  0.00  0.00    +0.075 C 
ATOM     10  C   UNL     1      -2.076   0.209  24.384  0.00  0.00    +0.187 C 
ATOM     11  O   UNL     1      -1.331   0.469  24.142  0.00  0.00    -0.220 OA
ATOM     12  C   UNL     1      -2.194  -0.584  24.576  0.00  0.00    +0.202 C 
ATOM     13  O   UNL     1      -1.567  -1.119  24.526  0.00  0.00    -0.219 OA
ENDROOT
BRANCH   5   4
ATOM      1  C   UNL     1      -3.626  -2.913  24.708  0.00  0.00    +0.096 C 
ATOM      2  C   UNL     1      -3.509  -2.119  24.516  0.00  0.00    +0.242 C 
ATOM      3  O   UNL     1      -3.845  -1.807  23.830  0.00  0.00    -0.273 OA
ATOM      4  N   UNL     1      -3.057  -1.637  25.009  0.00  0.00    -0.204 NA
ENDBRANCH   5   4
BRANCH   7  14
ATOM     14  C   UNL     1      -3.607   1.284  24.554  0.00  0.00    +0.269 C 
ATOM     15  O   UNL     1      -3.631   1.588  23.787  0.00  0.00    -0.271 OA
ATOM     16  N   UNL     1      -3.743   1.781  25.199  0.00  0.00    -0.196 NA
BRANCH  16  17
ATOM     17  C   UNL     1      -3.903   2.581  25.076  0.00  0.00    +0.176 C 
BRANCH  17  24
ATOM     24  C   UNL     1      -4.680   2.855  25.094  0.00  0.00    +0.281 C 
ATOM     25  N   UNL     1      -5.113   2.823  25.796  0.00  0.00    -0.086 NA
ATOM     26  O   UNL     1      -5.026   3.161  24.410  0.00  0.00    -0.270 OA
ENDBRANCH  17  24
BRANCH  17  18
ATOM     18  C   UNL     1      -3.284   3.108  24.934  0.00  0.00    +0.056 C 
BRANCH  18  19
ATOM     19  C   UNL     1      -3.040   3.627  25.527  0.00  0.00    +0.153 C 
BRANCH  19  20
ATOM     20  S   UNL     1      -2.336   4.048  25.442  0.00  0.00    -0.008 S 
ATOM     21  C   UNL     1      -1.632   4.470  25.357  0.00  0.00    +0.176 C 
ATOM     22  O   UNL     1      -2.651   4.443  24.790  0.00  0.00    -0.173 OA
ATOM     23  O   UNL     1      -2.022   3.654  26.094  0.00  0.00    -0.173 OA
ENDBRANCH  19  20
ENDBRANCH  18  19
ENDBRANCH  17  18
ENDBRANCH  16  17
ENDBRANCH   7  14
TORSDOF 7
ENDMDL
MODEL 3
REMARK VINA RESULT:      -8.8      2.337      4.598
REMARK  Name = 
REMARK  7 active torsions:
REMARK  status: ('A' for Active; 'I' for Inactive)
REMARK    1  A    between atoms: N_4  and  C_5
REMARK    2  A    between atoms: C_7  and  C_14
REMARK    3  A    between atoms: N_16  and  C_17
REMARK    4  A    between atoms: C_17  and  C_18
REMARK    5  A    between atoms: C_17  and  C_24
REMARK    6  A    between atoms: C_18  and  C_19
REMARK    7  A    between atoms: C_19  and  S_20
REMARK                            x       y       z     vdW  Elec       q    Type
REMARK                         _______ _______ _______ _____ _____    ______ ____
ROOT
ATOM      5  C   UNL     1      -2.189  -1.422  24.545  0.00  0.00    +0.131 C 
ATOM      6  C   UNL     1      -2.318  -0.610  24.609  0.00  0.00    +0.064 C 
ATOM      7  C   UNL     1      -1.750  -0.128  24.964  0.00  0.00    +0.200 C 
ATOM      8  O   UNL     1      -2.318   0.438  24.773  0.00  0.00    -0.216 OA
ATOM      9  C   UNL     1      -1.053  -0.460  25.255  0.00  0.00    +0.075 C 
ATOM     10  C   UNL     1      -0.923  -1.272  25.191  0.00  0.00    +0.187 C 
ATOM     11  O   UNL     1      -0.226  -1.603  25.482  0.00  0.00    -0.220 OA
ATOM     12  C   UNL     1      -1.491  -1.752  24.836  0.00  0.00    +0.202 C 
ATOM     13  O   UNL     1      -1.363  -2.566  24.772  0.00  0.00    -0.219 OA
ENDROOT
BRANCH   5   4
ATOM      1  C   UNL     1      -4.031  -2.550  24.226  0.00  0.00    +0.096 C 
ATOM      2  C   UNL     1      -3.463  -2.067  24.582  0.00  0.00    +0.242 C 
ATOM      3  O   UNL     1      -3.603  -1.749  25.330  0.00  0.00    -0.273 OA
ATOM      4  N   UNL     1      -2.757  -1.903  24.190  0.00  0.00    -0.204 NA
ENDBRANCH   5   4
BRANCH   7  14
ATOM     14  C   UNL     1      -1.379   0.549  25.253  0.00  0.00    +0.269 C 
ATOM     15  O   UNL     1      -1.171   0.598  26.050  0.00  0.00    -0.271 OA
ATOM     16  N   UNL     1      -1.216   1.179  24.744  0.00  0.00    -0.196 NA
BRANCH  16  17
ATOM     17  C   UNL     1      -0.845   1.857  25.034  0.00  0.00    +0.176 C 
BRANCH  17  24
ATOM     24  C   UNL     1      -0.039   1.974  24.904  0.00  0.00    +0.281 C 
ATOM     25  N   UNL     1       0.258   1.985  24.134  0.00  0.00    -0.086 NA
ATOM     26  O   UNL     1       0.471   2.081  25.544  0.00  0.00    -0.270 OA
ENDBRANCH  17  24
BRANCH  17  18
ATOM     18  C   UNL     1      -1.281   2.418  25.453  0.00  0.00    +0.056 C 
BRANCH  18  19
ATOM     19  C   UNL     1      -1.443   3.151  25.115  0.00  0.00    +0.153 C 
BRANCH  19  20
ATOM     20  S   UNL     1      -2.012   3.644  25.451  0.00  0.00    -0.008 S 
ATOM     21  C   UNL     1      -2.582   4.137  25.788  0.00  0.00    +0.176 C 
ATOM     22  O   UNL     1      -2.432   3.644  24.741  0.00  0.00    -0.173 OA
ATOM     23  O   UNL     1      -1.592   3.645  26.161  0.00  0.00    -0.173 OA
ENDBRANCH  19  20
ENDBRANCH  18  19
ENDBRANCH  17  18
ENDBRANCH  16  17
ENDBRANCH   7  14
TORSDOF 7
ENDMDL
MODEL 4
REMARK VINA RESULT:      -8.6      1.918      2.503
REMARK  Name = 
REMARK  7 active torsions:
REMARK  status: ('A' for Active; 'I' for Inactive)
REMARK    1  A    between atoms: N_4  and  C_5
REMARK    2  A    between atoms: C_7  and  C_14
REMARK    3  A    between atoms: N_16  and  C_17
REMARK    4  A    between atoms: C_17  and  C_18
REMARK    5  A    between atoms: C_17  and  C_24
REMARK    6  A    between atoms: C_18  and  C_19
REMARK    7  A    between atoms: C_19  and  S_20
REMARK                            x       y       z     vdW  Elec       q    Type
REMARK                         _______ _______ _______ _____ _____    ______ ____
ROOT
ATOM      5  C   UNL     1      -2.458   2.978  24.834  0.00  0.00    +0.131 C 
ATOM      6  C   UNL     1      -1.948   2.388  25.102  0.00  0.00    +0.064 C 
ATOM      7  C   UNL     1      -1.985   1.631  24.774  0.00  0.00    +0.200 C 
ATOM      8  O   UNL     1      -1.378   1.521  25.321  0.00  0.00    -0.216 OA
ATOM      9  C   UNL     1      -2.531   1.466  24.178  0.00  0.00    +0.075 C 
ATOM     10  C   UNL     1      -3.041   2.056  23.911  0.00  0.00    +0.187 C 
ATOM     11  O   UNL     1      -3.587   1.890  23.315  0.00  0.00    -0.220 OA
ATOM     12  C   UNL     1      -3.005   2.811  24.238  0.00  0.00    +0.202 C 
ATOM     13  O   UNL     1      -3.516   3.403  23.971  0.00  0.00    -0.219 OA
ENDROOT
BRANCH   5   4
ATOM      1  C   UNL     1      -1.720   4.960  25.374  0.00  0.00    +0.096 C 
ATOM      2  C   UNL     1      -1.755   4.203  25.046  0.00  0.00    +0.242 C 
ATOM      3  O   UNL     1      -1.121   3.917  24.602  0.00  0.00    -0.273 OA
ATOM      4  N   UNL     1      -2.423   3.734  25.161  0.00  0.00    -0.204 NA
ENDBRANCH   5   4
BRANCH   7  14
ATOM     14  C   UNL     1      -1.810   0.837  24.636  0.00  0.00    +0.269 C 
ATOM     15  O   UNL     1      -1.478   0.606  23.917  0.00  0.00    -0.271 OA
ATOM     16  N   UNL     1      -1.967   0.273  25.219  0.00  0.00    -0.196 NA
BRANCH  16  17
ATOM     17  C   UNL     1      -1.792  -0.521  25.081  0.00  0.00    +0.176 C 
BRANCH  17  24
ATOM     24  C   UNL     1      -1.094  -0.847  25.373  0.00  0.00    +0.281 C 
ATOM     25  N   UNL     1      -0.519  -1.129  24.852  0.00  0.00    -0.086 NA
ATOM     26  O   UNL     1      -0.969  -0.892  26.188  0.00  0.00    -0.270 OA
ENDBRANCH  17  24
BRANCH  17  18
ATOM     18  C   UNL     1      -2.317  -0.990  24.650  0.00  0.00    +0.056 C 
BRANCH  18  19
ATOM     19  C   UNL     1      -2.785  -1.547  25.037  0.00  0.00    +0.153 C 
BRANCH  19  20
ATOM     20  S   UNL     1      -3.378  -1.946  24.624  0.00  0.00    -0.008 S 
ATOM     21  C   UNL     1      -3.971  -2.344  24.211  0.00  0.00    +0.176 C 
ATOM     22  O   UNL     1      -2.807  -2.410  24.251  0.00  0.00    -0.173 OA
ATOM     23  O   UNL     1      -3.949  -1.482  24.997  0.00  0.00    -0.173 OA
ENDBRANCH  19  20
ENDBRANCH  18  19
ENDBRANCH  17  18
ENDBRANCH  16  17
ENDBRANCH   7  14
TORSDOF 7
ENDMDL
MODEL 5
REMARK VINA RESULT:      -8.5      2.036      4.659
REMARK  Name = 
REMARK  7 active torsions:
REMARK  status: ('A' for Active; 'I' for Inactive)
REMARK    1  A    between atoms: N_4  and  C_5
REMARK    2  A    between atoms: C_7  and  C_14
REMARK    3  A    between atoms: N_16  and  C_17
REMARK    4  A    between atoms: C_17  and  C_18
REMARK    5  A    between atoms: C_17  and  C_24
REMARK    6  A    between atoms: C_18  and  C_19
REMARK    7  A    between atoms: C_19  and  S_20
REMARK                            x       y       z     vdW  Elec       q    Type
REMARK                         _______ _______ _______ _____ _____    ______ ____
ROOT
ATOM      5  C   UNL     1      -1.054   0.234  24.468  0.00  0.00    +0.131 C 
ATOM      6  C   UNL     1      -1.838   0.403  24.662  0.00  0.00    +0.064 C 
ATOM      7  C   UNL     1      -2.094   1.187  24.699  0.00  0.00    +0.200 C 
ATOM      8  O   UNL     1      -2.795   0.798  24.891  0.00  0.00    -0.216 OA
ATOM      9  C   UNL     1      -1.566   1.801  24.543  0.00  0.00    +0.075 C 
ATOM     10  C   UNL     1      -0.782   1.632  24.350  0.00  0.00    +0.187 C 
ATOM     11  O   UNL     1      -0.254   2.246  24.193  0.00  0.00    -0.220 OA
ATOM     12  C   UNL     1      -0.527   0.849  24.312  0.00  0.00    +0.202 C 
ATOM     13  O   UNL     1       0.258   0.679  24.119  0.00  0.00    -0.219 OA
ENDROOT
BRANCH   5   4
ATOM      1  C   UNL     1      -0.505  -1.788  25.079  0.00  0.00    +0.096 C 
ATOM      2  C   UNL     1      -0.762  -1.005  25.117  0.00  0.00    +0.242 C 
ATOM      3  O   UNL     1      -0.982  -0.678  25.842  0.00  0.00    -0.273 OA
ATOM      4  N   UNL     1      -0.798  -0.549  24.431  0.00  0.00    -0.204 NA
ENDBRANCH   5   4
BRANCH   7  14
ATOM     14  C   UNL     1      -2.593   1.835  24.803  0.00  0.00    +0.269 C 
ATOM     15  O   UNL     1      -2.425   2.397  25.383  0.00  0.00    -0.271 OA
ATOM     16  N   UNL     1      -3.262   1.921  24.326  0.00  0.00    -0.196 NA
BRANCH  16  17
ATOM     17  C   UNL     1      -3.761   2.570  24.430  0.00  0.00    +0.176 C 
BRANCH  17  24
ATOM     24  C   UNL     1      -3.714   3.214  23.918  0.00  0.00    +0.281 C 
ATOM     25  N   UNL     1      -3.836   3.108  23.109  0.00  0.00    -0.086 NA
ATOM     26  O   UNL     1      -3.545   3.966  24.215  0.00  0.00    -0.270 OA
ENDBRANCH  17  24
BRANCH  17  18
ATOM     18  C   UNL     1      -4.308   2.573  25.048  0.00  0.00    +0.056 C 
BRANCH  18  19
ATOM     19  C   UNL     1      -5.115   2.533  24.884  0.00  0.00    +0.153 C 
BRANCH  19  20
ATOM     20  S   UNL     1      -5.649   2.350  25.486  0.00  0.00    -0.008 S 
ATOM     21  C   UNL     1      -6.184   2.168  26.087  0.00  0.00    +0.176 C 
ATOM     22  O   UNL     1      -5.868   1.664  25.084  0.00  0.00    -0.173 OA
ATOM     23  O   UNL     1      -5.431   3.037  25.888  0.00  0.00    -0.173 OA
ENDBRANCH  19  20
ENDBRANCH  18  19
ENDBRANCH  17  18
ENDBRANCH  16  17
ENDBRANCH   7  14
TORSDOF 7
ENDMDL
MODEL 6
REMARK VINA RESULT:      -8.4      1.635      2.257
REMARK  Name = 
REMARK  7 active torsions:
REMARK  status: ('A' for Active; 'I' for Inactive)
REMARK    1  A    between atoms: N_4  and  C_5
REMARK    2  A    between atoms: C_7  and  C_14
REMARK    3  A    between atoms: N_16  and  C_17
REMARK    4  A    between atoms: C_17  and  C_18
REMARK    5  A    between atoms: C_17  and  C_24
REMARK    6  A    between atoms: C_18  and  C_19
REMARK    7  A    between atoms: C_19  and  S_20
REMARK                            x       y       z     vdW  Elec       q    Type
REMARK                         _______ _______ _______ _____ _____    ______ ____
ROOT
ATOM      5  C   UNL     1      -4.364   2.487  24.500  0.00  0.00    +0.131 C 
ATOM      6  C   UNL     1      -3.896   1.814  24.410  0.00  0.00    +0.064 C 
ATOM      7  C   UNL     1      -3.073   1.879  24.423  0.00  0.00    +0.200 C 
ATOM      8  O   UNL     1      -3.151   1.065  24.312  0.00  0.00    -0.216 OA
ATOM      9  C   UNL     1      -2.719   2.617  24.525  0.00  0.00    +0.075 C 
ATOM     10  C   UNL     1      -3.187   3.290  24.614  0.00  0.00    +0.187 C 
ATOM     11  O   UNL     1      -2.833   4.028  24.716  0.00  0.00    -0.220 OA
ATOM     12  C   UNL     1      -4.009   3.225  24.602  0.00  0.00    +0.202 C 
ATOM     13  O   UNL     1      -4.478   3.899  24.692  0.00  0.00    -0.219 OA
ENDROOT
BRANCH   5   4
ATOM      1  C   UNL     1      -6.401   1.965  25.083  0.00  0.00    +0.096 C 
ATOM      2  C   UNL     1      -5.578   2.028  25.096  0.00  0.00    +0.242 C 
ATOM      3  O   UNL     1      -5.149   1.696  25.717  0.00  0.00    -0.273 OA
ATOM      4  N   UNL     1      -5.186   2.423  24.488  0.00  0.00    -0.204 NA
ENDBRANCH   5   4
BRANCH   7  14
ATOM     14  C   UNL     1      -2.278   1.661  24.396  0.00  0.00    +0.269 C 
ATOM     15  O   UNL     1      -1.834   1.801  23.715  0.00  0.00    -0.271 OA
ATOM     16  N   UNL     1      -1.926   1.303  25.052  0.00  0.00    -0.196 NA
BRANCH  16  17
ATOM     17  C   UNL     1      -1.131   1.085  25.025  0.00  0.00    +0.176 C 
BRANCH  17  24
ATOM     24  C   UNL     1      -0.555   1.584  25.340  0.00  0.00    +0.281 C 
ATOM     25  N   UNL     1       0.046   1.877  24.857  0.00  0.00    -0.086 NA
ATOM     26  O   UNL     1      -0.581   1.792  26.139  0.00  0.00    -0.270 OA
ENDBRANCH  17  24
BRANCH  17  18
ATOM     18  C   UNL     1      -0.912   0.367  24.683  0.00  0.00    +0.056 C 
BRANCH  18  19
ATOM     19  C   UNL     1      -0.701  -0.270  25.162  0.00  0.00    +0.153 C 
BRANCH  19  20
ATOM     20  S   UNL     1      -0.698  -1.035  24.853  0.00  0.00    -0.008 S 
ATOM     21  C   UNL     1      -0.696  -1.800  24.544  0.00  0.00    +0.176 C 
ATOM     22  O   UNL     1      -0.151  -0.802  24.281  0.00  0.00    -0.173 OA
ATOM     23  O   UNL     1      -1.246  -1.267  25.425  0.00  0.00    -0.173 OA
ENDBRANCH  19  20
ENDBRANCH  18  19
ENDBRANCH  17  18
ENDBRANCH  16  17
ENDBRANCH   7  14
TORSDOF 7
ENDMDL
