MODEL 1
REMARK VINA RESULT:      -8.5      0.000      0.000
REMARK  Name = 
REMARK  11 active torsions:
REMARK  status: ('A' for Active; 'I' for Inactive)
REMARK    1  A    between atoms: O_2  and  C_3
REMARK    2  A    between atoms: C_3  and  C_5
REMARK    3  A    between atoms: C_10  and  C_11
REMARK    4  A    between atoms: C_11  and  C_12
REMARK    5  A    between atoms: C_14  and  C_15
REMARK    6  A    between atoms: C_18  and  C_19
REMARK    7  A    between atoms: C_19  and  N_20
REMARK    8  A    between atoms: C_21  and  C_23
REMARK    9  A    between atoms: C_23  and  C_24
REMARK   10  A    between atoms: C_24  and  C_25
REMARK   11  A    between atoms: C_25  and  C_26
REMARK                            x       y       z     vdW  Elec       q    Type
REMARK                         _______ _______ _______ _____ _____    ______ ____
ROOT
ATOM     12  C   UNL     1      -0.635   2.085  24.842  0.00  0.00    +0.026 C 
ATOM     13  C   UNL     1      -0.844   1.290  24.778  0.00  0.00    +0.005 C 
ATOM     14  C   UNL     1      -0.365   0.770  24.355  0.00  0.00    +0.006 C 
ATOM     18  C   UNL     1       0.325   1.045  23.996  0.00  0.00    +0.043 C 
ATOM     29  C   UNL     1       0.535   1.840  24.060  0.00  0.00    -0.033 C 
ATOM     30  C   UNL     1       0.054   2.360  24.483  0.00  0.00    -0.048 C 
ATOM     31  C   UNL     1       0.264   3.156  24.547  0.00  0.00    +0.026 C 
ENDROOT
BRANCH  14  15
ATOM     15  C   UNL     1      -0.573  -0.026  24.291  0.00  0.00    +0.000 C 
ATOM     16  C   UNL     1      -0.355  -0.559  24.881  0.00  0.00    +0.000 C 
ATOM     17  C   UNL     1      -1.001  -0.288  23.636  0.00  0.00    +0.000 C 
ENDBRANCH  14  15
BRANCH  12  11
ATOM     11  C   UNL     1      -1.116   2.606  25.265  0.00  0.00    +0.070 C 
BRANCH  11  10
ATOM      5  C   UNL     1      -4.637   2.681  24.839  0.00  0.00    +0.077 A 
ATOM      6  C   UNL     1      -4.037   2.432  25.348  0.00  0.00    +0.027 A 
ATOM      7  C   UNL     1      -3.247   2.572  25.154  0.00  0.00    +0.100 A 
ATOM      8  C   UNL     1      -3.057   2.959  24.452  0.00  0.00    +0.100 A 
ATOM      9  N   UNL     1      -2.236   3.020  24.408  0.00  0.00    -0.229 NA
ATOM     10  C   UNL     1      -1.917   2.669  25.083  0.00  0.00    +0.139 A 
ATOM     32  N   UNL     1      -2.543   2.392  25.545  0.00  0.00    -0.229 NA
ATOM     33  C   UNL     1      -3.657   3.208  23.942  0.00  0.00    +0.021 A 
ATOM     34  C   UNL     1      -4.446   3.069  24.136  0.00  0.00    +0.008 A 
BRANCH   5   3
ATOM      3  C   UNL     1      -5.426   2.541  25.033  0.00  0.00    +0.341 C 
ATOM      4  O   UNL     1      -5.843   3.090  25.486  0.00  0.00    -0.245 OA
BRANCH   3   2
ATOM      1  C   UNL     1      -6.576   1.693  25.001  0.00  0.00    +0.256 C 
ATOM      2  O   UNL     1      -5.799   1.852  24.773  0.00  0.00    -0.441 OA
ENDBRANCH   3   2
ENDBRANCH   5   3
ENDBRANCH  11  10
ENDBRANCH  12  11
BRANCH  18  19
ATOM     19  C   UNL     1       0.806   0.524  23.573  0.00  0.00    +0.119 C 
BRANCH  19  20
ATOM     20  N   UNL     1       1.554   0.766  23.321  0.00  0.00    -0.205 NA
ATOM     21  C   UNL     1       2.009   0.269  22.844  0.00  0.00    +0.241 C 
ATOM     22  O   UNL     1       1.716  -0.468  22.619  0.00  0.00    -0.273 OA
BRANCH  21  23
ATOM     23  C   UNL     1       2.756   0.511  22.592  0.00  0.00    +0.087 C 
BRANCH  23  24
ATOM     24  C   UNL     1       3.429   0.258  22.998  0.00  0.00    +0.021 C 
BRANCH  24  25
ATOM     25  C   UNL     1       4.167   0.575  22.809  0.00  0.00    +0.115 C 
BRANCH  25  26
ATOM     26  C   UNL     1       4.826   0.391  23.272  0.00  0.00    +0.365 C 
ATOM     27  O   UNL     1       5.079   0.917  23.855  0.00  0.00    -0.246 OA
ATOM     28  O   UNL     1       5.230  -0.318  23.151  0.00  0.00    -0.246 OA
ENDBRANCH  25  26
ENDBRANCH  24  25
ENDBRANCH  23  24
ENDBRANCH  21  23
ENDBRANCH  19  20
ENDBRANCH  18  19
TORSDOF 11
ENDMDL
MODEL 2
REMARK VINA RESULT:      -7.8      1.237      1.855
REMARK  Name = 
REMARK  11 active torsions:
REMARK  status: ('A' for Active; 'I' for Inactive)
REMARK    1  A    between atoms: O_2  and  C_3
REMARK    2  A    between atoms: C_3  and  C_5
REMARK    3  A    between atoms: C_10  and  C_11
REMARK    4  A    between atoms: C_11  and  C_12
REMARK    5  A    between atoms: C_14  and  C_15
REMARK    6  A    between atoms: C_18  and  C_19
REMARK    7  A    between atoms: C_19  and  N_20
REMARK    8  A    between atoms: C_21  and  C_23
REMARK    9  A    between atoms: C_23  and  C_24
REMARK   10  A    between atoms: C_24  and  C_25
REMARK   11  A    between atoms: C_25  and  C_26
REMARK                            x       y       z     vdW  Elec       q    Type
REMARK                         _______ _______ _______ _____ _____    ______ ____
ROOT
ATOM     12  C   UNL     1      -2.153   2.314  23.535  0.00  0.00    +0.026 C 
ATOM     13  C   UNL     1      -1.768   2.294  24.264  0.00  0.00    +0.005 C 
ATOM     14  C   UNL     1      -1.143   1.771  24.387  0.00  0.00    +0.006 C 
ATOM     18  C   UNL     1      -0.901   1.268  23.780  0.00  0.00    +0.043 C 
ATOM     29  C   UNL     1      -1.285   1.287  23.050  0.00  0.00    -0.033 C 
ATOM     30  C   UNL     1      -1.911   1.810  22.928  0.00  0.00    -0.048 C 
ATOM     31  C   UNL     1      -2.296   1.829  22.198  0.00  0.00    +0.026 C 
ENDROOT
BRANCH  14  15
ATOM     15  C   UNL     1      -0.757   1.752  25.116  0.00  0.00    +0.000 C 
ATOM     16  C   UNL     1      -0.161   2.296  25.283  0.00  0.00    +0.000 C 
ATOM     17  C   UNL     1      -0.970   1.187  25.679  0.00  0.00    +0.000 C 
ENDBRANCH  14  15
BRANCH  12  11
ATOM     11  C   UNL     1      -2.779   2.836  23.412  0.00  0.00    +0.070 C 
BRANCH  11  10
ATOM      5  C   UNL     1      -5.586   2.512  25.556  0.00  0.00    +0.077 A 
ATOM      6  C   UNL     1      -5.129   2.111  24.999  0.00  0.00    +0.027 A 
ATOM      7  C   UNL     1      -4.485   2.486  24.645  0.00  0.00    +0.100 A 
ATOM      8  C   UNL     1      -4.299   3.263  24.849  0.00  0.00    +0.100 A 
ATOM      9  N   UNL     1      -3.637   3.489  24.411  0.00  0.00    -0.229 NA
ATOM     10  C   UNL     1      -3.414   2.851  23.937  0.00  0.00    +0.139 A 
ATOM     32  N   UNL     1      -3.939   2.232  24.082  0.00  0.00    -0.229 NA
ATOM     33  C   UNL     1      -4.756   3.666  25.406  0.00  0.00    +0.021 A 
ATOM     34  C   UNL     1      -5.399   3.290  25.760  0.00  0.00    +0.008 A 
BRANCH   5   3
ATOM      3  C   UNL     1      -6.230   2.136  25.910  0.00  0.00    +0.341 C 
ATOM      4  O   UNL     1      -6.840   1.836  25.443  0.00  0.00    -0.245 OA
BRANCH   3   2
ATOM      1  C   UNL     1      -6.779   1.516  27.075  0.00  0.00    +0.256 C 
ATOM      2  O   UNL     1      -6.263   2.061  26.731  0.00  0.00    -0.441 OA
ENDBRANCH   3   2
ENDBRANCH   5   3
ENDBRANCH  11  10
ENDBRANCH  12  11
BRANCH  18  19
ATOM     19  C   UNL     1      -0.274   0.744  23.902  0.00  0.00    +0.119 C 
BRANCH  19  20
ATOM     20  N   UNL     1       0.328   0.685  23.342  0.00  0.00    -0.205 NA
ATOM     21  C   UNL     1       0.762  -0.014  23.275  0.00  0.00    +0.241 C 
ATOM     22  O   UNL     1       0.593  -0.653  23.769  0.00  0.00    -0.273 OA
BRANCH  21  23
ATOM     23  C   UNL     1       1.365  -0.073  22.715  0.00  0.00    +0.087 C 
BRANCH  23  24
ATOM     24  C   UNL     1       2.145   0.094  22.930  0.00  0.00    +0.021 C 
BRANCH  24  25
ATOM     25  C   UNL     1       2.733   0.122  22.353  0.00  0.00    +0.115 C 
BRANCH  25  26
ATOM     26  C   UNL     1       3.506   0.324  22.563  0.00  0.00    +0.365 C 
ATOM     27  O   UNL     1       3.823   1.046  22.321  0.00  0.00    -0.246 OA
ATOM     28  O   UNL     1       3.961  -0.197  23.013  0.00  0.00    -0.246 OA
ENDBRANCH  25  26
ENDBRANCH  24  25
ENDBRANCH  23  24
ENDBRANCH  21  23
ENDBRANCH  19  20
ENDBRANCH  18  19
TORSDOF 11
ENDMDL
MODEL 3
REMARK VINA RESULT:      -7.6      1.309      2.108
REMARK  Name = 
REMARK  11 active torsions:
REMARK  status: ('A' for Active; 'I' for Inactive)
REMARK    1  A    between atoms: O_2  and  C_3
REMARK    2  A    between atoms: C_3  and  C_5
REMARK    3  A    between atoms: C_10  and  C_11
REMARK    4  A    between atoms: C_11  and  C_12
REMARK    5  A    between atoms: C_14  and  C_15
REMARK    6  A    between atoms: C_18  and  C_19
REMARK    7  A    between atoms: C_19  and  N_20
REMARK    8  A    between atoms: C_21  and  C_23
REMARK    9  A    between atoms: C_23  and  C_24
REMARK   10  A    between atoms: C_24  and  C_25
REMARK   11  A    between atoms: C_25  and  C_26
REMARK                            x       y       z     vdW  Elec       q    Type
REMARK                         _______ _______ _______ _____ _____    ______ ____
ROOT
ATOM     12  C   UNL     1      -1.059  -0.374  24.733  0.00  0.00    +0.026 C 
ATOM     13  C   UNL     1      -0.925   0.420  24.557  0.00  0.00    +0.005 C 
ATOM     14  C   UNL     1      -0.297   0.634  24.068  0.00  0.00    +0.006 C 
ATOM     18  C   UNL     1       0.198   0.053  23.756  0.00  0.00    +0.043 C 
ATOM     29  C   UNL     1       0.065  -0.742  23.931  0.00  0.00    -0.033 C 
ATOM     30  C   UNL     1      -0.564  -0.955  24.420  0.00  0.00    -0.048 C 
ATOM     31  C   UNL     1      -0.698  -1.750  24.597  0.00  0.00    +0.026 C 
ENDROOT
BRANCH  14  15
ATOM     15  C   UNL     1      -0.162   1.429  23.892  0.00  0.00    +0.000 C 
ATOM     16  C   UNL     1       0.320   1.885  24.381  0.00  0.00    +0.000 C 
ATOM     17  C   UNL     1      -0.511   1.767  23.225  0.00  0.00    +0.000 C 
ENDBRANCH  14  15
BRANCH  12  11
ATOM     11  C   UNL     1      -1.688  -0.588  25.222  0.00  0.00    +0.070 C 
BRANCH  11  10
ATOM      5  C   UNL     1      -4.754   1.190  25.057  0.00  0.00    +0.077 A 
ATOM      6  C   UNL     1      -4.013   1.180  25.421  0.00  0.00    +0.027 A 
ATOM      7  C   UNL     1      -3.470   0.587  25.235  0.00  0.00    +0.100 A 
ATOM      8  C   UNL     1      -3.668   0.004  24.686  0.00  0.00    +0.100 A 
ATOM      9  N   UNL     1      -3.025  -0.507  24.614  0.00  0.00    -0.229 NA
ATOM     10  C   UNL     1      -2.429  -0.240  25.119  0.00  0.00    +0.139 A 
ATOM     32  N   UNL     1      -2.705   0.436  25.503  0.00  0.00    -0.229 NA
ATOM     33  C   UNL     1      -4.408   0.014  24.322  0.00  0.00    +0.021 A 
ATOM     34  C   UNL     1      -4.951   0.607  24.507  0.00  0.00    +0.008 A 
BRANCH   5   3
ATOM      3  C   UNL     1      -5.296   1.783  25.243  0.00  0.00    +0.341 C 
ATOM      4  O   UNL     1      -6.027   1.585  25.569  0.00  0.00    -0.245 OA
BRANCH   3   2
ATOM      1  C   UNL     1      -5.562   3.173  25.439  0.00  0.00    +0.256 C 
ATOM      2  O   UNL     1      -5.107   2.574  25.101  0.00  0.00    -0.441 OA
ENDBRANCH   3   2
ENDBRANCH   5   3
ENDBRANCH  11  10
ENDBRANCH  12  11
BRANCH  18  19
ATOM     19  C   UNL     1       0.828   0.267  23.266  0.00  0.00    +0.119 C 
BRANCH  19  20
ATOM     20  N   UNL     1       1.574  -0.065  23.386  0.00  0.00    -0.205 NA
ATOM     21  C   UNL     1       2.130  -0.059  22.776  0.00  0.00    +0.241 C 
ATOM     22  O   UNL     1       1.941   0.279  22.048  0.00  0.00    -0.273 OA
BRANCH  21  23
ATOM     23  C   UNL     1       2.876  -0.391  22.895  0.00  0.00    +0.087 C 
BRANCH  23  24
ATOM     24  C   UNL     1       3.541   0.095  22.943  0.00  0.00    +0.021 C 
BRANCH  24  25
ATOM     25  C   UNL     1       4.229  -0.182  23.304  0.00  0.00    +0.115 C 
BRANCH  25  26
ATOM     26  C   UNL     1       4.920   0.270  23.276  0.00  0.00    +0.365 C 
ATOM     27  O   UNL     1       5.530   0.056  22.765  0.00  0.00    -0.246 OA
ATOM     28  O   UNL     1       4.999   0.934  23.759  0.00  0.00    -0.246 OA
ENDBRANCH  25  26
ENDBRANCH  24  25
ENDBRANCH  23  24
ENDBRANCH  21  23
ENDBRANCH  19  20
ENDBRANCH  18  19
TORSDOF 11
ENDMDL
MODEL 4
REMARK VINA RESULT:      -7.3      1.073      6.929
REMARK  Name = 
REMARK  11 active torsions:
REMARK  status: ('A' for Active; 'I' for Inactive)
REMARK    1  A    between atoms: O_2  and  C_3
REMARK    2  A    between atoms: C_3  and  C_5
REMARK    3  A    between atoms: C_10  and  C_11
REMARK    4  A    between atoms: C_11  and  C_12
REMARK    5  A    between atoms: C_14  and  C_15
REMARK    6  A    between atoms: C_18  and  C_19
REMARK    7  A    between atoms: C_19  and  N_20
REMARK    8  A    between atoms: C_21  and  C_23
REMARK    9  A    between atoms: C_23  and  C_24
REMARK   10  A    between atoms: C_24  and  C_25
REMARK   11  A    between atoms: C_25  and  C_26
REMARK                            x       y       z     vdW  Elec       q    Type
REMARK                         _______ _______ _______ _____ _____    ______ ____
ROOT
ATOM     12  C   UNL     1      -0.878   0.652  24.528  0.00  0.00    +0.026 C 
ATOM     13  C   UNL     1      -0.463   1.319  24.778  0.00  0.00    +0.005 C 
ATOM     14  C   UNL     1      -0.870   2.011  24.967  0.00  0.00    +0.006 C 
ATOM     18  C   UNL     1      -1.692   2.035  24.907  0.00  0.00    +0.043 C 
ATOM     29  C   UNL     1      -2.108   1.368  24.657  0.00  0.00    -0.033 C 
ATOM     30  C   UNL     1      -1.701   0.676  24.468  0.00  0.00    -0.048 C 
ATOM     31  C   UNL     1      -2.116   0.008  24.218  0.00  0.00    +0.026 C 
ENDROOT
BRANCH  14  15
ATOM     15  C   UNL     1      -0.455   2.679  25.217  0.00  0.00    +0.000 C 
ATOM     16  C   UNL     1      -0.226   2.752  26.005  0.00  0.00    +0.000 C 
ATOM     17  C   UNL     1      -0.269   3.274  24.677  0.00  0.00    +0.000 C 
ENDBRANCH  14  15
BRANCH  12  11
ATOM     11  C   UNL     1      -0.471  -0.041  24.339  0.00  0.00    +0.070 C 
BRANCH  11  10
ATOM      5  C   UNL     1       2.618   0.232  22.617  0.00  0.00    +0.077 A 
ATOM      6  C   UNL     1       2.258   0.338  23.352  0.00  0.00    +0.027 A 
ATOM      7  C   UNL     1       1.455   0.176  23.445  0.00  0.00    +0.100 A 
ATOM      8  C   UNL     1       1.011  -0.092  22.804  0.00  0.00    +0.100 A 
ATOM      9  N   UNL     1       0.235  -0.206  23.060  0.00  0.00    -0.229 NA
ATOM     10  C   UNL     1       0.199  -0.008  23.861  0.00  0.00    +0.139 A 
ATOM     32  N   UNL     1       0.954   0.227  24.098  0.00  0.00    -0.229 NA
ATOM     33  C   UNL     1       1.370  -0.198  22.068  0.00  0.00    +0.021 A 
ATOM     34  C   UNL     1       2.174  -0.036  21.975  0.00  0.00    +0.008 A 
BRANCH   5   3
ATOM      3  C   UNL     1       3.422   0.394  22.523  0.00  0.00    +0.341 C 
ATOM      4  O   UNL     1       3.671   0.912  21.932  0.00  0.00    -0.245 OA
BRANCH   3   2
ATOM      1  C   UNL     1       4.760   0.290  23.012  0.00  0.00    +0.256 C 
ATOM      2  O   UNL     1       3.975   0.038  23.022  0.00  0.00    -0.441 OA
ENDBRANCH   3   2
ENDBRANCH   5   3
ENDBRANCH  11  10
ENDBRANCH  12  11
BRANCH  18  19
ATOM     19  C   UNL     1      -2.100   2.728  25.096  0.00  0.00    +0.119 C 
BRANCH  19  20
ATOM     20  N   UNL     1      -2.904   2.792  24.924  0.00  0.00    -0.205 NA
ATOM     21  C   UNL     1      -3.353   3.392  25.270  0.00  0.00    +0.241 C 
ATOM     22  O   UNL     1      -2.997   3.926  25.789  0.00  0.00    -0.273 OA
BRANCH  21  23
ATOM     23  C   UNL     1      -4.157   3.457  25.098  0.00  0.00    +0.087 C 
BRANCH  23  24
ATOM     24  C   UNL     1      -4.716   3.141  25.617  0.00  0.00    +0.021 C 
BRANCH  24  25
ATOM     25  C   UNL     1      -5.503   3.067  25.379  0.00  0.00    +0.115 C 
BRANCH  25  26
ATOM     26  C   UNL     1      -5.980   2.481  25.711  0.00  0.00    +0.365 C 
ATOM     27  O   UNL     1      -6.313   1.900  25.230  0.00  0.00    -0.246 OA
ATOM     28  O   UNL     1      -6.124   2.478  26.523  0.00  0.00    -0.246 OA
ENDBRANCH  25  26
ENDBRANCH  24  25
ENDBRANCH  23  24
ENDBRANCH  21  23
ENDBRANCH  19  20
ENDBRANCH  18  19
TORSDOF 11
ENDMDL
MODEL 5
REMARK VINA RESULT:      -6.9      1.866      6.811
REMARK  Name = 
REMARK  11 active torsions:
REMARK  status: ('A' for Active; 'I' for Inactive)
REMARK    1  A    between atoms: O_2  and  C_3
REMARK    2  A    between atoms: C_3  and  C_5
REMARK    3  A    between atoms: C_10  and  C_11
REMARK    4  A    between atoms: C_11  and  C_12
REMARK    5  A    between atoms: C_14  and  C_15
REMARK    6  A    between atoms: C_18  and  C_19
REMARK    7  A    between atoms: C_19  and  N_20
REMARK    8  A    between atoms: C_21  and  C_23
REMARK    9  A    between atoms: C_23  and  C_24
REMARK   10  A    between atoms: C_24  and  C_25
REMARK   11  A    between atoms: C_25  and  C_26
REMARK                            x       y       z     vdW  Elec       q    Type
REMARK                         _______ _______ _______ _____ _____    ______ ____
ROOT
ATOM     12  C   UNL     1      -2.037  -0.891  25.101  0.00  0.00    +0.026 C 
ATOM     13  C   UNL     1      -2.511  -1.096  24.458  0.00  0.00    +0.005 C 
ATOM     14  C   UNL     1      -3.296  -0.846  24.428  0.00  0.00    +0.006 C 
ATOM     18  C   UNL     1      -3.608  -0.392  25.042  0.00  0.00    +0.043 C 
ATOM     29  C   UNL     1      -3.134  -0.187  25.685  0.00  0.00    -0.033 C 
ATOM     30  C   UNL     1      -2.349  -0.437  25.715  0.00  0.00    -0.048 C 
ATOM     31  C   UNL     1      -1.875  -0.231  26.359  0.00  0.00    +0.026 C 
ENDROOT
BRANCH  14  15
ATOM     15  C   UNL     1      -3.770  -1.051  23.785  0.00  0.00    +0.000 C 
ATOM     16  C   UNL     1      -4.241  -1.727  23.817  0.00  0.00    +0.000 C 
ATOM     17  C   UNL     1      -3.773  -0.578  23.108  0.00  0.00    +0.000 C 
ENDBRANCH  14  15
BRANCH  12  11
ATOM     11  C   UNL     1      -1.251  -1.140  25.131  0.00  0.00    +0.070 C 
BRANCH  11  10
ATOM      5  C   UNL     1       1.277   0.047  22.944  0.00  0.00    +0.077 A 
ATOM      6  C   UNL     1       0.889  -0.634  23.198  0.00  0.00    +0.027 A 
ATOM      7  C   UNL     1       0.294  -0.583  23.767  0.00  0.00    +0.100 A 
ATOM      8  C   UNL     1       0.087   0.150  24.082  0.00  0.00    +0.100 A 
ATOM      9  N   UNL     1      -0.517   0.031  24.631  0.00  0.00    -0.229 NA
ATOM     10  C   UNL     1      -0.684  -0.777  24.656  0.00  0.00    +0.139 A 
ATOM     32  N   UNL     1      -0.182  -1.156  24.122  0.00  0.00    -0.229 NA
ATOM     33  C   UNL     1       0.475   0.833  23.828  0.00  0.00    +0.021 A 
ATOM     34  C   UNL     1       1.070   0.782  23.259  0.00  0.00    +0.008 A 
BRANCH   5   3
ATOM      3  C   UNL     1       1.872  -0.004  22.375  0.00  0.00    +0.341 C 
ATOM      4  O   UNL     1       1.695  -0.276  21.617  0.00  0.00    -0.245 OA
BRANCH   3   2
ATOM      1  C   UNL     1       3.243   0.146  22.002  0.00  0.00    +0.256 C 
ATOM      2  O   UNL     1       2.644   0.217  22.565  0.00  0.00    -0.441 OA
ENDBRANCH   3   2
ENDBRANCH   5   3
ENDBRANCH  11  10
ENDBRANCH  12  11
BRANCH  18  19
ATOM     19  C   UNL     1      -4.394  -0.142  25.012  0.00  0.00    +0.119 C 
BRANCH  19  20
ATOM     20  N   UNL     1      -4.639   0.501  25.467  0.00  0.00    -0.205 NA
ATOM     21  C   UNL     1      -5.326   0.912  25.263  0.00  0.00    +0.241 C 
ATOM     22  O   UNL     1      -5.766   0.680  24.605  0.00  0.00    -0.273 OA
BRANCH  21  23
ATOM     23  C   UNL     1      -5.571   1.555  25.718  0.00  0.00    +0.087 C 
BRANCH  23  24
ATOM     24  C   UNL     1      -5.533   2.319  25.406  0.00  0.00    +0.021 C 
BRANCH  24  25
ATOM     25  C   UNL     1      -5.482   2.968  25.912  0.00  0.00    +0.115 C 
BRANCH  25  26
ATOM     26  C   UNL     1      -5.401   3.729  25.599  0.00  0.00    +0.365 C 
ATOM     27  O   UNL     1      -4.711   3.938  25.199  0.00  0.00    -0.246 OA
ATOM     28  O   UNL     1      -6.010   4.278  25.688  0.00  0.00    -0.246 OA
ENDBRANCH  25  26
ENDBRANCH  24  25
ENDBRANCH  23  24
ENDBRANCH  21  23
ENDBRANCH  19  20
ENDBRANCH  18  19
TORSDOF 11
ENDMDL
MODEL 6
REMARK VINA RESULT:      -6.9      3.221      5.105
REMARK  Name = 
REMARK  11 active torsions:
REMARK  status: ('A' for Active; 'I' for Inactive)
REMARK    1  A    between atoms: O_2  and  C_3
REMARK    2  A    between atoms: C_3  and  C_5
REMARK    3  A    between atoms: C_10  and  C_11
REMARK    4  A    between atoms: C_11  and  C_12
REMARK    5  A    between atoms: C_14  and  C_15
REMARK    6  A    between atoms: C_18  and  C_19
REMARK    7  A    between atoms: C_19  and  N_20
REMARK    8  A    between atoms: C_21  and  C_23
REMARK    9  A    between atoms: C_23  and  C_24
REMARK   10  A    between atoms: C_24  and  C_25
REMARK   11  A    between atoms: C_25  and  C_26
REMARK                            x       y       z     vdW  Elec       q    Type
REMARK                         _______ _______ _______ _____ _____    ______ ____
ROOT
ATOM     12  C   UNL     1      -4.557   1.786  24.730  0.00  0.00    +0.026 C 
ATOM     13  C   UNL     1      -4.197   1.919  24.001  0.00  0.00    +0.005 C 
ATOM     14  C   UNL     1      -3.709   2.575  23.896  0.00  0.00    +0.006 C 
ATOM     18  C   UNL     1      -3.580   3.098  24.520  0.00  0.00    +0.043 C 
ATOM     29  C   UNL     1      -3.940   2.965  25.251  0.00  0.00    -0.033 C 
ATOM     30  C   UNL     1      -4.429   2.309  25.355  0.00  0.00    -0.048 C 
ATOM     31  C   UNL     1      -4.789   2.175  26.086  0.00  0.00    +0.026 C 
ENDROOT
BRANCH  14  15
ATOM     15  C   UNL     1      -3.348   2.709  23.165  0.00  0.00    +0.000 C 
ATOM     16  C   UNL     1      -3.654   3.276  22.651  0.00  0.00    +0.000 C 
ATOM     17  C   UNL     1      -2.680   2.274  22.950  0.00  0.00    +0.000 C 
ENDBRANCH  14  15
BRANCH  12  11
ATOM     11  C   UNL     1      -5.046   1.129  24.836  0.00  0.00    +0.070 C 
BRANCH  11  10
ATOM      5  C   UNL     1      -3.520  -2.065  24.614  0.00  0.00    +0.077 A 
ATOM      6  C   UNL     1      -3.512  -1.356  25.035  0.00  0.00    +0.027 A 
ATOM      7  C   UNL     1      -4.032  -0.749  24.831  0.00  0.00    +0.100 A 
ATOM      8  C   UNL     1      -4.560  -0.851  24.206  0.00  0.00    +0.100 A 
ATOM      9  N   UNL     1      -5.005  -0.160  24.131  0.00  0.00    -0.229 NA
ATOM     10  C   UNL     1      -4.751   0.370  24.711  0.00  0.00    +0.139 A 
ATOM     32  N   UNL     1      -4.150   0.006  25.143  0.00  0.00    -0.229 NA
ATOM     33  C   UNL     1      -4.569  -1.561  23.784  0.00  0.00    +0.021 A 
ATOM     34  C   UNL     1      -4.049  -2.168  23.989  0.00  0.00    +0.008 A 
BRANCH   5   3
ATOM      3  C   UNL     1      -3.000  -2.673  24.818  0.00  0.00    +0.341 C 
ATOM      4  O   UNL     1      -3.246  -3.272  25.328  0.00  0.00    -0.245 OA
BRANCH   3   2
ATOM      1  C   UNL     1      -1.614  -2.988  24.960  0.00  0.00    +0.256 C 
ATOM      2  O   UNL     1      -2.234  -2.679  24.512  0.00  0.00    -0.441 OA
ENDBRANCH   3   2
ENDBRANCH   5   3
ENDBRANCH  11  10
ENDBRANCH  12  11
BRANCH  18  19
ATOM     19  C   UNL     1      -3.091   3.755  24.415  0.00  0.00    +0.119 C 
BRANCH  19  20
ATOM     20  N   UNL     1      -2.312   3.736  24.687  0.00  0.00    -0.205 NA
ATOM     21  C   UNL     1      -1.963   4.422  24.985  0.00  0.00    +0.241 C 
ATOM     22  O   UNL     1      -2.393   5.126  25.012  0.00  0.00    -0.273 OA
BRANCH  21  23
ATOM     23  C   UNL     1      -1.185   4.403  25.257  0.00  0.00    +0.087 C 
BRANCH  23  24
ATOM     24  C   UNL     1      -0.903   3.736  25.654  0.00  0.00    +0.021 C 
BRANCH  24  25
ATOM     25  C   UNL     1      -0.110   3.519  25.583  0.00  0.00    +0.115 C 
BRANCH  25  26
ATOM     26  C   UNL     1       0.150   2.799  25.892  0.00  0.00    +0.365 C 
ATOM     27  O   UNL     1       0.054   2.638  26.696  0.00  0.00    -0.246 OA
ATOM     28  O   UNL     1       0.505   2.242  25.399  0.00  0.00    -0.246 OA
ENDBRANCH  25  26
ENDBRANCH  24  25
ENDBRANCH  23  24
ENDBRANCH  21  23
ENDBRANCH  19  20
ENDBRANCH  18  19
TORSDOF 11
ENDMDL
MODEL 7
REMARK VINA RESULT:      -6.7      3.017      5.703
REMARK  Name = 
REMARK  11 active torsions:
REMARK  status: ('A' for Active; 'I' for Inactive)
REMARK    1  A    between atoms: O_2  and  C_3
REMARK    2  A    between atoms: C_3  and  C_5
REMARK    3  A    between atoms: C_10  and  C_11
REMARK    4  A    between atoms: C_11  and  C_12
REMARK    5  A    between atoms: C_14  and  C_15
REMARK    6  A    between atoms: C_18  and  C_19
REMARK    7  A    between atoms: C_19  and  N_20
REMARK    8  A    between atoms: C_21  and  C_23
REMARK    9  A    between atoms: C_23  and  C_24
REMARK   10  A    between atoms: C_24  and  C_25
REMARK   11  A    between atoms: C_25  and  C_26
REMARK                            x       y       z     vdW  Elec       q    Type
REMARK                         _______ _______ _______ _____ _____    ______ ____
ROOT
ATOM     12  C   UNL     1      -0.523   1.405  24.278  0.00  0.00    +0.026 C 
ATOM     13  C   UNL     1      -0.250   1.556  25.041  0.00  0.00    +0.005 C 
ATOM     14  C   UNL     1      -0.449   2.261  25.419  0.00  0.00    +0.006 C 
ATOM     18  C   UNL     1      -0.923   2.816  25.033  0.00  0.00    +0.043 C 
ATOM     29  C   UNL     1      -1.197   2.665  24.270  0.00  0.00    -0.033 C 
ATOM     30  C   UNL     1      -0.997   1.959  23.893  0.00  0.00    -0.048 C 
ATOM     31  C   UNL     1      -1.271   1.809  23.129  0.00  0.00    +0.026 C 
ENDROOT
BRANCH  14  15
ATOM     15  C   UNL     1      -0.175   2.412  26.183  0.00  0.00    +0.000 C 
ATOM     16  C   UNL     1       0.510   2.856  26.295  0.00  0.00    +0.000 C 
ATOM     17  C   UNL     1      -0.589   2.119  26.834  0.00  0.00    +0.000 C 
ENDBRANCH  14  15
BRANCH  12  11
ATOM     11  C   UNL     1      -0.324   0.699  23.900  0.00  0.00    +0.070 C 
BRANCH  11  10
ATOM      5  C   UNL     1      -2.285  -2.148  24.696  0.00  0.00    +0.077 A 
ATOM      6  C   UNL     1      -2.323  -1.381  24.395  0.00  0.00    +0.027 A 
ATOM      7  C   UNL     1      -1.636  -0.930  24.326  0.00  0.00    +0.100 A 
ATOM      8  C   UNL     1      -0.911  -1.245  24.559  0.00  0.00    +0.100 A 
ATOM      9  N   UNL     1      -0.331  -0.673  24.428  0.00  0.00    -0.229 NA
ATOM     10  C   UNL     1      -0.698  -0.004  24.113  0.00  0.00    +0.139 A 
ATOM     32  N   UNL     1      -1.505  -0.163  24.051  0.00  0.00    -0.229 NA
ATOM     33  C   UNL     1      -0.871  -2.012  24.860  0.00  0.00    +0.021 A 
ATOM     34  C   UNL     1      -1.558  -2.464  24.929  0.00  0.00    +0.008 A 
BRANCH   5   3
ATOM      3  C   UNL     1      -2.972  -2.600  24.765  0.00  0.00    +0.341 C 
ATOM      4  O   UNL     1      -3.285  -2.762  25.510  0.00  0.00    -0.245 OA
BRANCH   3   2
ATOM      1  C   UNL     1      -4.153  -3.051  24.099  0.00  0.00    +0.256 C 
ATOM      2  O   UNL     1      -3.344  -2.889  24.087  0.00  0.00    -0.441 OA
ENDBRANCH   3   2
ENDBRANCH   5   3
ENDBRANCH  11  10
ENDBRANCH  12  11
BRANCH  18  19
ATOM     19  C   UNL     1      -1.122   3.522  25.411  0.00  0.00    +0.119 C 
BRANCH  19  20
ATOM     20  N   UNL     1      -1.914   3.696  25.568  0.00  0.00    -0.205 NA
ATOM     21  C   UNL     1      -2.172   4.480  25.564  0.00  0.00    +0.241 C 
ATOM     22  O   UNL     1      -1.639   5.089  25.404  0.00  0.00    -0.273 OA
BRANCH  21  23
ATOM     23  C   UNL     1      -2.963   4.654  25.720  0.00  0.00    +0.087 C 
BRANCH  23  24
ATOM     24  C   UNL     1      -3.529   4.054  25.695  0.00  0.00    +0.021 C 
BRANCH  24  25
ATOM     25  C   UNL     1      -4.328   4.244  25.613  0.00  0.00    +0.115 C 
BRANCH  25  26
ATOM     26  C   UNL     1      -4.892   3.643  25.562  0.00  0.00    +0.365 C 
ATOM     27  O   UNL     1      -5.314   3.418  26.234  0.00  0.00    -0.246 OA
ATOM     28  O   UNL     1      -5.032   3.269  24.841  0.00  0.00    -0.246 OA
ENDBRANCH  25  26
ENDBRANCH  24  25
ENDBRANCH  23  24
ENDBRANCH  21  23
ENDBRANCH  19  20
ENDBRANCH  18  19
TORSDOF 11
ENDMDL
MODEL 8
REMARK VINA RESULT:      -5.7     14.707     15.677
REMARK  Name = 
REMARK  11 active torsions:
REMARK  status: ('A' for Active; 'I' for Inactive)
REMARK    1  A    between atoms: O_2  and  C_3
REMARK    2  A    between atoms: C_3  and  C_5
REMARK    3  A    between atoms: C_10  and  C_11
REMARK    4  A    between atoms: C_11  and  C_12
REMARK    5  A    between atoms: C_14  and  C_15
REMARK    6  A    between atoms: C_18  and  C_19
REMARK    7  A    between atoms: C_19  and  N_20
REMARK    8  A    between atoms: C_21  and  C_23
REMARK    9  A    between atoms: C_23  and  C_24
REMARK   10  A    between atoms: C_24  and  C_25
REMARK   11  A    between atoms: C_25  and  C_26
REMARK                            x       y       z     vdW  Elec       q    Type
REMARK                         _______ _______ _______ _____ _____    ______ ____
ROOT
ATOM     12  C   UNL     1      -5.214 -10.279  15.680  0.00  0.00    +0.026 C 
ATOM     13  C   UNL     1      -5.735 -10.173  15.051  0.00  0.00    +0.005 C 
ATOM     14  C   UNL     1      -5.465 -10.239  14.275  0.00  0.00    +0.006 C 
ATOM     18  C   UNL     1      -4.671 -10.411  14.129  0.00  0.00    +0.043 C 
ATOM     29  C   UNL     1      -4.148 -10.517  14.758  0.00  0.00    -0.033 C 
ATOM     30  C   UNL     1      -4.420 -10.451  15.534  0.00  0.00    -0.048 C 
ATOM     31  C   UNL     1      -3.898 -10.557  16.164  0.00  0.00    +0.026 C 
ENDROOT
BRANCH  14  15
ATOM     15  C   UNL     1      -5.986 -10.133  13.645  0.00  0.00    +0.000 C 
ATOM     16  C   UNL     1      -6.107  -9.381  13.330  0.00  0.00    +0.000 C 
ATOM     17  C   UNL     1      -6.388 -10.781  13.329  0.00  0.00    +0.000 C 
ENDBRANCH  14  15
BRANCH  12  11
ATOM     11  C   UNL     1      -5.485 -10.213  16.457  0.00  0.00    +0.070 C 
BRANCH  11  10
ATOM      5  C   UNL     1      -8.826  -9.203  17.093  0.00  0.00    +0.077 A 
ATOM      6  C   UNL     1      -8.061  -8.920  16.966  0.00  0.00    +0.027 A 
ATOM      7  C   UNL     1      -7.441  -9.449  16.836  0.00  0.00    +0.100 A 
ATOM      8  C   UNL     1      -7.586 -10.260  16.832  0.00  0.00    +0.100 A 
ATOM      9  N   UNL     1      -6.870 -10.646  16.690  0.00  0.00    -0.229 NA
ATOM     10  C   UNL     1      -6.283 -10.072  16.605  0.00  0.00    +0.139 A 
ATOM     32  N   UNL     1      -6.637  -9.332  16.696  0.00  0.00    -0.229 NA
ATOM     33  C   UNL     1      -8.350 -10.545  16.959  0.00  0.00    +0.021 A 
ATOM     34  C   UNL     1      -8.970 -10.016  17.090  0.00  0.00    +0.008 A 
BRANCH   5   3
ATOM      3  C   UNL     1      -9.445  -8.675  17.224  0.00  0.00    +0.341 C 
ATOM      4  O   UNL     1      -9.720  -8.543  17.990  0.00  0.00    -0.245 OA
BRANCH   3   2
ATOM      1  C   UNL     1     -10.205  -7.577  16.714  0.00  0.00    +0.256 C 
ATOM      2  O   UNL     1      -9.790  -8.279  16.587  0.00  0.00    -0.441 OA
ENDBRANCH   3   2
ENDBRANCH   5   3
ENDBRANCH  11  10
ENDBRANCH  12  11
BRANCH  18  19
ATOM     19  C   UNL     1      -4.399 -10.477  13.352  0.00  0.00    +0.119 C 
BRANCH  19  20
ATOM     20  N   UNL     1      -3.591 -10.438  13.194  0.00  0.00    -0.205 NA
ATOM     21  C   UNL     1      -3.316 -10.546  12.423  0.00  0.00    +0.241 C 
ATOM     22  O   UNL     1      -3.850 -10.692  11.811  0.00  0.00    -0.273 OA
BRANCH  21  23
ATOM     23  C   UNL     1      -2.507 -10.507  12.265  0.00  0.00    +0.087 C 
BRANCH  23  24
ATOM     24  C   UNL     1      -2.208  -9.899  11.794  0.00  0.00    +0.021 C 
BRANCH  24  25
ATOM     25  C   UNL     1      -1.415  -9.907  11.565  0.00  0.00    +0.115 C 
BRANCH  25  26
ATOM     26  C   UNL     1      -1.054  -9.212  11.305  0.00  0.00    +0.365 C 
ATOM     27  O   UNL     1      -0.540  -8.803  11.804  0.00  0.00    -0.246 OA
ATOM     28  O   UNL     1      -1.207  -8.926  10.546  0.00  0.00    -0.246 OA
ENDBRANCH  25  26
ENDBRANCH  24  25
ENDBRANCH  23  24
ENDBRANCH  21  23
ENDBRANCH  19  20
ENDBRANCH  18  19
TORSDOF 11
ENDMDL
MODEL 9
REMARK VINA RESULT:      -5.3     16.410     17.805
REMARK  Name = 
REMARK  11 active torsions:
REMARK  status: ('A' for Active; 'I' for Inactive)
REMARK    1  A    between atoms: O_2  and  C_3
REMARK    2  A    between atoms: C_3  and  C_5
REMARK    3  A    between atoms: C_10  and  C_11
REMARK    4  A    between atoms: C_11  and  C_12
REMARK    5  A    between atoms: C_14  and  C_15
REMARK    6  A    between atoms: C_18  and  C_19
REMARK    7  A    between atoms: C_19  and  N_20
REMARK    8  A    between atoms: C_21  and  C_23
REMARK    9  A    between atoms: C_23  and  C_24
REMARK   10  A    between atoms: C_24  and  C_25
REMARK   11  A    between atoms: C_25  and  C_26
REMARK                            x       y       z     vdW  Elec       q    Type
REMARK                         _______ _______ _______ _____ _____    ______ ____
ROOT
ATOM     12  C   UNL     1      -4.603  -9.345  10.241  0.00  0.00    +0.026 C 
ATOM     13  C   UNL     1      -5.232  -9.530  10.740  0.00  0.00    +0.005 C 
ATOM     14  C   UNL     1      -5.086  -9.848  11.487  0.00  0.00    +0.006 C 
ATOM     18  C   UNL     1      -4.310  -9.981  11.734  0.00  0.00    +0.043 C 
ATOM     29  C   UNL     1      -3.680  -9.796  11.235  0.00  0.00    -0.033 C 
ATOM     30  C   UNL     1      -3.827  -9.478  10.488  0.00  0.00    -0.048 C 
ATOM     31  C   UNL     1      -3.197  -9.293   9.988  0.00  0.00    +0.026 C 
ENDROOT
BRANCH  14  15
ATOM     15  C   UNL     1      -5.715 -10.034  11.987  0.00  0.00    +0.000 C 
ATOM     16  C   UNL     1      -6.161 -10.715  11.856  0.00  0.00    +0.000 C 
ATOM     17  C   UNL     1      -5.898  -9.537  12.620  0.00  0.00    +0.000 C 
ENDBRANCH  14  15
BRANCH  12  11
ATOM     11  C   UNL     1      -4.748  -9.027   9.493  0.00  0.00    +0.070 C 
BRANCH  11  10
ATOM      5  C   UNL     1      -7.982  -7.778   8.738  0.00  0.00    +0.077 A 
ATOM      6  C   UNL     1      -7.269  -7.589   9.106  0.00  0.00    +0.027 A 
ATOM      7  C   UNL     1      -6.651  -8.136   9.117  0.00  0.00    +0.100 A 
ATOM      8  C   UNL     1      -6.747  -8.872   8.759  0.00  0.00    +0.100 A 
ATOM      9  N   UNL     1      -6.046  -9.296   8.856  0.00  0.00    -0.229 NA
ATOM     10  C   UNL     1      -5.516  -8.821   9.275  0.00  0.00    +0.139 A 
ATOM     32  N   UNL     1      -5.891  -8.104   9.436  0.00  0.00    -0.229 NA
ATOM     33  C   UNL     1      -7.460  -9.063   8.390  0.00  0.00    +0.021 A 
ATOM     34  C   UNL     1      -8.077  -8.516   8.379  0.00  0.00    +0.008 A 
BRANCH   5   3
ATOM      3  C   UNL     1      -8.599  -7.231   8.727  0.00  0.00    +0.341 C 
ATOM      4  O   UNL     1      -8.513  -6.520   8.320  0.00  0.00    -0.245 OA
BRANCH   3   2
ATOM      1  C   UNL     1      -9.932  -6.864   9.089  0.00  0.00    +0.256 C 
ATOM      2  O   UNL     1      -9.304  -7.397   9.124  0.00  0.00    -0.441 OA
ENDBRANCH   3   2
ENDBRANCH   5   3
ENDBRANCH  11  10
ENDBRANCH  12  11
BRANCH  18  19
ATOM     19  C   UNL     1      -4.163 -10.300  12.481  0.00  0.00    +0.119 C 
BRANCH  19  20
ATOM     20  N   UNL     1      -3.388 -10.441  12.724  0.00  0.00    -0.205 NA
ATOM     21  C   UNL     1      -3.231 -10.636  13.511  0.00  0.00    +0.241 C 
ATOM     22  O   UNL     1      -3.850 -10.690  14.054  0.00  0.00    -0.273 OA
BRANCH  21  23
ATOM     23  C   UNL     1      -2.455 -10.778  13.753  0.00  0.00    +0.087 C 
BRANCH  23  24
ATOM     24  C   UNL     1      -2.214 -10.559  14.512  0.00  0.00    +0.021 C 
BRANCH  24  25
ATOM     25  C   UNL     1      -1.517 -10.130  14.615  0.00  0.00    +0.115 C 
BRANCH  25  26
ATOM     26  C   UNL     1      -1.136 -10.132  15.347  0.00  0.00    +0.365 C 
ATOM     27  O   UNL     1      -0.427  -9.722  15.444  0.00  0.00    -0.246 OA
ATOM     28  O   UNL     1      -1.465 -10.545  15.982  0.00  0.00    -0.246 OA
ENDBRANCH  25  26
ENDBRANCH  24  25
ENDBRANCH  23  24
ENDBRANCH  21  23
ENDBRANCH  19  20
ENDBRANCH  18  19
TORSDOF 11
ENDMDL
MODEL 10
REMARK VINA RESULT:      -5.3     17.539     18.784
REMARK  Name = 
REMARK  11 active torsions:
REMARK  status: ('A' for Active; 'I' for Inactive)
REMARK    1  A    between atoms: O_2  and  C_3
REMARK    2  A    between atoms: C_3  and  C_5
REMARK    3  A    between atoms: C_10  and  C_11
REMARK    4  A    between atoms: C_11  and  C_12
REMARK    5  A    between atoms: C_14  and  C_15
REMARK    6  A    between atoms: C_18  and  C_19
REMARK    7  A    between atoms: C_19  and  N_20
REMARK    8  A    between atoms: C_21  and  C_23
REMARK    9  A    between atoms: C_23  and  C_24
REMARK   10  A    between atoms: C_24  and  C_25
REMARK   11  A    between atoms: C_25  and  C_26
REMARK                            x       y       z     vdW  Elec       q    Type
REMARK                         _______ _______ _______ _____ _____    ______ ____
ROOT
ATOM     12  C   UNL     1      -6.905  -9.145   8.811  0.00  0.00    +0.026 C 
ATOM     13  C   UNL     1      -7.345  -9.356   9.476  0.00  0.00    +0.005 C 
ATOM     14  C   UNL     1      -6.964  -9.642  10.149  0.00  0.00    +0.006 C 
ATOM     18  C   UNL     1      -6.142  -9.716  10.158  0.00  0.00    +0.043 C 
ATOM     29  C   UNL     1      -5.701  -9.505   9.493  0.00  0.00    -0.033 C 
ATOM     30  C   UNL     1      -6.083  -9.219   8.820  0.00  0.00    -0.048 C 
ATOM     31  C   UNL     1      -5.642  -9.008   8.155  0.00  0.00    +0.026 C 
ENDROOT
BRANCH  14  15
ATOM     15  C   UNL     1      -7.404  -9.853  10.814  0.00  0.00    +0.000 C 
ATOM     16  C   UNL     1      -7.536  -9.304  11.414  0.00  0.00    +0.000 C 
ATOM     17  C   UNL     1      -7.712 -10.616  10.879  0.00  0.00    +0.000 C 
ENDBRANCH  14  15
BRANCH  12  11
ATOM     11  C   UNL     1      -7.285  -8.859   8.137  0.00  0.00    +0.070 C 
BRANCH  11  10
ATOM      5  C   UNL     1      -9.355  -5.997   8.468  0.00  0.00    +0.077 A 
ATOM      6  C   UNL     1      -8.569  -6.249   8.465  0.00  0.00    +0.027 A 
ATOM      7  C   UNL     1      -8.392  -7.047   8.356  0.00  0.00    +0.100 A 
ATOM      8  C   UNL     1      -9.001  -7.593   8.249  0.00  0.00    +0.100 A 
ATOM      9  N   UNL     1      -8.660  -8.339   8.154  0.00  0.00    -0.229 NA
ATOM     10  C   UNL     1      -7.841  -8.253   8.202  0.00  0.00    +0.139 A 
ATOM     32  N   UNL     1      -7.676  -7.455   8.327  0.00  0.00    -0.229 NA
ATOM     33  C   UNL     1      -9.787  -7.342   8.252  0.00  0.00    +0.021 A 
ATOM     34  C   UNL     1      -9.964  -6.544   8.361  0.00  0.00    +0.008 A 
BRANCH   5   3
ATOM      3  C   UNL     1      -9.532  -5.199   8.578  0.00  0.00    +0.341 C 
ATOM      4  O   UNL     1      -8.928  -4.638   8.571  0.00  0.00    -0.245 OA
BRANCH   3   2
ATOM      1  C   UNL     1     -10.479  -4.193   8.943  0.00  0.00    +0.256 C 
ATOM      2  O   UNL     1     -10.314  -4.962   8.694  0.00  0.00    -0.441 OA
ENDBRANCH   3   2
ENDBRANCH   5   3
ENDBRANCH  11  10
ENDBRANCH  12  11
BRANCH  18  19
ATOM     19  C   UNL     1      -5.761 -10.002  10.832  0.00  0.00    +0.119 C 
BRANCH  19  20
ATOM     20  N   UNL     1      -4.990 -10.291  10.777  0.00  0.00    -0.205 NA
ATOM     21  C   UNL     1      -4.538 -10.391  11.461  0.00  0.00    +0.241 C 
ATOM     22  O   UNL     1      -4.857 -10.203  12.198  0.00  0.00    -0.273 OA
BRANCH  21  23
ATOM     23  C   UNL     1      -3.768 -10.680  11.406  0.00  0.00    +0.087 C 
BRANCH  23  24
ATOM     24  C   UNL     1      -3.169 -10.346  11.866  0.00  0.00    +0.021 C 
BRANCH  24  25
ATOM     25  C   UNL     1      -2.409 -10.667  11.849  0.00  0.00    +0.115 C 
BRANCH  25  26
ATOM     26  C   UNL     1      -1.772 -10.234  12.146  0.00  0.00    +0.365 C 
ATOM     27  O   UNL     1      -1.318  -9.769  11.638  0.00  0.00    -0.246 OA
ATOM     28  O   UNL     1      -1.590 -10.266  12.950  0.00  0.00    -0.246 OA
ENDBRANCH  25  26
ENDBRANCH  24  25
ENDBRANCH  23  24
ENDBRANCH  21  23
ENDBRANCH  19  20
ENDBRANCH  18  19
TORSDOF 11
ENDMDL
