REMARK  Name = 
REMARK  7 active torsions:
REMARK  status: ('A' for Active; 'I' for Inactive)
REMARK    1  A    between atoms: C_3  and  C_4
REMARK    2  A    between atoms: C_4  and  N_5
REMARK    3  A    between atoms: C_6  and  C_8
REMARK    4  A    between atoms: C_15  and  C_16
REMARK    5  A    between atoms: C_16  and  C_17
REMARK    6  A    between atoms: N_19  and  C_20
REMARK    7  A    between atoms: C_20  and  C_21
REMARK                            x       y       z     vdW  Elec       q    Type
REMARK                         _______ _______ _______ _____ _____    ______ ____
ROOT
ATOM      1  O   UNL     1      -2.126  -2.284   0.000  0.00  0.00    -0.218 OA
ATOM      2  C   UNL     1      -1.306  -2.197   0.000  0.00  0.00    +0.213 C 
ATOM      3  C   UNL     1      -0.893  -1.483   0.000  0.00  0.00    +0.170 C 
ATOM     14  O   UNL     1      -0.086  -1.655   0.000  0.00  0.00    -0.351 OA
ATOM     15  C   UNL     1       0.000  -2.475   0.000  0.00  0.00    +0.157 C 
ATOM     27  C   UNL     1      -0.754  -2.811   0.000  0.00  0.00    +0.212 C 
ATOM     28  O   UNL     1      -0.925  -3.618   0.000  0.00  0.00    -0.218 OA
ENDROOT
BRANCH   3   4
ATOM      4  C   UNL     1      -1.229  -0.729   0.000  0.00  0.00    +0.148 C 
BRANCH   4   5
ATOM      5  N   UNL     1      -2.049  -0.643   0.000  0.00  0.00    -0.199 NA
ATOM      6  C   UNL     1      -2.385   0.111   0.000  0.00  0.00    +0.265 C 
ATOM      7  O   UNL     1      -1.900   0.778   0.000  0.00  0.00    -0.268 OA
BRANCH   6   8
ATOM      8  C   UNL     1      -3.205   0.197   0.000  0.00  0.00    +0.055 A 
ATOM      9  C   UNL     1      -3.690  -0.471   0.000  0.00  0.00    +0.005 A 
ATOM     10  C   UNL     1      -4.511  -0.384   0.000  0.00  0.00    +0.000 A 
ATOM     11  C   UNL     1      -4.846   0.369   0.000  0.00  0.00    +0.000 A 
ATOM     12  C   UNL     1      -4.361   1.037   0.000  0.00  0.00    +0.000 A 
ATOM     13  C   UNL     1      -3.541   0.951   0.000  0.00  0.00    +0.005 A 
ENDBRANCH   6   8
ENDBRANCH   4   5
ENDBRANCH   3   4
BRANCH  15  16
ATOM     16  C   UNL     1       0.715  -2.888   0.000  0.00  0.00    +0.119 C 
BRANCH  16  17
ATOM     17  C   UNL     1       1.429  -2.475   0.000  0.00  0.00    +0.244 C 
ATOM     18  O   UNL     1       1.429  -1.650   0.000  0.00  0.00    -0.273 OA
ATOM     19  N   UNL     1       2.143  -2.888   0.000  0.00  0.00    -0.200 NA
BRANCH  19  20
ATOM     20  C   UNL     1       2.858  -2.475   0.000  0.00  0.00    +0.143 C 
BRANCH  20  21
ATOM     21  C   UNL     1       3.572  -2.888   0.000  0.00  0.00    +0.019 A 
ATOM     22  C   UNL     1       4.287  -2.475   0.000  0.00  0.00    +0.001 A 
ATOM     23  C   UNL     1       5.001  -2.888   0.000  0.00  0.00    +0.020 A 
ATOM     24  C   UNL     1       5.001  -3.712   0.000  0.00  0.00    +0.099 A 
ATOM     25  N   UNL     1       4.287  -4.125   0.000  0.00  0.00    -0.243 NA
ATOM     26  C   UNL     1       3.572  -3.712   0.000  0.00  0.00    +0.096 A 
ENDBRANCH  20  21
ENDBRANCH  19  20
ENDBRANCH  16  17
ENDBRANCH  15  16
TORSDOF 7
