MODEL 1
REMARK VINA RESULT:     -12.9      0.000      0.000
REMARK  Name = 
REMARK  5 active torsions:
REMARK  status: ('A' for Active; 'I' for Inactive)
REMARK    1  A    between atoms: C_2  and  C_3
REMARK    2  A    between atoms: C_3  and  S_4
REMARK    3  A    between atoms: S_4  and  N_7
REMARK    4  A    between atoms: N_7  and  C_8
REMARK    5  A    between atoms: N_18  and  C_19
REMARK                            x       y       z     vdW  Elec       q    Type
REMARK                         _______ _______ _______ _____ _____    ______ ____
ROOT
ATOM      8  C   UNL     1      -2.323   2.312  24.958  0.00  0.00    +0.102 A 
ATOM      9  C   UNL     1      -2.254   1.496  24.858  0.00  0.00    +0.058 A 
ATOM     10  C   UNL     1      -1.618   0.844  24.739  0.00  0.00    +0.060 C 
ATOM     11  C   UNL     1      -0.924   0.755  24.682  0.00  0.00    +0.011 C 
ATOM     12  C   UNL     1      -1.593   0.291  24.673  0.00  0.00    +0.043 C 
ATOM     13  C   UNL     1      -2.270  -0.428  24.635  0.00  0.00    +0.097 C 
ATOM     14  N   UNL     1      -2.963   0.028  24.734  0.00  0.00    -0.262 N 
ATOM     15  C   UNL     1      -2.260   0.139  24.700  0.00  0.00    +0.101 C 
ATOM     16  C   UNL     1      -3.767   0.201  24.808  0.00  0.00    +0.327 C 
ATOM     17  O   UNL     1      -4.013   0.982  24.916  0.00  0.00    -0.250 OA
ATOM     18  N   UNL     1      -4.324  -0.406  24.774  0.00  0.00    -0.162 NA
ATOM     26  C   UNL     1      -2.264   0.965  24.797  0.00  0.00    +0.110 C 
ATOM     27  N   UNL     1      -2.929   1.023  24.848  0.00  0.00    -0.298 N 
ATOM     28  C   UNL     1      -3.675   1.365  24.938  0.00  0.00    +0.261 A 
ATOM     29  O   UNL     1      -4.462   1.121  24.962  0.00  0.00    -0.267 OA
ATOM     30  C   UNL     1      -3.744   2.180  25.037  0.00  0.00    +0.062 A 
ATOM     31  C   UNL     1      -3.069   2.654  25.047  0.00  0.00    +0.024 A 
ENDROOT
BRANCH  18  19
ATOM     19  C   UNL     1      -4.079  -1.186  24.667  0.00  0.00    +0.075 A 
ATOM     20  C   UNL     1      -4.098  -1.525  23.915  0.00  0.00    +0.019 A 
ATOM     21  C   UNL     1      -3.853  -2.304  23.807  0.00  0.00    +0.031 A 
ATOM     22  C   UNL     1      -3.588  -2.747  24.452  0.00  0.00    +0.140 A 
ATOM     23  F   UNL     1      -3.342  -3.527  24.344  0.00  0.00    -0.204 F 
ATOM     24  C   UNL     1      -3.568  -2.408  25.203  0.00  0.00    +0.031 A 
ATOM     25  C   UNL     1      -3.813  -1.628  25.312  0.00  0.00    +0.019 A 
ENDBRANCH  18  19
BRANCH   8   7
ATOM      7  N   UNL     1      -1.648   2.786  24.968  0.00  0.00    -0.100 NA
BRANCH   7   4
ATOM      4  S   UNL     1      -1.718   3.602  25.067  0.00  0.00    +0.073 S 
ATOM      5  O   UNL     1      -1.645   3.508  25.883  0.00  0.00    -0.153 OA
ATOM      6  O   UNL     1      -1.790   3.695  24.251  0.00  0.00    -0.153 OA
BRANCH   4   3
ATOM      3  C   UNL     1      -1.787   4.417  25.166  0.00  0.00    +0.174 C 
BRANCH   3   2
ATOM      1  C   UNL     1      -1.242   5.728  24.999  0.00  0.00    +0.002 C 
ATOM      2  C   UNL     1      -1.142   4.908  25.013  0.00  0.00    +0.027 C 
ENDBRANCH   3   2
ENDBRANCH   4   3
ENDBRANCH   7   4
ENDBRANCH   8   7
TORSDOF 5
ENDMDL
MODEL 2
REMARK VINA RESULT:     -12.5      2.239      5.073
REMARK  Name = 
REMARK  5 active torsions:
REMARK  status: ('A' for Active; 'I' for Inactive)
REMARK    1  A    between atoms: C_2  and  C_3
REMARK    2  A    between atoms: C_3  and  S_4
REMARK    3  A    between atoms: S_4  and  N_7
REMARK    4  A    between atoms: N_7  and  C_8
REMARK    5  A    between atoms: N_18  and  C_19
REMARK                            x       y       z     vdW  Elec       q    Type
REMARK                         _______ _______ _______ _____ _____    ______ ____
ROOT
ATOM      8  C   UNL     1      -2.797   0.068  24.816  0.00  0.00    +0.102 A 
ATOM      9  C   UNL     1      -2.807   0.888  24.721  0.00  0.00    +0.058 A 
ATOM     10  C   UNL     1      -3.324   1.558  24.365  0.00  0.00    +0.060 C 
ATOM     11  C   UNL     1      -3.927   1.666  24.022  0.00  0.00    +0.011 C 
ATOM     12  C   UNL     1      -3.311   2.113  24.311  0.00  0.00    +0.043 C 
ATOM     13  C   UNL     1      -2.671   2.815  24.586  0.00  0.00    +0.097 C 
ATOM     14  N   UNL     1      -2.092   2.340  24.955  0.00  0.00    -0.262 N 
ATOM     15  C   UNL     1      -2.716   2.248  24.623  0.00  0.00    +0.101 C 
ATOM     16  C   UNL     1      -1.398   2.145  25.357  0.00  0.00    +0.327 C 
ATOM     17  O   UNL     1      -1.231   1.356  25.534  0.00  0.00    -0.250 OA
ATOM     18  N   UNL     1      -0.871   2.739  25.581  0.00  0.00    -0.162 NA
ATOM     26  C   UNL     1      -2.764   1.419  24.687  0.00  0.00    +0.110 C 
ATOM     27  N   UNL     1      -2.184   1.344  25.013  0.00  0.00    -0.298 N 
ATOM     28  C   UNL     1      -1.552   0.982  25.399  0.00  0.00    +0.261 A 
ATOM     29  O   UNL     1      -0.846   1.205  25.762  0.00  0.00    -0.267 OA
ATOM     30  C   UNL     1      -1.542   0.162  25.494  0.00  0.00    +0.062 A 
ATOM     31  C   UNL     1      -2.165  -0.294  25.202  0.00  0.00    +0.024 A 
ENDROOT
BRANCH  18  19
ATOM     19  C   UNL     1      -1.038   3.527  25.404  0.00  0.00    +0.075 A 
ATOM     20  C   UNL     1      -0.699   3.881  24.741  0.00  0.00    +0.019 A 
ATOM     21  C   UNL     1      -0.864   4.669  24.563  0.00  0.00    +0.031 A 
ATOM     22  C   UNL     1      -1.370   5.104  25.049  0.00  0.00    +0.140 A 
ATOM     23  F   UNL     1      -1.537   5.893  24.872  0.00  0.00    -0.204 F 
ATOM     24  C   UNL     1      -1.709   4.749  25.713  0.00  0.00    +0.031 A 
ATOM     25  C   UNL     1      -1.544   3.962  25.890  0.00  0.00    +0.019 A 
ENDBRANCH  18  19
BRANCH   8   7
ATOM      7  N   UNL     1      -3.419  -0.388  24.525  0.00  0.00    -0.100 NA
BRANCH   7   4
ATOM      4  S   UNL     1      -3.408  -1.208  24.618  0.00  0.00    +0.073 S 
ATOM      5  O   UNL     1      -3.805  -1.131  25.337  0.00  0.00    -0.153 OA
ATOM      6  O   UNL     1      -3.012  -1.284  23.898  0.00  0.00    -0.153 OA
BRANCH   4   3
ATOM      3  C   UNL     1      -3.397  -2.027  24.711  0.00  0.00    +0.174 C 
BRANCH   3   2
ATOM      1  C   UNL     1      -3.826  -3.325  24.293  0.00  0.00    +0.002 C 
ATOM      2  C   UNL     1      -3.873  -2.503  24.233  0.00  0.00    +0.027 C 
ENDBRANCH   3   2
ENDBRANCH   4   3
ENDBRANCH   7   4
ENDBRANCH   8   7
TORSDOF 5
ENDMDL
MODEL 3
REMARK VINA RESULT:     -10.6      2.246      3.630
REMARK  Name = 
REMARK  5 active torsions:
REMARK  status: ('A' for Active; 'I' for Inactive)
REMARK    1  A    between atoms: C_2  and  C_3
REMARK    2  A    between atoms: C_3  and  S_4
REMARK    3  A    between atoms: S_4  and  N_7
REMARK    4  A    between atoms: N_7  and  C_8
REMARK    5  A    between atoms: N_18  and  C_19
REMARK                            x       y       z     vdW  Elec       q    Type
REMARK                         _______ _______ _______ _____ _____    ______ ____
ROOT
ATOM      8  C   UNL     1      -1.302   0.997  24.090  0.00  0.00    +0.102 A 
ATOM      9  C   UNL     1      -2.058   0.902  24.404  0.00  0.00    +0.058 A 
ATOM     10  C   UNL     1      -2.593   0.266  24.797  0.00  0.00    +0.060 C 
ATOM     11  C   UNL     1      -2.591  -0.407  24.998  0.00  0.00    +0.011 C 
ATOM     12  C   UNL     1      -3.109   0.222  25.004  0.00  0.00    +0.043 C 
ATOM     13  C   UNL     1      -3.865   0.851  25.101  0.00  0.00    +0.097 C 
ATOM     14  N   UNL     1      -3.521   1.535  24.767  0.00  0.00    -0.262 N 
ATOM     15  C   UNL     1      -3.332   0.861  24.898  0.00  0.00    +0.101 C 
ATOM     16  C   UNL     1      -3.457   2.317  24.509  0.00  0.00    +0.327 C 
ATOM     17  O   UNL     1      -2.755   2.581  24.164  0.00  0.00    -0.250 OA
ATOM     18  N   UNL     1      -4.095   2.833  24.595  0.00  0.00    -0.162 NA
ATOM     26  C   UNL     1      -2.557   0.894  24.595  0.00  0.00    +0.110 C 
ATOM     27  N   UNL     1      -2.585   1.537  24.413  0.00  0.00    -0.298 N 
ATOM     28  C   UNL     1      -2.355   2.268  24.107  0.00  0.00    +0.261 A 
ATOM     29  O   UNL     1      -2.680   3.019  24.005  0.00  0.00    -0.267 OA
ATOM     30  C   UNL     1      -1.598   2.364  23.793  0.00  0.00    +0.062 A 
ATOM     31  C   UNL     1      -1.072   1.728  23.785  0.00  0.00    +0.024 A 
ENDROOT
BRANCH  18  19
ATOM     19  C   UNL     1      -4.796   2.569  24.939  0.00  0.00    +0.075 A 
ATOM     20  C   UNL     1      -4.933   2.690  25.743  0.00  0.00    +0.019 A 
ATOM     21  C   UNL     1      -5.634   2.427  26.087  0.00  0.00    +0.031 A 
ATOM     22  C   UNL     1      -6.200   2.041  25.627  0.00  0.00    +0.140 A 
ATOM     23  F   UNL     1      -6.902   1.777  25.971  0.00  0.00    -0.204 F 
ATOM     24  C   UNL     1      -6.063   1.919  24.823  0.00  0.00    +0.031 A 
ATOM     25  C   UNL     1      -5.362   2.183  24.478  0.00  0.00    +0.019 A 
ENDBRANCH  18  19
BRANCH   8   7
ATOM      7  N   UNL     1      -0.775   0.362  24.082  0.00  0.00    -0.100 NA
BRANCH   7   4
ATOM      4  S   UNL     1      -0.039   0.442  23.718  0.00  0.00    +0.073 S 
ATOM      5  O   UNL     1       0.276   0.737  24.421  0.00  0.00    -0.153 OA
ATOM      6  O   UNL     1      -0.354   0.146  23.016  0.00  0.00    -0.153 OA
BRANCH   4   3
ATOM      3  C   UNL     1       0.697   0.521  23.355  0.00  0.00    +0.174 C 
BRANCH   3   2
ATOM      1  C   UNL     1       1.803  -0.059  22.659  0.00  0.00    +0.002 C 
ATOM      2  C   UNL     1       1.080  -0.143  23.049  0.00  0.00    +0.027 C 
ENDBRANCH   3   2
ENDBRANCH   4   3
ENDBRANCH   7   4
ENDBRANCH   8   7
TORSDOF 5
ENDMDL
MODEL 4
REMARK VINA RESULT:     -10.1      1.729      2.733
REMARK  Name = 
REMARK  5 active torsions:
REMARK  status: ('A' for Active; 'I' for Inactive)
REMARK    1  A    between atoms: C_2  and  C_3
REMARK    2  A    between atoms: C_3  and  S_4
REMARK    3  A    between atoms: S_4  and  N_7
REMARK    4  A    between atoms: N_7  and  C_8
REMARK    5  A    between atoms: N_18  and  C_19
REMARK                            x       y       z     vdW  Elec       q    Type
REMARK                         _______ _______ _______ _____ _____    ______ ____
ROOT
ATOM      8  C   UNL     1      -3.817   2.158  25.000  0.00  0.00    +0.102 A 
ATOM      9  C   UNL     1      -3.606   1.361  24.972  0.00  0.00    +0.058 A 
ATOM     10  C   UNL     1      -3.982   0.524  24.935  0.00  0.00    +0.060 C 
ATOM     11  C   UNL     1      -4.605   0.200  24.915  0.00  0.00    +0.011 C 
ATOM     12  C   UNL     1      -3.817  -0.009  24.916  0.00  0.00    +0.043 C 
ATOM     13  C   UNL     1      -2.936  -0.455  24.910  0.00  0.00    +0.097 C 
ATOM     14  N   UNL     1      -2.439   0.216  24.942  0.00  0.00    -0.262 N 
ATOM     15  C   UNL     1      -3.137   0.078  24.928  0.00  0.00    +0.101 C 
ATOM     16  C   UNL     1      -1.742   0.657  24.967  0.00  0.00    +0.327 C 
ATOM     17  O   UNL     1      -1.776   1.481  24.999  0.00  0.00    -0.250 OA
ATOM     18  N   UNL     1      -1.011   0.274  24.961  0.00  0.00    -0.162 NA
ATOM     26  C   UNL     1      -3.415   0.862  24.955  0.00  0.00    +0.110 C 
ATOM     27  N   UNL     1      -2.809   1.146  24.973  0.00  0.00    -0.298 N 
ATOM     28  C   UNL     1      -2.224   1.727  25.003  0.00  0.00    +0.261 A 
ATOM     29  O   UNL     1      -1.401   1.768  25.014  0.00  0.00    -0.267 OA
ATOM     30  C   UNL     1      -2.436   2.524  25.031  0.00  0.00    +0.062 A 
ATOM     31  C   UNL     1      -3.233   2.739  25.030  0.00  0.00    +0.024 A 
ENDROOT
BRANCH  18  19
ATOM     19  C   UNL     1      -0.977  -0.549  24.929  0.00  0.00    +0.075 A 
ATOM     20  C   UNL     1      -0.961  -0.989  25.627  0.00  0.00    +0.019 A 
ATOM     21  C   UNL     1      -0.927  -1.811  25.597  0.00  0.00    +0.031 A 
ATOM     22  C   UNL     1      -0.908  -2.197  24.867  0.00  0.00    +0.140 A 
ATOM     23  F   UNL     1      -0.874  -3.021  24.836  0.00  0.00    -0.204 F 
ATOM     24  C   UNL     1      -0.924  -1.758  24.169  0.00  0.00    +0.031 A 
ATOM     25  C   UNL     1      -0.958  -0.935  24.200  0.00  0.00    +0.019 A 
ENDBRANCH  18  19
BRANCH   8   7
ATOM      7  N   UNL     1      -4.614   2.373  24.999  0.00  0.00    -0.100 NA
BRANCH   7   4
ATOM      4  S   UNL     1      -4.831   3.152  25.164  0.00  0.00    +0.073 S 
ATOM      5  O   UNL     1      -4.916   2.959  25.962  0.00  0.00    -0.153 OA
ATOM      6  O   UNL     1      -4.746   3.344  24.367  0.00  0.00    -0.153 OA
BRANCH   4   3
ATOM      3  C   UNL     1      -5.048   3.930  25.329  0.00  0.00    +0.174 C 
BRANCH   3   2
ATOM      1  C   UNL     1      -6.071   4.901  25.560  0.00  0.00    +0.002 C 
ATOM      2  C   UNL     1      -5.835   4.112  25.497  0.00  0.00    +0.027 C 
ENDBRANCH   3   2
ENDBRANCH   4   3
ENDBRANCH   7   4
ENDBRANCH   8   7
TORSDOF 5
ENDMDL
