MODEL 1
REMARK VINA RESULT:     -12.0      0.000      0.000
REMARK  Name = 
REMARK  4 active torsions:
REMARK  status: ('A' for Active; 'I' for Inactive)
REMARK    1  A    between atoms: C_2  and  C_5
REMARK    2  A    between atoms: C_8  and  O_9
REMARK    3  A    between atoms: O_9  and  C_10
REMARK    4  A    between atoms: C_17  and  C_19
REMARK                            x       y       z     vdW  Elec       q    Type
REMARK                         _______ _______ _______ _____ _____    ______ ____
ROOT
ATOM     10  C   UNL     1      -3.192   0.981  24.757  0.00  0.00    +0.215 C 
ATOM     11  C   UNL     1      -2.519   0.777  24.326  0.00  0.00    +0.187 C 
ATOM     12  O   UNL     1      -2.122   1.219  23.753  0.00  0.00    -0.348 OA
ATOM     13  C   UNL     1      -2.300   1.972  23.471  0.00  0.00    +0.164 C 
ATOM     14  C   UNL     1      -2.918   2.472  23.691  0.00  0.00    +0.126 C 
ATOM     15  N   UNL     1      -3.512   2.340  24.249  0.00  0.00    -0.273 N 
ATOM     16  C   UNL     1      -3.633   1.677  24.723  0.00  0.00    +0.139 C 
ATOM     17  C   UNL     1      -4.056   2.953  24.344  0.00  0.00    +0.225 C 
ATOM     18  O   UNL     1      -3.984   3.642  23.896  0.00  0.00    -0.275 OA
ENDROOT
BRANCH  17  19
ATOM     19  C   UNL     1      -4.671   2.877  24.888  0.00  0.00    +0.077 C 
ATOM     20  C   UNL     1      -5.441   2.642  25.068  0.00  0.00    +0.010 C 
ATOM     21  C   UNL     1      -4.968   2.982  25.652  0.00  0.00    +0.010 C 
ENDBRANCH  17  19
BRANCH  10   9
ATOM      9  O   UNL     1      -3.457   0.414  25.295  0.00  0.00    -0.475 OA
BRANCH   9   8
ATOM      5  C   UNL     1      -3.724  -1.941  24.579  0.00  0.00    +0.072 A 
ATOM      6  C   UNL     1      -4.247  -1.365  24.305  0.00  0.00    +0.007 A 
ATOM      7  C   UNL     1      -4.158  -0.579  24.544  0.00  0.00    +0.037 A 
ATOM      8  C   UNL     1      -3.547  -0.371  25.056  0.00  0.00    +0.139 A 
ATOM     22  C   UNL     1      -3.023  -0.947  25.330  0.00  0.00    +0.037 A 
ATOM     23  C   UNL     1      -3.112  -1.731  25.092  0.00  0.00    +0.007 A 
BRANCH   5   2
ATOM      1  F   UNL     1      -3.900  -3.510  24.103  0.00  0.00    -0.166 F 
ATOM      2  C   UNL     1      -3.812  -2.725  24.340  0.00  0.00    +0.419 C 
ATOM      3  F   UNL     1      -4.054  -2.472  23.594  0.00  0.00    -0.166 F 
ATOM      4  F   UNL     1      -3.570  -2.979  25.088  0.00  0.00    -0.166 F 
ENDBRANCH   5   2
ENDBRANCH   9   8
ENDBRANCH  10   9
TORSDOF 4
ENDMDL
MODEL 2
REMARK VINA RESULT:     -11.8      1.225      2.017
REMARK  Name = 
REMARK  4 active torsions:
REMARK  status: ('A' for Active; 'I' for Inactive)
REMARK    1  A    between atoms: C_2  and  C_5
REMARK    2  A    between atoms: C_8  and  O_9
REMARK    3  A    between atoms: O_9  and  C_10
REMARK    4  A    between atoms: C_17  and  C_19
REMARK                            x       y       z     vdW  Elec       q    Type
REMARK                         _______ _______ _______ _____ _____    ______ ____
ROOT
ATOM     10  C   UNL     1      -4.048   1.578  24.641  0.00  0.00    +0.215 C 
ATOM     11  C   UNL     1      -4.845   1.366  24.683  0.00  0.00    +0.187 C 
ATOM     12  O   UNL     1      -5.469   1.782  25.026  0.00  0.00    -0.348 OA
ATOM     13  C   UNL     1      -5.452   2.511  25.411  0.00  0.00    +0.164 C 
ATOM     14  C   UNL     1      -4.806   3.005  25.548  0.00  0.00    +0.126 C 
ATOM     15  N   UNL     1      -4.017   2.892  25.334  0.00  0.00    -0.273 N 
ATOM     16  C   UNL     1      -3.680   2.257  24.931  0.00  0.00    +0.139 C 
ATOM     17  C   UNL     1      -3.498   3.494  25.553  0.00  0.00    +0.225 C 
ATOM     18  O   UNL     1      -3.779   4.154  25.960  0.00  0.00    -0.275 OA
ENDROOT
BRANCH  17  19
ATOM     19  C   UNL     1      -2.696   3.435  25.366  0.00  0.00    +0.077 C 
ATOM     20  C   UNL     1      -2.081   3.522  24.824  0.00  0.00    +0.010 C 
ATOM     21  C   UNL     1      -1.923   3.246  25.585  0.00  0.00    +0.010 C 
ENDBRANCH  17  19
BRANCH  10   9
ATOM      9  O   UNL     1      -3.554   1.039  24.257  0.00  0.00    -0.475 OA
BRANCH   9   8
ATOM      5  C   UNL     1      -3.586  -1.348  24.910  0.00  0.00    +0.072 A 
ATOM      6  C   UNL     1      -3.148  -0.806  25.351  0.00  0.00    +0.007 A 
ATOM      7  C   UNL     1      -3.137  -0.010  25.133  0.00  0.00    +0.037 A 
ATOM      8  C   UNL     1      -3.565   0.243  24.475  0.00  0.00    +0.139 A 
ATOM     22  C   UNL     1      -4.003  -0.299  24.034  0.00  0.00    +0.037 A 
ATOM     23  C   UNL     1      -4.014  -1.094  24.251  0.00  0.00    +0.007 A 
BRANCH   5   2
ATOM      1  F   UNL     1      -3.608  -2.939  25.346  0.00  0.00    -0.166 F 
ATOM      2  C   UNL     1      -3.597  -2.144  25.127  0.00  0.00    +0.419 C 
ATOM      3  F   UNL     1      -3.590  -2.362  24.332  0.00  0.00    -0.166 F 
ATOM      4  F   UNL     1      -3.605  -1.926  25.924  0.00  0.00    -0.166 F 
ENDBRANCH   5   2
ENDBRANCH   9   8
ENDBRANCH  10   9
TORSDOF 4
ENDMDL
MODEL 3
REMARK VINA RESULT:     -11.4      0.972      1.411
REMARK  Name = 
REMARK  4 active torsions:
REMARK  status: ('A' for Active; 'I' for Inactive)
REMARK    1  A    between atoms: C_2  and  C_5
REMARK    2  A    between atoms: C_8  and  O_9
REMARK    3  A    between atoms: O_9  and  C_10
REMARK    4  A    between atoms: C_17  and  C_19
REMARK                            x       y       z     vdW  Elec       q    Type
REMARK                         _______ _______ _______ _____ _____    ______ ____
ROOT
ATOM     10  C   UNL     1      -2.787   0.773  25.133  0.00  0.00    +0.215 C 
ATOM     11  C   UNL     1      -2.117   0.340  25.344  0.00  0.00    +0.187 C 
ATOM     12  O   UNL     1      -1.325   0.566  25.301  0.00  0.00    -0.348 OA
ATOM     13  C   UNL     1      -1.006   1.278  25.035  0.00  0.00    +0.164 C 
ATOM     14  C   UNL     1      -1.402   1.943  24.747  0.00  0.00    +0.126 C 
ATOM     15  N   UNL     1      -2.214   2.058  24.654  0.00  0.00    -0.273 N 
ATOM     16  C   UNL     1      -2.829   1.537  24.825  0.00  0.00    +0.139 C 
ATOM     17  C   UNL     1      -2.438   2.790  24.348  0.00  0.00    +0.225 C 
ATOM     18  O   UNL     1      -1.865   3.351  24.158  0.00  0.00    -0.275 OA
ENDROOT
BRANCH  17  19
ATOM     19  C   UNL     1      -3.237   2.962  24.233  0.00  0.00    +0.077 C 
ATOM     20  C   UNL     1      -3.962   3.222  24.528  0.00  0.00    +0.010 C 
ATOM     21  C   UNL     1      -3.896   2.998  23.737  0.00  0.00    +0.010 C 
ENDBRANCH  17  19
BRANCH  10   9
ATOM      9  O   UNL     1      -3.510   0.390  25.243  0.00  0.00    -0.475 OA
BRANCH   9   8
ATOM      5  C   UNL     1      -3.812  -1.935  24.449  0.00  0.00    +0.072 A 
ATOM      6  C   UNL     1      -3.607  -1.791  25.236  0.00  0.00    +0.007 A 
ATOM      7  C   UNL     1      -3.506  -1.015  25.500  0.00  0.00    +0.037 A 
ATOM      8  C   UNL     1      -3.610  -0.385  24.979  0.00  0.00    +0.139 A 
ATOM     22  C   UNL     1      -3.815  -0.529  24.193  0.00  0.00    +0.037 A 
ATOM     23  C   UNL     1      -3.916  -1.303  23.928  0.00  0.00    +0.007 A 
BRANCH   5   2
ATOM      1  F   UNL     1      -4.014  -3.483  23.919  0.00  0.00    -0.166 F 
ATOM      2  C   UNL     1      -3.913  -2.709  24.184  0.00  0.00    +0.419 C 
ATOM      3  F   UNL     1      -3.231  -2.937  24.588  0.00  0.00    -0.166 F 
ATOM      4  F   UNL     1      -4.596  -2.481  23.780  0.00  0.00    -0.166 F 
ENDBRANCH   5   2
ENDBRANCH   9   8
ENDBRANCH  10   9
TORSDOF 4
ENDMDL
MODEL 4
REMARK VINA RESULT:     -11.2      2.573      4.280
REMARK  Name = 
REMARK  4 active torsions:
REMARK  status: ('A' for Active; 'I' for Inactive)
REMARK    1  A    between atoms: C_2  and  C_5
REMARK    2  A    between atoms: C_8  and  O_9
REMARK    3  A    between atoms: O_9  and  C_10
REMARK    4  A    between atoms: C_17  and  C_19
REMARK                            x       y       z     vdW  Elec       q    Type
REMARK                         _______ _______ _______ _____ _____    ______ ____
ROOT
ATOM     10  C   UNL     1      -2.914   0.274  24.265  0.00  0.00    +0.215 C 
ATOM     11  C   UNL     1      -2.388   0.909  24.304  0.00  0.00    +0.187 C 
ATOM     12  O   UNL     1      -1.598   0.907  24.541  0.00  0.00    -0.348 OA
ATOM     13  C   UNL     1      -1.138   0.272  24.796  0.00  0.00    +0.164 C 
ATOM     14  C   UNL     1      -1.355  -0.519  24.878  0.00  0.00    +0.126 C 
ATOM     15  N   UNL     1      -2.086  -0.871  24.725  0.00  0.00    -0.273 N 
ATOM     16  C   UNL     1      -2.779  -0.518  24.452  0.00  0.00    +0.139 C 
ATOM     17  C   UNL     1      -2.127  -1.683  24.863  0.00  0.00    +0.225 C 
ATOM     18  O   UNL     1      -1.465  -2.090  25.137  0.00  0.00    -0.275 OA
ENDROOT
BRANCH  17  19
ATOM     19  C   UNL     1      -2.833  -2.089  24.728  0.00  0.00    +0.077 C 
ATOM     20  C   UNL     1      -3.352  -2.467  24.209  0.00  0.00    +0.010 C 
ATOM     21  C   UNL     1      -3.537  -2.414  25.012  0.00  0.00    +0.010 C 
ENDBRANCH  17  19
BRANCH  10   9
ATOM      9  O   UNL     1      -3.676   0.456  24.004  0.00  0.00    -0.475 OA
BRANCH   9   8
ATOM      5  C   UNL     1      -4.968   2.252  25.112  0.00  0.00    +0.072 A 
ATOM      6  C   UNL     1      -4.482   2.430  24.470  0.00  0.00    +0.007 A 
ATOM      7  C   UNL     1      -4.051   1.831  24.100  0.00  0.00    +0.037 A 
ATOM      8  C   UNL     1      -4.106   1.055  24.373  0.00  0.00    +0.139 A 
ATOM     22  C   UNL     1      -4.592   0.877  25.015  0.00  0.00    +0.037 A 
ATOM     23  C   UNL     1      -5.023   1.475  25.385  0.00  0.00    +0.007 A 
BRANCH   5   2
ATOM      1  F   UNL     1      -5.829   3.449  25.851  0.00  0.00    -0.166 F 
ATOM      2  C   UNL     1      -5.399   2.851  25.481  0.00  0.00    +0.419 C 
ATOM      3  F   UNL     1      -6.076   2.617  25.072  0.00  0.00    -0.166 F 
ATOM      4  F   UNL     1      -4.721   3.085  25.891  0.00  0.00    -0.166 F 
ENDBRANCH   5   2
ENDBRANCH   9   8
ENDBRANCH  10   9
TORSDOF 4
ENDMDL
