MODEL 1
REMARK VINA RESULT:      -8.9      0.000      0.000
REMARK  Name = 
REMARK  8 active torsions:
REMARK  status: ('A' for Active; 'I' for Inactive)
REMARK    1  A    between atoms: N_2  and  C_4
REMARK    2  A    between atoms: C_7  and  C_10
REMARK    3  A    between atoms: C_15  and  C_16
REMARK    4  A    between atoms: C_16  and  C_17
REMARK    5  A    between atoms: C_20  and  C_21
REMARK    6  A    between atoms: C_21  and  C_22
REMARK    7  A    between atoms: C_22  and  N_23
REMARK    8  A    between atoms: N_26  and  C_29
REMARK                            x       y       z     vdW  Elec       q    Type
REMARK                         _______ _______ _______ _____ _____    ______ ____
ROOT
ATOM     10  C   UNL     1      -2.421   2.067  24.129  0.00  0.00    +0.249 C 
ATOM     11  O   UNL     1      -1.968   2.609  23.701  0.00  0.00    -0.270 OA
ATOM     12  N   UNL     1      -2.137   1.305  24.260  0.00  0.00    -0.276 N 
ATOM     13  C   UNL     1      -2.589   0.763  24.687  0.00  0.00    +0.094 C 
ATOM     14  C   UNL     1      -2.305  -0.000  24.818  0.00  0.00    +0.022 C 
ATOM     15  C   UNL     1      -1.568  -0.222  24.521  0.00  0.00    +0.015 C 
ATOM     20  C   UNL     1      -1.115   0.318  24.094  0.00  0.00    +0.022 C 
ATOM     36  C   UNL     1      -1.400   1.082  23.963  0.00  0.00    +0.094 C 
ENDROOT
BRANCH  10   7
ATOM      4  C   UNL     1      -4.632   2.733  25.019  0.00  0.00    +0.048 A 
ATOM      5  C   UNL     1      -3.950   2.868  25.463  0.00  0.00    +0.015 A 
ATOM      6  C   UNL     1      -3.214   2.647  25.167  0.00  0.00    +0.006 A 
ATOM      7  C   UNL     1      -3.158   2.289  24.426  0.00  0.00    +0.054 A 
ATOM      8  C   UNL     1      -3.840   2.154  23.980  0.00  0.00    +0.006 A 
ATOM      9  C   UNL     1      -4.576   2.376  24.277  0.00  0.00    +0.015 A 
BRANCH   4   2
ATOM      1  C   UNL     1      -5.960   2.389  25.417  0.00  0.00    +0.112 C 
ATOM      2  N   UNL     1      -5.369   2.956  25.316  0.00  0.00    -0.304 N 
ATOM      3  C   UNL     1      -5.514   3.743  25.510  0.00  0.00    +0.112 C 
ENDBRANCH   4   2
ENDBRANCH  10   7
BRANCH  15  16
ATOM     16  C   UNL     1      -1.283  -0.986  24.652  0.00  0.00    +0.114 C 
BRANCH  16  17
ATOM     17  C   UNL     1      -1.786  -1.567  24.952  0.00  0.00    +0.365 C 
ATOM     18  O   UNL     1      -2.185  -2.074  24.438  0.00  0.00    -0.246 OA
ATOM     19  O   UNL     1      -1.890  -1.641  25.768  0.00  0.00    -0.246 OA
ENDBRANCH  16  17
ENDBRANCH  15  16
BRANCH  20  21
ATOM     21  C   UNL     1      -0.378   0.096  23.797  0.00  0.00    +0.019 C 
BRANCH  21  22
ATOM     22  C   UNL     1       0.034   0.604  23.295  0.00  0.00    +0.072 C 
BRANCH  22  23
ATOM     23  N   UNL     1       0.856   0.545  23.232  0.00  0.00    -0.270 NA
ATOM     24  C   UNL     1       1.192  -0.059  22.780  0.00  0.00    +0.094 C 
ATOM     25  C   UNL     1       2.012  -0.118  22.717  0.00  0.00    +0.108 C 
ATOM     26  N   UNL     1       2.496   0.427  23.105  0.00  0.00    -0.305 N 
ATOM     27  C   UNL     1       2.160   1.030  23.556  0.00  0.00    +0.108 C 
ATOM     28  C   UNL     1       1.339   1.089  23.619  0.00  0.00    +0.094 C 
BRANCH  26  29
ATOM     29  C   UNL     1       3.316   0.368  23.042  0.00  0.00    +0.048 A 
ATOM     30  C   UNL     1       3.705  -0.301  23.329  0.00  0.00    +0.017 A 
ATOM     31  C   UNL     1       4.526  -0.360  23.266  0.00  0.00    +0.031 A 
ATOM     32  C   UNL     1       4.958   0.249  22.915  0.00  0.00    +0.140 A 
ATOM     33  F   UNL     1       5.777   0.190  22.852  0.00  0.00    -0.204 F 
ATOM     34  C   UNL     1       4.569   0.918  22.628  0.00  0.00    +0.031 A 
ATOM     35  C   UNL     1       3.748   0.977  22.691  0.00  0.00    +0.017 A 
ENDBRANCH  26  29
ENDBRANCH  22  23
ENDBRANCH  21  22
ENDBRANCH  20  21
TORSDOF 8
ENDMDL
MODEL 2
REMARK VINA RESULT:      -6.8      1.344      2.314
REMARK  Name = 
REMARK  8 active torsions:
REMARK  status: ('A' for Active; 'I' for Inactive)
REMARK    1  A    between atoms: N_2  and  C_4
REMARK    2  A    between atoms: C_7  and  C_10
REMARK    3  A    between atoms: C_15  and  C_16
REMARK    4  A    between atoms: C_16  and  C_17
REMARK    5  A    between atoms: C_20  and  C_21
REMARK    6  A    between atoms: C_21  and  C_22
REMARK    7  A    between atoms: C_22  and  N_23
REMARK    8  A    between atoms: N_26  and  C_29
REMARK                            x       y       z     vdW  Elec       q    Type
REMARK                         _______ _______ _______ _____ _____    ______ ____
ROOT
ATOM     10  C   UNL     1      -3.127   1.191  24.112  0.00  0.00    +0.249 C 
ATOM     11  O   UNL     1      -2.998   0.508  23.667  0.00  0.00    -0.270 OA
ATOM     12  N   UNL     1      -2.505   1.712  24.259  0.00  0.00    -0.276 N 
ATOM     13  C   UNL     1      -2.634   2.395  24.704  0.00  0.00    +0.094 C 
ATOM     14  C   UNL     1      -2.012   2.916  24.850  0.00  0.00    +0.022 C 
ATOM     15  C   UNL     1      -1.260   2.755  24.552  0.00  0.00    +0.015 C 
ATOM     20  C   UNL     1      -1.130   2.073  24.107  0.00  0.00    +0.022 C 
ATOM     36  C   UNL     1      -1.753   1.551  23.960  0.00  0.00    +0.094 C 
ENDROOT
BRANCH  10   7
ATOM      4  C   UNL     1      -5.383   1.675  25.008  0.00  0.00    +0.048 A 
ATOM      5  C   UNL     1      -4.940   1.052  25.318  0.00  0.00    +0.015 A 
ATOM      6  C   UNL     1      -4.189   0.891  25.020  0.00  0.00    +0.006 A 
ATOM      7  C   UNL     1      -3.879   1.352  24.411  0.00  0.00    +0.054 A 
ATOM      8  C   UNL     1      -4.321   1.976  24.100  0.00  0.00    +0.006 A 
ATOM      9  C   UNL     1      -5.072   2.137  24.398  0.00  0.00    +0.015 A 
BRANCH   4   2
ATOM      1  C   UNL     1      -6.800   1.722  24.831  0.00  0.00    +0.112 C 
ATOM      2  N   UNL     1      -6.135   1.836  25.306  0.00  0.00    -0.304 N 
ATOM      3  C   UNL     1      -6.221   2.111  26.079  0.00  0.00    +0.112 C 
ENDBRANCH   4   2
ENDBRANCH  10   7
BRANCH  15  16
ATOM     16  C   UNL     1      -0.637   3.276  24.698  0.00  0.00    +0.114 C 
BRANCH  16  17
ATOM     17  C   UNL     1      -0.757   3.937  25.178  0.00  0.00    +0.365 C 
ATOM     18  O   UNL     1      -0.881   4.678  24.837  0.00  0.00    -0.246 OA
ATOM     19  O   UNL     1      -0.752   3.855  26.000  0.00  0.00    -0.246 OA
ENDBRANCH  16  17
ENDBRANCH  15  16
BRANCH  20  21
ATOM     21  C   UNL     1      -0.378   1.911  23.808  0.00  0.00    +0.019 C 
BRANCH  21  22
ATOM     22  C   UNL     1      -0.146   1.132  23.675  0.00  0.00    +0.072 C 
BRANCH  22  23
ATOM     23  N   UNL     1       0.646   0.958  23.517  0.00  0.00    -0.270 NA
ATOM     24  C   UNL     1       0.841   0.293  23.069  0.00  0.00    +0.094 C 
ATOM     25  C   UNL     1       1.632   0.119  22.911  0.00  0.00    +0.108 C 
ATOM     26  N   UNL     1       2.227   0.611  23.202  0.00  0.00    -0.305 N 
ATOM     27  C   UNL     1       2.033   1.275  23.649  0.00  0.00    +0.108 C 
ATOM     28  C   UNL     1       1.242   1.449  23.807  0.00  0.00    +0.094 C 
BRANCH  26  29
ATOM     29  C   UNL     1       3.018   0.438  23.044  0.00  0.00    +0.048 A 
ATOM     30  C   UNL     1       3.498   0.998  22.674  0.00  0.00    +0.017 A 
ATOM     31  C   UNL     1       4.289   0.825  22.516  0.00  0.00    +0.031 A 
ATOM     32  C   UNL     1       4.601   0.090  22.728  0.00  0.00    +0.140 A 
ATOM     33  F   UNL     1       5.391  -0.083  22.570  0.00  0.00    -0.204 F 
ATOM     34  C   UNL     1       4.121  -0.470  23.098  0.00  0.00    +0.031 A 
ATOM     35  C   UNL     1       3.330  -0.296  23.255  0.00  0.00    +0.017 A 
ENDBRANCH  26  29
ENDBRANCH  22  23
ENDBRANCH  21  22
ENDBRANCH  20  21
TORSDOF 8
ENDMDL
MODEL 3
REMARK VINA RESULT:      -6.5      2.375      6.762
REMARK  Name = 
REMARK  8 active torsions:
REMARK  status: ('A' for Active; 'I' for Inactive)
REMARK    1  A    between atoms: N_2  and  C_4
REMARK    2  A    between atoms: C_7  and  C_10
REMARK    3  A    between atoms: C_15  and  C_16
REMARK    4  A    between atoms: C_16  and  C_17
REMARK    5  A    between atoms: C_20  and  C_21
REMARK    6  A    between atoms: C_21  and  C_22
REMARK    7  A    between atoms: C_22  and  N_23
REMARK    8  A    between atoms: N_26  and  C_29
REMARK                            x       y       z     vdW  Elec       q    Type
REMARK                         _______ _______ _______ _____ _____    ______ ____
ROOT
ATOM     10  C   UNL     1       0.275   0.795  23.450  0.00  0.00    +0.249 C 
ATOM     11  O   UNL     1      -0.028   1.548  23.302  0.00  0.00    -0.270 OA
ATOM     12  N   UNL     1      -0.197   0.224  23.810  0.00  0.00    -0.276 N 
ATOM     13  C   UNL     1       0.105  -0.529  23.958  0.00  0.00    +0.094 C 
ATOM     14  C   UNL     1      -0.367  -1.101  24.318  0.00  0.00    +0.022 C 
ATOM     15  C   UNL     1      -1.143  -0.920  24.531  0.00  0.00    +0.015 C 
ATOM     20  C   UNL     1      -1.447  -0.168  24.383  0.00  0.00    +0.022 C 
ATOM     36  C   UNL     1      -0.974   0.405  24.022  0.00  0.00    +0.094 C 
ENDROOT
BRANCH  10   7
ATOM      4  C   UNL     1       2.604   0.252  22.812  0.00  0.00    +0.048 A 
ATOM      5  C   UNL     1       1.974  -0.096  22.410  0.00  0.00    +0.015 A 
ATOM      6  C   UNL     1       1.198   0.085  22.622  0.00  0.00    +0.006 A 
ATOM      7  C   UNL     1       1.051   0.614  23.237  0.00  0.00    +0.054 A 
ATOM      8  C   UNL     1       1.682   0.963  23.640  0.00  0.00    +0.006 A 
ATOM      9  C   UNL     1       2.457   0.783  23.428  0.00  0.00    +0.015 A 
BRANCH   4   2
ATOM      1  C   UNL     1       3.729   0.447  21.953  0.00  0.00    +0.112 C 
ATOM      2  N   UNL     1       3.380   0.072  22.599  0.00  0.00    -0.304 N 
ATOM      3  C   UNL     1       3.807  -0.484  23.033  0.00  0.00    +0.112 C 
ENDBRANCH   4   2
ENDBRANCH  10   7
BRANCH  15  16
ATOM     16  C   UNL     1      -1.617  -1.492  24.891  0.00  0.00    +0.114 C 
BRANCH  16  17
ATOM     17  C   UNL     1      -1.428  -2.292  24.814  0.00  0.00    +0.365 C 
ATOM     18  O   UNL     1      -1.773  -2.742  24.215  0.00  0.00    -0.246 OA
ATOM     19  O   UNL     1      -0.893  -2.641  25.337  0.00  0.00    -0.246 OA
ENDBRANCH  16  17
ENDBRANCH  15  16
BRANCH  20  21
ATOM     21  C   UNL     1      -2.224   0.013  24.596  0.00  0.00    +0.019 C 
BRANCH  21  22
ATOM     22  C   UNL     1      -2.725   0.380  24.053  0.00  0.00    +0.072 C 
BRANCH  22  23
ATOM     23  N   UNL     1      -3.253   0.961  24.307  0.00  0.00    -0.270 NA
ATOM     24  C   UNL     1      -3.365   1.642  23.855  0.00  0.00    +0.094 C 
ATOM     25  C   UNL     1      -3.893   2.223  24.108  0.00  0.00    +0.108 C 
ATOM     26  N   UNL     1      -4.309   2.122  24.814  0.00  0.00    -0.305 N 
ATOM     27  C   UNL     1      -4.197   1.442  25.265  0.00  0.00    +0.108 C 
ATOM     28  C   UNL     1      -3.669   0.861  25.012  0.00  0.00    +0.094 C 
BRANCH  26  29
ATOM     29  C   UNL     1      -4.837   2.703  25.067  0.00  0.00    +0.048 A 
ATOM     30  C   UNL     1      -4.581   3.483  25.159  0.00  0.00    +0.017 A 
ATOM     31  C   UNL     1      -5.109   4.064  25.413  0.00  0.00    +0.031 A 
ATOM     32  C   UNL     1      -5.894   3.866  25.575  0.00  0.00    +0.140 A 
ATOM     33  F   UNL     1      -6.421   4.446  25.828  0.00  0.00    -0.204 F 
ATOM     34  C   UNL     1      -6.150   3.087  25.482  0.00  0.00    +0.031 A 
ATOM     35  C   UNL     1      -5.621   2.506  25.229  0.00  0.00    +0.017 A 
ENDBRANCH  26  29
ENDBRANCH  22  23
ENDBRANCH  21  22
ENDBRANCH  20  21
TORSDOF 8
ENDMDL
MODEL 4
REMARK VINA RESULT:      -6.5     14.626     15.802
REMARK  Name = 
REMARK  8 active torsions:
REMARK  status: ('A' for Active; 'I' for Inactive)
REMARK    1  A    between atoms: N_2  and  C_4
REMARK    2  A    between atoms: C_7  and  C_10
REMARK    3  A    between atoms: C_15  and  C_16
REMARK    4  A    between atoms: C_16  and  C_17
REMARK    5  A    between atoms: C_20  and  C_21
REMARK    6  A    between atoms: C_21  and  C_22
REMARK    7  A    between atoms: C_22  and  N_23
REMARK    8  A    between atoms: N_26  and  C_29
REMARK                            x       y       z     vdW  Elec       q    Type
REMARK                         _______ _______ _______ _____ _____    ______ ____
ROOT
ATOM     10  C   UNL     1      -8.275  -9.949  15.755  0.00  0.00    +0.249 C 
ATOM     11  O   UNL     1      -8.653  -9.903  15.023  0.00  0.00    -0.270 OA
ATOM     12  N   UNL     1      -7.452  -9.983  15.794  0.00  0.00    -0.276 N 
ATOM     13  C   UNL     1      -7.074 -10.028  16.527  0.00  0.00    +0.094 C 
ATOM     14  C   UNL     1      -6.252 -10.062  16.565  0.00  0.00    +0.022 C 
ATOM     15  C   UNL     1      -5.805 -10.050  15.872  0.00  0.00    +0.015 C 
ATOM     20  C   UNL     1      -6.182 -10.005  15.139  0.00  0.00    +0.022 C 
ATOM     36  C   UNL     1      -7.006  -9.971  15.101  0.00  0.00    +0.094 C 
ENDROOT
BRANCH  10   7
ATOM      4  C   UNL     1      -9.614  -9.984  17.836  0.00  0.00    +0.048 A 
ATOM      5  C   UNL     1      -9.438 -10.689  17.447  0.00  0.00    +0.015 A 
ATOM      6  C   UNL     1      -8.992 -10.678  16.754  0.00  0.00    +0.006 A 
ATOM      7  C   UNL     1      -8.721  -9.961  16.449  0.00  0.00    +0.054 A 
ATOM      8  C   UNL     1      -8.897  -9.254  16.839  0.00  0.00    +0.006 A 
ATOM      9  C   UNL     1      -9.343  -9.266  17.532  0.00  0.00    +0.015 A 
BRANCH   4   2
ATOM      1  C   UNL     1     -10.699  -9.480  18.618  0.00  0.00    +0.112 C 
ATOM      2  N   UNL     1     -10.060  -9.996  18.530  0.00  0.00    -0.304 N 
ATOM      3  C   UNL     1      -9.868 -10.522  19.135  0.00  0.00    +0.112 C 
ENDBRANCH   4   2
ENDBRANCH  10   7
BRANCH  15  16
ATOM     16  C   UNL     1      -4.981 -10.084  15.910  0.00  0.00    +0.114 C 
BRANCH  16  17
ATOM     17  C   UNL     1      -4.603 -10.076  16.643  0.00  0.00    +0.365 C 
ATOM     18  O   UNL     1      -4.340 -10.781  16.981  0.00  0.00    -0.246 OA
ATOM     19  O   UNL     1      -4.487  -9.360  17.039  0.00  0.00    -0.246 OA
ENDBRANCH  16  17
ENDBRANCH  15  16
BRANCH  20  21
ATOM     21  C   UNL     1      -5.735  -9.993  14.445  0.00  0.00    +0.019 C 
BRANCH  21  22
ATOM     22  C   UNL     1      -6.071 -10.243  13.735  0.00  0.00    +0.072 C 
BRANCH  22  23
ATOM     23  N   UNL     1      -5.720 -10.035  13.017  0.00  0.00    -0.270 NA
ATOM     24  C   UNL     1      -4.915 -10.168  12.898  0.00  0.00    +0.094 C 
ATOM     25  C   UNL     1      -4.564  -9.960  12.181  0.00  0.00    +0.108 C 
ATOM     26  N   UNL     1      -5.019  -9.619  11.583  0.00  0.00    -0.305 N 
ATOM     27  C   UNL     1      -5.824  -9.485  11.703  0.00  0.00    +0.108 C 
ATOM     28  C   UNL     1      -6.175  -9.693  12.420  0.00  0.00    +0.094 C 
BRANCH  26  29
ATOM     29  C   UNL     1      -4.669  -9.411  10.866  0.00  0.00    +0.048 A 
ATOM     30  C   UNL     1      -4.676  -8.624  10.616  0.00  0.00    +0.017 A 
ATOM     31  C   UNL     1      -4.325  -8.416   9.899  0.00  0.00    +0.031 A 
ATOM     32  C   UNL     1      -3.968  -8.995   9.431  0.00  0.00    +0.140 A 
ATOM     33  F   UNL     1      -3.618  -8.787   8.714  0.00  0.00    -0.204 F 
ATOM     34  C   UNL     1      -3.961  -9.781   9.681  0.00  0.00    +0.031 A 
ATOM     35  C   UNL     1      -4.312  -9.989  10.398  0.00  0.00    +0.017 A 
ENDBRANCH  26  29
ENDBRANCH  22  23
ENDBRANCH  21  22
ENDBRANCH  20  21
TORSDOF 8
ENDMDL
MODEL 5
REMARK VINA RESULT:      -6.1     15.411     16.556
REMARK  Name = 
REMARK  8 active torsions:
REMARK  status: ('A' for Active; 'I' for Inactive)
REMARK    1  A    between atoms: N_2  and  C_4
REMARK    2  A    between atoms: C_7  and  C_10
REMARK    3  A    between atoms: C_15  and  C_16
REMARK    4  A    between atoms: C_16  and  C_17
REMARK    5  A    between atoms: C_20  and  C_21
REMARK    6  A    between atoms: C_21  and  C_22
REMARK    7  A    between atoms: C_22  and  N_23
REMARK    8  A    between atoms: N_26  and  C_29
REMARK                            x       y       z     vdW  Elec       q    Type
REMARK                         _______ _______ _______ _____ _____    ______ ____
ROOT
ATOM     10  C   UNL     1      -8.024  -9.933  16.058  0.00  0.00    +0.249 C 
ATOM     11  O   UNL     1      -7.206  -9.876  16.142  0.00  0.00    -0.270 OA
ATOM     12  N   UNL     1      -8.363  -9.936  15.306  0.00  0.00    -0.276 N 
ATOM     13  C   UNL     1      -9.182  -9.993  15.222  0.00  0.00    +0.094 C 
ATOM     14  C   UNL     1      -9.521  -9.996  14.471  0.00  0.00    +0.022 C 
ATOM     15  C   UNL     1      -9.041  -9.942  13.802  0.00  0.00    +0.015 C 
ATOM     20  C   UNL     1      -8.222  -9.885  13.885  0.00  0.00    +0.022 C 
ATOM     36  C   UNL     1      -7.883  -9.882  14.638  0.00  0.00    +0.094 C 
ENDROOT
BRANCH  10   7
ATOM      4  C   UNL     1      -9.465 -10.094  18.064  0.00  0.00    +0.048 A 
ATOM      5  C   UNL     1      -9.228  -9.355  17.784  0.00  0.00    +0.015 A 
ATOM      6  C   UNL     1      -8.749  -9.302  17.116  0.00  0.00    +0.006 A 
ATOM      7  C   UNL     1      -8.504  -9.987  16.727  0.00  0.00    +0.054 A 
ATOM      8  C   UNL     1      -8.741 -10.726  17.007  0.00  0.00    +0.006 A 
ATOM      9  C   UNL     1      -9.220 -10.780  17.675  0.00  0.00    +0.015 A 
BRANCH   4   2
ATOM      1  C   UNL     1     -10.710  -9.841  18.716  0.00  0.00    +0.112 C 
ATOM      2  N   UNL     1      -9.945 -10.148  18.733  0.00  0.00    -0.304 N 
ATOM      3  C   UNL     1      -9.659 -10.509  19.417  0.00  0.00    +0.112 C 
ENDBRANCH   4   2
ENDBRANCH  10   7
BRANCH  15  16
ATOM     16  C   UNL     1      -9.379  -9.945  13.049  0.00  0.00    +0.114 C 
BRANCH  16  17
ATOM     17  C   UNL     1     -10.199  -9.988  12.966  0.00  0.00    +0.365 C 
ATOM     18  O   UNL     1     -10.647  -9.296  12.937  0.00  0.00    -0.246 OA
ATOM     19  O   UNL     1     -10.570 -10.723  12.913  0.00  0.00    -0.246 OA
ENDBRANCH  16  17
ENDBRANCH  15  16
BRANCH  20  21
ATOM     21  C   UNL     1      -7.742  -9.831  13.216  0.00  0.00    +0.019 C 
BRANCH  21  22
ATOM     22  C   UNL     1      -6.923  -9.792  13.299  0.00  0.00    +0.072 C 
BRANCH  22  23
ATOM     23  N   UNL     1      -6.448  -9.639  12.640  0.00  0.00    -0.270 NA
ATOM     24  C   UNL     1      -6.062 -10.260  12.258  0.00  0.00    +0.094 C 
ATOM     25  C   UNL     1      -5.587 -10.108  11.600  0.00  0.00    +0.108 C 
ATOM     26  N   UNL     1      -5.500  -9.335  11.326  0.00  0.00    -0.305 N 
ATOM     27  C   UNL     1      -5.886  -8.715  11.708  0.00  0.00    +0.108 C 
ATOM     28  C   UNL     1      -6.360  -8.867  12.366  0.00  0.00    +0.094 C 
BRANCH  26  29
ATOM     29  C   UNL     1      -5.026  -9.183  10.668  0.00  0.00    +0.048 A 
ATOM     30  C   UNL     1      -4.204  -9.225  10.733  0.00  0.00    +0.017 A 
ATOM     31  C   UNL     1      -3.729  -9.073  10.075  0.00  0.00    +0.031 A 
ATOM     32  C   UNL     1      -4.077  -8.878   9.352  0.00  0.00    +0.140 A 
ATOM     33  F   UNL     1      -3.603  -8.726   8.695  0.00  0.00    -0.204 F 
ATOM     34  C   UNL     1      -4.898  -8.836   9.288  0.00  0.00    +0.031 A 
ATOM     35  C   UNL     1      -5.372  -8.988   9.945  0.00  0.00    +0.017 A 
ENDBRANCH  26  29
ENDBRANCH  22  23
ENDBRANCH  21  22
ENDBRANCH  20  21
TORSDOF 8
ENDMDL
MODEL 6
REMARK VINA RESULT:      -5.0     14.671     16.028
REMARK  Name = 
REMARK  8 active torsions:
REMARK  status: ('A' for Active; 'I' for Inactive)
REMARK    1  A    between atoms: N_2  and  C_4
REMARK    2  A    between atoms: C_7  and  C_10
REMARK    3  A    between atoms: C_15  and  C_16
REMARK    4  A    between atoms: C_16  and  C_17
REMARK    5  A    between atoms: C_20  and  C_21
REMARK    6  A    between atoms: C_21  and  C_22
REMARK    7  A    between atoms: C_22  and  N_23
REMARK    8  A    between atoms: N_26  and  C_29
REMARK                            x       y       z     vdW  Elec       q    Type
REMARK                         _______ _______ _______ _____ _____    ______ ____
ROOT
ATOM     10  C   UNL     1      -5.658 -10.120  16.508  0.00  0.00    +0.249 C 
ATOM     11  O   UNL     1      -4.881  -9.965  16.280  0.00  0.00    -0.270 OA
ATOM     12  N   UNL     1      -6.255 -10.160  15.941  0.00  0.00    -0.276 N 
ATOM     13  C   UNL     1      -7.033 -10.316  16.170  0.00  0.00    +0.094 C 
ATOM     14  C   UNL     1      -7.630 -10.356  15.603  0.00  0.00    +0.022 C 
ATOM     15  C   UNL     1      -7.450 -10.242  14.806  0.00  0.00    +0.015 C 
ATOM     20  C   UNL     1      -6.673 -10.087  14.576  0.00  0.00    +0.022 C 
ATOM     36  C   UNL     1      -6.075 -10.046  15.144  0.00  0.00    +0.094 C 
ENDROOT
BRANCH  10   7
ATOM      4  C   UNL     1      -6.199 -10.463  18.899  0.00  0.00    +0.048 A 
ATOM      5  C   UNL     1      -6.711 -10.031  18.418  0.00  0.00    +0.015 A 
ATOM      6  C   UNL     1      -6.531  -9.917  17.622  0.00  0.00    +0.006 A 
ATOM      7  C   UNL     1      -5.839 -10.234  17.305  0.00  0.00    +0.054 A 
ATOM      8  C   UNL     1      -5.326 -10.667  17.787  0.00  0.00    +0.006 A 
ATOM      9  C   UNL     1      -5.506 -10.781  18.583  0.00  0.00    +0.015 A 
BRANCH   4   2
ATOM      1  C   UNL     1      -5.771 -10.668  20.247  0.00  0.00    +0.112 C 
ATOM      2  N   UNL     1      -6.379 -10.578  19.696  0.00  0.00    -0.304 N 
ATOM      3  C   UNL     1      -7.165 -10.602  19.941  0.00  0.00    +0.112 C 
ENDBRANCH   4   2
ENDBRANCH  10   7
BRANCH  15  16
ATOM     16  C   UNL     1      -8.047 -10.282  14.237  0.00  0.00    +0.114 C 
BRANCH  16  17
ATOM     17  C   UNL     1      -8.832 -10.156  14.456  0.00  0.00    +0.365 C 
ATOM     18  O   UNL     1      -9.286 -10.780  14.748  0.00  0.00    -0.246 OA
ATOM     19  O   UNL     1      -9.165  -9.404  14.381  0.00  0.00    -0.246 OA
ENDBRANCH  16  17
ENDBRANCH  15  16
BRANCH  20  21
ATOM     21  C   UNL     1      -6.493  -9.972  13.779  0.00  0.00    +0.019 C 
BRANCH  21  22
ATOM     22  C   UNL     1      -5.774 -10.239  13.477  0.00  0.00    +0.072 C 
BRANCH  22  23
ATOM     23  N   UNL     1      -5.528 -10.001  12.725  0.00  0.00    -0.270 NA
ATOM     24  C   UNL     1      -5.783  -9.278  12.418  0.00  0.00    +0.094 C 
ATOM     25  C   UNL     1      -5.538  -9.040  11.667  0.00  0.00    +0.108 C 
ATOM     26  N   UNL     1      -5.038  -9.525  11.224  0.00  0.00    -0.305 N 
ATOM     27  C   UNL     1      -4.784 -10.247  11.531  0.00  0.00    +0.108 C 
ATOM     28  C   UNL     1      -5.029 -10.485  12.282  0.00  0.00    +0.094 C 
BRANCH  26  29
ATOM     29  C   UNL     1      -4.793  -9.287  10.473  0.00  0.00    +0.048 A 
ATOM     30  C   UNL     1      -4.021  -9.440  10.223  0.00  0.00    +0.017 A 
ATOM     31  C   UNL     1      -3.775  -9.202   9.472  0.00  0.00    +0.031 A 
ATOM     32  C   UNL     1      -4.302  -8.811   8.970  0.00  0.00    +0.140 A 
ATOM     33  F   UNL     1      -4.057  -8.573   8.220  0.00  0.00    -0.204 F 
ATOM     34  C   UNL     1      -5.073  -8.658   9.221  0.00  0.00    +0.031 A 
ATOM     35  C   UNL     1      -5.318  -8.896   9.972  0.00  0.00    +0.017 A 
ENDBRANCH  26  29
ENDBRANCH  22  23
ENDBRANCH  21  22
ENDBRANCH  20  21
TORSDOF 8
ENDMDL
