MODEL 1
REMARK VINA RESULT:      -9.7      0.000      0.000
REMARK  Name = 
REMARK  7 active torsions:
REMARK  status: ('A' for Active; 'I' for Inactive)
REMARK    1  A    between atoms: C_2  and  C_5
REMARK    2  A    between atoms: C_5  and  C_6
REMARK    3  A    between atoms: N_8  and  C_9
REMARK    4  A    between atoms: C_12  and  C_15
REMARK    5  A    between atoms: N_20  and  C_21
REMARK    6  A    between atoms: C_21  and  C_22
REMARK    7  A    between atoms: C_24  and  C_25
REMARK                            x       y       z     vdW  Elec       q    Type
REMARK                         _______ _______ _______ _____ _____    ______ ____
ROOT
ATOM      9  C   UNL     1      -3.867   1.865  24.496  0.00  0.00    +0.073 A 
ATOM     10  C   UNL     1      -4.286   1.402  25.035  0.00  0.00    +0.016 A 
ATOM     11  C   UNL     1      -4.269   0.580  24.973  0.00  0.00    -0.001 A 
ATOM     12  C   UNL     1      -3.834   0.220  24.371  0.00  0.00    +0.006 A 
ATOM     13  C   UNL     1      -3.415   0.683  23.831  0.00  0.00    -0.001 A 
ATOM     14  C   UNL     1      -3.431   1.505  23.894  0.00  0.00    +0.016 A 
ENDROOT
BRANCH  12  15
ATOM     15  C   UNL     1      -3.818  -0.602  24.309  0.00  0.00    +0.159 C 
ATOM     16  O   UNL     1      -4.437  -1.000  23.937  0.00  0.00    -0.341 OA
ATOM     17  C   UNL     1      -4.421  -1.823  23.875  0.00  0.00    +0.227 C 
ATOM     18  C   UNL     1      -3.786  -2.247  24.185  0.00  0.00    +0.256 C 
ATOM     19  O   UNL     1      -3.769  -3.070  24.123  0.00  0.00    -0.272 OA
ATOM     20  N   UNL     1      -3.166  -1.850  24.558  0.00  0.00    -0.272 N 
ATOM     24  C   UNL     1      -3.182  -1.027  24.620  0.00  0.00    +0.140 C 
BRANCH  24  25
ATOM     25  C   UNL     1      -2.563  -0.629  24.994  0.00  0.00    +0.205 C 
ATOM     26  O   UNL     1      -2.404  -0.767  25.790  0.00  0.00    -0.218 OA
ENDBRANCH  24  25
BRANCH  20  21
ATOM     21  C   UNL     1      -2.530  -2.274  24.869  0.00  0.00    +0.114 C 
BRANCH  21  22
ATOM     22  C   UNL     1      -2.003  -2.658  24.362  0.00  0.00    +0.131 C 
ATOM     23  N   UNL     1      -1.280  -2.931  24.650  0.00  0.00    -0.130 NA
ENDBRANCH  21  22
ENDBRANCH  20  21
ENDBRANCH  12  15
BRANCH   9   8
ATOM      6  C   UNL     1      -3.277   3.083  24.954  0.00  0.00    +0.246 C 
ATOM      7  O   UNL     1      -2.654   2.657  25.287  0.00  0.00    -0.273 OA
ATOM      8  N   UNL     1      -3.883   2.688  24.558  0.00  0.00    -0.179 NA
BRANCH   6   5
ATOM      5  C   UNL     1      -3.293   3.906  25.016  0.00  0.00    +0.087 C 
BRANCH   5   2
ATOM      1  C   UNL     1      -2.003   4.711  25.656  0.00  0.00    +0.000 C 
ATOM      2  C   UNL     1      -2.647   4.309  25.336  0.00  0.00    +0.009 C 
ATOM      3  C   UNL     1      -2.979   4.241  26.088  0.00  0.00    +0.000 C 
ATOM      4  C   UNL     1      -2.316   4.376  24.583  0.00  0.00    +0.000 C 
ENDBRANCH   5   2
ENDBRANCH   6   5
ENDBRANCH   9   8
TORSDOF 7
ENDMDL
MODEL 2
REMARK VINA RESULT:      -9.4      1.298      5.115
REMARK  Name = 
REMARK  7 active torsions:
REMARK  status: ('A' for Active; 'I' for Inactive)
REMARK    1  A    between atoms: C_2  and  C_5
REMARK    2  A    between atoms: C_5  and  C_6
REMARK    3  A    between atoms: N_8  and  C_9
REMARK    4  A    between atoms: C_12  and  C_15
REMARK    5  A    between atoms: N_20  and  C_21
REMARK    6  A    between atoms: C_21  and  C_22
REMARK    7  A    between atoms: C_24  and  C_25
REMARK                            x       y       z     vdW  Elec       q    Type
REMARK                         _______ _______ _______ _____ _____    ______ ____
ROOT
ATOM      9  C   UNL     1      -4.090   0.184  24.387  0.00  0.00    +0.073 A 
ATOM     10  C   UNL     1      -3.631   0.548  23.806  0.00  0.00    +0.016 A 
ATOM     11  C   UNL     1      -3.383   1.328  23.906  0.00  0.00    -0.001 A 
ATOM     12  C   UNL     1      -3.593   1.745  24.587  0.00  0.00    +0.006 A 
ATOM     13  C   UNL     1      -4.053   1.380  25.168  0.00  0.00    -0.001 A 
ATOM     14  C   UNL     1      -4.301   0.599  25.068  0.00  0.00    +0.016 A 
ENDROOT
BRANCH  12  15
ATOM     15  C   UNL     1      -3.345   2.524  24.686  0.00  0.00    +0.159 C 
ATOM     16  O   UNL     1      -3.877   3.144  24.577  0.00  0.00    -0.341 OA
ATOM     17  C   UNL     1      -3.629   3.925  24.677  0.00  0.00    +0.227 C 
ATOM     18  C   UNL     1      -2.848   4.085  24.887  0.00  0.00    +0.256 C 
ATOM     19  O   UNL     1      -2.599   4.866  24.987  0.00  0.00    -0.272 OA
ATOM     20  N   UNL     1      -2.314   3.465  24.996  0.00  0.00    -0.272 N 
ATOM     24  C   UNL     1      -2.563   2.685  24.896  0.00  0.00    +0.140 C 
BRANCH  24  25
ATOM     25  C   UNL     1      -2.029   2.064  25.006  0.00  0.00    +0.205 C 
ATOM     26  O   UNL     1      -1.637   1.980  25.726  0.00  0.00    -0.218 OA
ENDBRANCH  24  25
BRANCH  20  21
ATOM     21  C   UNL     1      -1.532   3.625  25.206  0.00  0.00    +0.114 C 
BRANCH  21  22
ATOM     22  C   UNL     1      -1.092   4.171  24.770  0.00  0.00    +0.131 C 
ATOM     23  N   UNL     1      -0.303   4.314  24.966  0.00  0.00    -0.130 NA
ENDBRANCH  21  22
ENDBRANCH  20  21
ENDBRANCH  12  15
BRANCH   9   8
ATOM      6  C   UNL     1      -3.852  -1.219  24.527  0.00  0.00    +0.246 C 
ATOM      7  O   UNL     1      -3.117  -1.061  24.867  0.00  0.00    -0.273 OA
ATOM      8  N   UNL     1      -4.339  -0.597  24.286  0.00  0.00    -0.179 NA
BRANCH   6   5
ATOM      5  C   UNL     1      -4.100  -1.999  24.427  0.00  0.00    +0.087 C 
BRANCH   5   2
ATOM      1  C   UNL     1      -3.014  -3.234  24.559  0.00  0.00    +0.000 C 
ATOM      2  C   UNL     1      -3.557  -2.617  24.493  0.00  0.00    +0.009 C 
ATOM      3  C   UNL     1      -3.585  -2.729  23.676  0.00  0.00    +0.000 C 
ATOM      4  C   UNL     1      -3.529  -2.505  25.310  0.00  0.00    +0.000 C 
ENDBRANCH   5   2
ENDBRANCH   6   5
ENDBRANCH   9   8
TORSDOF 7
ENDMDL
MODEL 3
REMARK VINA RESULT:      -9.1      1.626      2.382
REMARK  Name = 
REMARK  7 active torsions:
REMARK  status: ('A' for Active; 'I' for Inactive)
REMARK    1  A    between atoms: C_2  and  C_5
REMARK    2  A    between atoms: C_5  and  C_6
REMARK    3  A    between atoms: N_8  and  C_9
REMARK    4  A    between atoms: C_12  and  C_15
REMARK    5  A    between atoms: N_20  and  C_21
REMARK    6  A    between atoms: C_21  and  C_22
REMARK    7  A    between atoms: C_24  and  C_25
REMARK                            x       y       z     vdW  Elec       q    Type
REMARK                         _______ _______ _______ _____ _____    ______ ____
ROOT
ATOM      9  C   UNL     1      -0.749   1.724  25.090  0.00  0.00    +0.073 A 
ATOM     10  C   UNL     1      -0.907   1.447  24.330  0.00  0.00    +0.016 A 
ATOM     11  C   UNL     1      -1.170   0.673  24.219  0.00  0.00    -0.001 A 
ATOM     12  C   UNL     1      -1.275   0.176  24.869  0.00  0.00    +0.006 A 
ATOM     13  C   UNL     1      -1.117   0.454  25.630  0.00  0.00    -0.001 A 
ATOM     14  C   UNL     1      -0.854   1.228  25.741  0.00  0.00    +0.016 A 
ENDROOT
BRANCH  12  15
ATOM     15  C   UNL     1      -1.538  -0.597  24.759  0.00  0.00    +0.159 C 
ATOM     16  O   UNL     1      -0.993  -1.213  24.691  0.00  0.00    -0.341 OA
ATOM     17  C   UNL     1      -1.256  -1.987  24.581  0.00  0.00    +0.227 C 
ATOM     18  C   UNL     1      -2.064  -2.145  24.538  0.00  0.00    +0.256 C 
ATOM     19  O   UNL     1      -2.328  -2.920  24.428  0.00  0.00    -0.272 OA
ATOM     20  N   UNL     1      -2.610  -1.530  24.606  0.00  0.00    -0.272 N 
ATOM     24  C   UNL     1      -2.347  -0.756  24.716  0.00  0.00    +0.140 C 
BRANCH  24  25
ATOM     25  C   UNL     1      -2.893  -0.140  24.784  0.00  0.00    +0.205 C 
ATOM     26  O   UNL     1      -3.457  -0.153  25.384  0.00  0.00    -0.218 OA
ENDBRANCH  24  25
BRANCH  20  21
ATOM     21  C   UNL     1      -3.419  -1.688  24.563  0.00  0.00    +0.114 C 
BRANCH  21  22
ATOM     22  C   UNL     1      -3.723  -2.110  23.921  0.00  0.00    +0.131 C 
ATOM     23  N   UNL     1      -4.539  -2.209  23.843  0.00  0.00    -0.130 NA
ENDBRANCH  21  22
ENDBRANCH  20  21
ENDBRANCH  12  15
BRANCH   9   8
ATOM      6  C   UNL     1      -1.031   3.116  25.258  0.00  0.00    +0.246 C 
ATOM      7  O   UNL     1      -1.839   2.959  25.205  0.00  0.00    -0.273 OA
ATOM      8  N   UNL     1      -0.485   2.499  25.200  0.00  0.00    -0.179 NA
BRANCH   6   5
ATOM      5  C   UNL     1      -0.768   3.890  25.368  0.00  0.00    +0.087 C 
BRANCH   5   2
ATOM      1  C   UNL     1      -1.745   5.158  24.971  0.00  0.00    +0.000 C 
ATOM      2  C   UNL     1      -1.257   4.525  25.170  0.00  0.00    +0.009 C 
ATOM      3  C   UNL     1      -0.749   4.721  24.550  0.00  0.00    +0.000 C 
ATOM      4  C   UNL     1      -1.764   4.327  25.790  0.00  0.00    +0.000 C 
ENDBRANCH   5   2
ENDBRANCH   6   5
ENDBRANCH   9   8
TORSDOF 7
ENDMDL
MODEL 4
REMARK VINA RESULT:      -9.0      1.586      5.378
REMARK  Name = 
REMARK  7 active torsions:
REMARK  status: ('A' for Active; 'I' for Inactive)
REMARK    1  A    between atoms: C_2  and  C_5
REMARK    2  A    between atoms: C_5  and  C_6
REMARK    3  A    between atoms: N_8  and  C_9
REMARK    4  A    between atoms: C_12  and  C_15
REMARK    5  A    between atoms: N_20  and  C_21
REMARK    6  A    between atoms: C_21  and  C_22
REMARK    7  A    between atoms: C_24  and  C_25
REMARK                            x       y       z     vdW  Elec       q    Type
REMARK                         _______ _______ _______ _____ _____    ______ ____
ROOT
ATOM      9  C   UNL     1      -3.380   0.306  24.450  0.00  0.00    +0.073 A 
ATOM     10  C   UNL     1      -3.223   0.684  23.734  0.00  0.00    +0.016 A 
ATOM     11  C   UNL     1      -2.706   1.326  23.712  0.00  0.00    -0.001 A 
ATOM     12  C   UNL     1      -2.345   1.590  24.405  0.00  0.00    +0.006 A 
ATOM     13  C   UNL     1      -2.502   1.211  25.121  0.00  0.00    -0.001 A 
ATOM     14  C   UNL     1      -3.020   0.569  25.144  0.00  0.00    +0.016 A 
ENDROOT
BRANCH  12  15
ATOM     15  C   UNL     1      -1.828   2.232  24.382  0.00  0.00    +0.159 C 
ATOM     16  O   UNL     1      -1.033   2.115  24.195  0.00  0.00    -0.341 OA
ATOM     17  C   UNL     1      -0.516   2.757  24.173  0.00  0.00    +0.227 C 
ATOM     18  C   UNL     1      -0.793   3.516  24.338  0.00  0.00    +0.256 C 
ATOM     19  O   UNL     1      -0.275   4.159  24.315  0.00  0.00    -0.272 OA
ATOM     20  N   UNL     1      -1.588   3.634  24.525  0.00  0.00    -0.272 N 
ATOM     24  C   UNL     1      -2.106   2.992  24.547  0.00  0.00    +0.140 C 
BRANCH  24  25
ATOM     25  C   UNL     1      -2.902   3.109  24.734  0.00  0.00    +0.205 C 
ATOM     26  O   UNL     1      -3.366   3.604  24.268  0.00  0.00    -0.218 OA
ENDBRANCH  24  25
BRANCH  20  21
ATOM     21  C   UNL     1      -1.867   4.393  24.689  0.00  0.00    +0.114 C 
BRANCH  21  22
ATOM     22  C   UNL     1      -1.445   4.884  25.202  0.00  0.00    +0.131 C 
ATOM     23  N   UNL     1      -1.700   5.658  25.334  0.00  0.00    -0.130 NA
ENDBRANCH  21  22
ENDBRANCH  20  21
ENDBRANCH  12  15
BRANCH   9   8
ATOM      6  C   UNL     1      -3.602  -1.106  24.428  0.00  0.00    +0.246 C 
ATOM      7  O   UNL     1      -2.790  -1.234  24.361  0.00  0.00    -0.273 OA
ATOM      8  N   UNL     1      -3.898  -0.337  24.472  0.00  0.00    -0.179 NA
BRANCH   6   5
ATOM      5  C   UNL     1      -4.119  -1.749  24.450  0.00  0.00    +0.087 C 
BRANCH   5   2
ATOM      1  C   UNL     1      -3.539  -3.283  24.268  0.00  0.00    +0.000 C 
ATOM      2  C   UNL     1      -3.829  -2.516  24.359  0.00  0.00    +0.009 C 
ATOM      3  C   UNL     1      -3.543  -2.499  25.133  0.00  0.00    +0.000 C 
ATOM      4  C   UNL     1      -4.116  -2.532  23.586  0.00  0.00    +0.000 C 
ENDBRANCH   5   2
ENDBRANCH   6   5
ENDBRANCH   9   8
TORSDOF 7
ENDMDL
MODEL 5
REMARK VINA RESULT:      -8.5      1.665      2.180
REMARK  Name = 
REMARK  7 active torsions:
REMARK  status: ('A' for Active; 'I' for Inactive)
REMARK    1  A    between atoms: C_2  and  C_5
REMARK    2  A    between atoms: C_5  and  C_6
REMARK    3  A    between atoms: N_8  and  C_9
REMARK    4  A    between atoms: C_12  and  C_15
REMARK    5  A    between atoms: N_20  and  C_21
REMARK    6  A    between atoms: C_21  and  C_22
REMARK    7  A    between atoms: C_24  and  C_25
REMARK                            x       y       z     vdW  Elec       q    Type
REMARK                         _______ _______ _______ _____ _____    ______ ____
ROOT
ATOM      9  C   UNL     1      -4.574   0.564  24.800  0.00  0.00    +0.073 A 
ATOM     10  C   UNL     1      -4.159   0.465  24.095  0.00  0.00    +0.016 A 
ATOM     11  C   UNL     1      -3.557  -0.097  24.047  0.00  0.00    -0.001 A 
ATOM     12  C   UNL     1      -3.370  -0.560  24.703  0.00  0.00    +0.006 A 
ATOM     13  C   UNL     1      -3.787  -0.461  25.409  0.00  0.00    -0.001 A 
ATOM     14  C   UNL     1      -4.389   0.101  25.458  0.00  0.00    +0.016 A 
ENDROOT
BRANCH  12  15
ATOM     15  C   UNL     1      -2.769  -1.122  24.655  0.00  0.00    +0.159 C 
ATOM     16  O   UNL     1      -2.955  -1.917  24.540  0.00  0.00    -0.341 OA
ATOM     17  C   UNL     1      -2.353  -2.479  24.492  0.00  0.00    +0.227 C 
ATOM     18  C   UNL     1      -1.565  -2.246  24.558  0.00  0.00    +0.256 C 
ATOM     19  O   UNL     1      -0.962  -2.808  24.510  0.00  0.00    -0.272 OA
ATOM     20  N   UNL     1      -1.378  -1.450  24.673  0.00  0.00    -0.272 N 
ATOM     24  C   UNL     1      -1.980  -0.888  24.721  0.00  0.00    +0.140 C 
BRANCH  24  25
ATOM     25  C   UNL     1      -1.793  -0.092  24.836  0.00  0.00    +0.205 C 
ATOM     26  O   UNL     1      -1.423   0.148  25.532  0.00  0.00    -0.218 OA
ENDBRANCH  24  25
BRANCH  20  21
ATOM     21  C   UNL     1      -0.589  -1.216  24.740  0.00  0.00    +0.114 C 
BRANCH  21  22
ATOM     22  C   UNL     1      -0.108  -1.193  24.069  0.00  0.00    +0.131 C 
ATOM     23  N   UNL     1       0.639  -0.845  24.109  0.00  0.00    -0.130 NA
ENDBRANCH  21  22
ENDBRANCH  20  21
ENDBRANCH  12  15
BRANCH   9   8
ATOM      6  C   UNL     1      -4.998   1.906  25.052  0.00  0.00    +0.246 C 
ATOM      7  O   UNL     1      -4.217   2.123  25.208  0.00  0.00    -0.273 OA
ATOM      8  N   UNL     1      -5.177   1.126  24.849  0.00  0.00    -0.179 NA
BRANCH   6   5
ATOM      5  C   UNL     1      -5.600   2.468  25.101  0.00  0.00    +0.087 C 
BRANCH   5   2
ATOM      1  C   UNL     1      -5.308   3.931  25.805  0.00  0.00    +0.000 C 
ATOM      2  C   UNL     1      -5.454   3.200  25.453  0.00  0.00    +0.009 C 
ATOM      3  C   UNL     1      -5.792   2.929  26.155  0.00  0.00    +0.000 C 
ATOM      4  C   UNL     1      -5.116   3.470  24.751  0.00  0.00    +0.000 C 
ENDBRANCH   5   2
ENDBRANCH   6   5
ENDBRANCH   9   8
TORSDOF 7
ENDMDL
