MODEL 1
REMARK VINA RESULT:     -11.5      0.000      0.000
REMARK  Name = 
REMARK  6 active torsions:
REMARK  status: ('A' for Active; 'I' for Inactive)
REMARK    1  A    between atoms: C_2  and  C_4
REMARK    2  A    between atoms: C_7  and  C_8
REMARK    3  A    between atoms: C_8  and  N_9
REMARK    4  A    between atoms: C_14  and  C_15
REMARK    5  A    between atoms: N_17  and  C_18
REMARK    6  A    between atoms: C_18  and  C_19
REMARK                            x       y       z     vdW  Elec       q    Type
REMARK                         _______ _______ _______ _____ _____    ______ ____
ROOT
ATOM      9  N   UNL     1      -3.958   1.290  24.491  0.00  0.00    -0.257 NA
ATOM     10  C   UNL     1      -4.686   1.030  24.778  0.00  0.00    +0.121 C 
ATOM     11  C   UNL     1      -5.197   1.561  25.149  0.00  0.00    +0.090 A 
ATOM     12  C   UNL     1      -4.980   2.352  25.233  0.00  0.00    +0.077 A 
ATOM     13  C   UNL     1      -4.251   2.613  24.946  0.00  0.00    +0.072 C 
ATOM     14  C   UNL     1      -3.741   2.082  24.575  0.00  0.00    +0.143 C 
ATOM     24  N   UNL     1      -5.593   2.745  25.620  0.00  0.00    -0.227 NA
ATOM     25  C   UNL     1      -6.189   2.197  25.775  0.00  0.00    +0.198 A 
ATOM     26  N   UNL     1      -5.944   1.465  25.484  0.00  0.00    -0.226 NA
ENDROOT
BRANCH  14  15
ATOM     15  C   UNL     1      -3.013   2.343  24.288  0.00  0.00    +0.257 C 
ATOM     16  O   UNL     1      -2.916   2.493  23.482  0.00  0.00    -0.272 OA
ATOM     17  N   UNL     1      -2.381   2.454  24.808  0.00  0.00    -0.196 NA
BRANCH  17  18
ATOM     18  C   UNL     1      -1.653   2.715  24.521  0.00  0.00    +0.179 C 
BRANCH  18  19
ATOM     19  C   UNL     1      -0.982   2.672  24.998  0.00  0.00    +0.145 A 
ATOM     20  C   UNL     1      -0.739   3.239  25.546  0.00  0.00    +0.038 A 
ATOM     21  C   UNL     1      -0.043   2.972  25.898  0.00  0.00    +0.043 A 
ATOM     22  C   UNL     1       0.146   2.240  25.567  0.00  0.00    +0.179 A 
ATOM     23  O   UNL     1      -0.434   2.054  25.011  0.00  0.00    -0.453 OA
ENDBRANCH  18  19
ENDBRANCH  17  18
ENDBRANCH  14  15
BRANCH   9   8
ATOM      8  C   UNL     1      -3.448   0.760  24.120  0.00  0.00    +0.100 C 
BRANCH   8   7
ATOM      4  C   UNL     1      -3.646  -1.666  24.567  0.00  0.00    +0.080 A 
ATOM      5  C   UNL     1      -3.203  -1.189  25.072  0.00  0.00    +0.006 A 
ATOM      6  C   UNL     1      -3.136  -0.381  24.923  0.00  0.00    -0.003 A 
ATOM      7  C   UNL     1      -3.514  -0.049  24.269  0.00  0.00    -0.006 A 
ATOM     27  C   UNL     1      -3.958  -0.527  23.763  0.00  0.00    -0.003 A 
ATOM     28  C   UNL     1      -4.024  -1.336  23.912  0.00  0.00    +0.006 A 
BRANCH   4   2
ATOM      1  O   UNL     1      -3.963  -2.986  24.118  0.00  0.00    -0.241 OA
ATOM      2  C   UNL     1      -3.713  -2.475  24.716  0.00  0.00    +0.388 C 
ATOM      3  O   UNL     1      -3.529  -2.774  25.462  0.00  0.00    -0.241 OA
ENDBRANCH   4   2
ENDBRANCH   8   7
ENDBRANCH   9   8
TORSDOF 6
ENDMDL
MODEL 2
REMARK VINA RESULT:     -10.9      1.195      4.437
REMARK  Name = 
REMARK  6 active torsions:
REMARK  status: ('A' for Active; 'I' for Inactive)
REMARK    1  A    between atoms: C_2  and  C_4
REMARK    2  A    between atoms: C_7  and  C_8
REMARK    3  A    between atoms: C_8  and  N_9
REMARK    4  A    between atoms: C_14  and  C_15
REMARK    5  A    between atoms: N_17  and  C_18
REMARK    6  A    between atoms: C_18  and  C_19
REMARK                            x       y       z     vdW  Elec       q    Type
REMARK                         _______ _______ _______ _____ _____    ______ ____
ROOT
ATOM      9  N   UNL     1      -3.734   1.922  24.851  0.00  0.00    -0.257 NA
ATOM     10  C   UNL     1      -4.081   2.546  25.263  0.00  0.00    +0.121 C 
ATOM     11  C   UNL     1      -4.890   2.535  25.426  0.00  0.00    +0.090 A 
ATOM     12  C   UNL     1      -5.352   1.900  25.176  0.00  0.00    +0.077 A 
ATOM     13  C   UNL     1      -5.006   1.274  24.763  0.00  0.00    +0.072 C 
ATOM     14  C   UNL     1      -4.197   1.286  24.601  0.00  0.00    +0.143 C 
ATOM     24  N   UNL     1      -6.129   2.040  25.414  0.00  0.00    -0.227 NA
ATOM     25  C   UNL     1      -6.147   2.762  25.811  0.00  0.00    +0.198 A 
ATOM     26  N   UNL     1      -5.381   3.068  25.819  0.00  0.00    -0.226 NA
ENDROOT
BRANCH  14  15
ATOM     15  C   UNL     1      -3.851   0.661  24.188  0.00  0.00    +0.257 C 
ATOM     16  O   UNL     1      -3.545   0.784  23.432  0.00  0.00    -0.272 OA
ATOM     17  N   UNL     1      -3.812  -0.089  24.533  0.00  0.00    -0.196 NA
BRANCH  17  18
ATOM     18  C   UNL     1      -3.466  -0.714  24.120  0.00  0.00    +0.179 C 
BRANCH  18  19
ATOM     19  C   UNL     1      -3.486  -1.477  24.434  0.00  0.00    +0.145 A 
ATOM     20  C   UNL     1      -3.791  -2.146  24.061  0.00  0.00    +0.038 A 
ATOM     21  C   UNL     1      -3.698  -2.787  24.572  0.00  0.00    +0.043 A 
ATOM     22  C   UNL     1      -3.334  -2.513  25.260  0.00  0.00    +0.179 A 
ATOM     23  O   UNL     1      -3.203  -1.704  25.175  0.00  0.00    -0.453 OA
ENDBRANCH  18  19
ENDBRANCH  17  18
ENDBRANCH  14  15
BRANCH   9   8
ATOM      8  C   UNL     1      -2.926   1.932  24.689  0.00  0.00    +0.100 C 
BRANCH   8   7
ATOM      4  C   UNL     1      -1.627   4.014  25.013  0.00  0.00    +0.080 A 
ATOM      5  C   UNL     1      -2.069   3.907  24.325  0.00  0.00    +0.006 A 
ATOM      6  C   UNL     1      -2.502   3.213  24.217  0.00  0.00    -0.003 A 
ATOM      7  C   UNL     1      -2.493   2.626  24.797  0.00  0.00    -0.006 A 
ATOM     27  C   UNL     1      -2.050   2.733  25.485  0.00  0.00    -0.003 A 
ATOM     28  C   UNL     1      -1.617   3.427  25.593  0.00  0.00    +0.006 A 
BRANCH   4   2
ATOM      1  O   UNL     1      -1.575   5.398  25.365  0.00  0.00    -0.241 OA
ATOM      2  C   UNL     1      -1.194   4.708  25.121  0.00  0.00    +0.388 C 
ATOM      3  O   UNL     1      -0.381   4.712  24.985  0.00  0.00    -0.241 OA
ENDBRANCH   4   2
ENDBRANCH   8   7
ENDBRANCH   9   8
TORSDOF 6
ENDMDL
MODEL 3
REMARK VINA RESULT:     -10.8      2.313      5.562
REMARK  Name = 
REMARK  6 active torsions:
REMARK  status: ('A' for Active; 'I' for Inactive)
REMARK    1  A    between atoms: C_2  and  C_4
REMARK    2  A    between atoms: C_7  and  C_8
REMARK    3  A    between atoms: C_8  and  N_9
REMARK    4  A    between atoms: C_14  and  C_15
REMARK    5  A    between atoms: N_17  and  C_18
REMARK    6  A    between atoms: C_18  and  C_19
REMARK                            x       y       z     vdW  Elec       q    Type
REMARK                         _______ _______ _______ _____ _____    ______ ____
ROOT
ATOM      9  N   UNL     1      -0.818   0.737  24.763  0.00  0.00    -0.257 NA
ATOM     10  C   UNL     1      -0.227   1.134  24.348  0.00  0.00    +0.121 C 
ATOM     11  C   UNL     1       0.284   0.715  23.854  0.00  0.00    +0.090 A 
ATOM     12  C   UNL     1       0.202  -0.102  23.775  0.00  0.00    +0.077 A 
ATOM     13  C   UNL     1      -0.390  -0.500  24.190  0.00  0.00    +0.072 C 
ATOM     14  C   UNL     1      -0.900  -0.080  24.684  0.00  0.00    +0.143 C 
ATOM     24  N   UNL     1       0.782  -0.367  23.252  0.00  0.00    -0.227 NA
ATOM     25  C   UNL     1       1.222   0.286  23.007  0.00  0.00    +0.198 A 
ATOM     26  N   UNL     1       0.914   0.954  23.379  0.00  0.00    -0.226 NA
ENDROOT
BRANCH  14  15
ATOM     15  C   UNL     1      -1.492  -0.478  25.098  0.00  0.00    +0.257 C 
ATOM     16  O   UNL     1      -1.446  -0.547  25.919  0.00  0.00    -0.272 OA
ATOM     17  N   UNL     1      -2.130  -0.807  24.691  0.00  0.00    -0.196 NA
BRANCH  17  18
ATOM     18  C   UNL     1      -2.722  -1.205  25.106  0.00  0.00    +0.179 C 
BRANCH  18  19
ATOM     19  C   UNL     1      -3.293  -1.637  24.697  0.00  0.00    +0.145 A 
ATOM     20  C   UNL     1      -3.932  -1.324  24.279  0.00  0.00    +0.038 A 
ATOM     21  C   UNL     1      -4.359  -1.953  23.959  0.00  0.00    +0.043 A 
ATOM     22  C   UNL     1      -3.985  -2.654  24.178  0.00  0.00    +0.179 A 
ATOM     23  O   UNL     1      -3.326  -2.460  24.635  0.00  0.00    -0.453 OA
ENDBRANCH  18  19
ENDBRANCH  17  18
ENDBRANCH  14  15
BRANCH   9   8
ATOM      8  C   UNL     1      -1.328   1.157  25.256  0.00  0.00    +0.100 C 
BRANCH   8   7
ATOM      4  C   UNL     1      -1.325   3.631  25.223  0.00  0.00    +0.080 A 
ATOM      5  C   UNL     1      -1.812   3.213  24.707  0.00  0.00    +0.006 A 
ATOM      6  C   UNL     1      -1.814   2.388  24.718  0.00  0.00    -0.003 A 
ATOM      7  C   UNL     1      -1.327   1.982  25.245  0.00  0.00    -0.006 A 
ATOM     27  C   UNL     1      -0.839   2.401  25.762  0.00  0.00    -0.003 A 
ATOM     28  C   UNL     1      -0.837   3.226  25.752  0.00  0.00    +0.006 A 
BRANCH   4   2
ATOM      1  O   UNL     1      -1.960   4.875  25.532  0.00  0.00    -0.241 OA
ATOM      2  C   UNL     1      -1.323   4.456  25.213  0.00  0.00    +0.388 C 
ATOM      3  O   UNL     1      -0.687   4.864  24.883  0.00  0.00    -0.241 OA
ENDBRANCH   4   2
ENDBRANCH   8   7
ENDBRANCH   9   8
TORSDOF 6
ENDMDL
MODEL 4
REMARK VINA RESULT:     -10.7      2.245      3.580
REMARK  Name = 
REMARK  6 active torsions:
REMARK  status: ('A' for Active; 'I' for Inactive)
REMARK    1  A    between atoms: C_2  and  C_4
REMARK    2  A    between atoms: C_7  and  C_8
REMARK    3  A    between atoms: C_8  and  N_9
REMARK    4  A    between atoms: C_14  and  C_15
REMARK    5  A    between atoms: N_17  and  C_18
REMARK    6  A    between atoms: C_18  and  C_19
REMARK                            x       y       z     vdW  Elec       q    Type
REMARK                         _______ _______ _______ _____ _____    ______ ____
ROOT
ATOM      9  N   UNL     1      -0.985   0.580  24.763  0.00  0.00    -0.257 NA
ATOM     10  C   UNL     1      -0.785   0.005  24.208  0.00  0.00    +0.121 C 
ATOM     11  C   UNL     1      -0.091   0.079  23.767  0.00  0.00    +0.090 A 
ATOM     12  C   UNL     1       0.403   0.730  23.883  0.00  0.00    +0.077 A 
ATOM     13  C   UNL     1       0.202   1.306  24.440  0.00  0.00    +0.072 C 
ATOM     14  C   UNL     1      -0.492   1.231  24.879  0.00  0.00    +0.143 C 
ATOM     24  N   UNL     1       1.046   0.656  23.373  0.00  0.00    -0.227 NA
ATOM     25  C   UNL     1       0.950  -0.040  22.941  0.00  0.00    +0.198 A 
ATOM     26  N   UNL     1       0.248  -0.396  23.186  0.00  0.00    -0.226 NA
ENDROOT
BRANCH  14  15
ATOM     15  C   UNL     1      -0.691   1.807  25.434  0.00  0.00    +0.257 C 
ATOM     16  O   UNL     1      -0.637   1.640  26.241  0.00  0.00    -0.272 OA
ATOM     17  N   UNL     1      -0.945   2.552  25.183  0.00  0.00    -0.196 NA
BRANCH  17  18
ATOM     18  C   UNL     1      -1.145   3.128  25.739  0.00  0.00    +0.179 C 
BRANCH  18  19
ATOM     19  C   UNL     1      -1.333   3.892  25.492  0.00  0.00    +0.145 A 
ATOM     20  C   UNL     1      -2.074   4.250  25.544  0.00  0.00    +0.038 A 
ATOM     21  C   UNL     1      -2.012   5.011  25.234  0.00  0.00    +0.043 A 
ATOM     22  C   UNL     1      -1.232   5.124  24.989  0.00  0.00    +0.179 A 
ATOM     23  O   UNL     1      -0.812   4.433  25.149  0.00  0.00    -0.453 OA
ENDBRANCH  18  19
ENDBRANCH  17  18
ENDBRANCH  14  15
BRANCH   9   8
ATOM      8  C   UNL     1      -1.679   0.506  25.203  0.00  0.00    +0.100 C 
BRANCH   8   7
ATOM      4  C   UNL     1      -3.303  -1.280  24.657  0.00  0.00    +0.080 A 
ATOM      5  C   UNL     1      -2.702  -1.422  25.203  0.00  0.00    +0.006 A 
ATOM      6  C   UNL     1      -2.161  -0.827  25.385  0.00  0.00    -0.003 A 
ATOM      7  C   UNL     1      -2.220  -0.089  25.021  0.00  0.00    -0.006 A 
ATOM     27  C   UNL     1      -2.822   0.053  24.474  0.00  0.00    -0.003 A 
ATOM     28  C   UNL     1      -3.364  -0.542  24.292  0.00  0.00    +0.006 A 
BRANCH   4   2
ATOM      1  O   UNL     1      -3.771  -2.621  24.823  0.00  0.00    -0.241 OA
ATOM      2  C   UNL     1      -3.845  -1.875  24.475  0.00  0.00    +0.388 C 
ATOM      3  O   UNL     1      -4.459  -1.727  23.946  0.00  0.00    -0.241 OA
ENDBRANCH   4   2
ENDBRANCH   8   7
ENDBRANCH   9   8
TORSDOF 6
ENDMDL
MODEL 5
REMARK VINA RESULT:     -10.4      1.442      3.290
REMARK  Name = 
REMARK  6 active torsions:
REMARK  status: ('A' for Active; 'I' for Inactive)
REMARK    1  A    between atoms: C_2  and  C_4
REMARK    2  A    between atoms: C_7  and  C_8
REMARK    3  A    between atoms: C_8  and  N_9
REMARK    4  A    between atoms: C_14  and  C_15
REMARK    5  A    between atoms: N_17  and  C_18
REMARK    6  A    between atoms: C_18  and  C_19
REMARK                            x       y       z     vdW  Elec       q    Type
REMARK                         _______ _______ _______ _____ _____    ______ ____
ROOT
ATOM      9  N   UNL     1      -2.563   0.833  24.113  0.00  0.00    -0.257 NA
ATOM     10  C   UNL     1      -1.892   0.385  24.281  0.00  0.00    +0.121 C 
ATOM     11  C   UNL     1      -1.144   0.732  24.249  0.00  0.00    +0.090 A 
ATOM     12  C   UNL     1      -1.069   1.529  24.050  0.00  0.00    +0.077 A 
ATOM     13  C   UNL     1      -1.741   1.979  23.881  0.00  0.00    +0.072 C 
ATOM     14  C   UNL     1      -2.488   1.630  23.914  0.00  0.00    +0.143 C 
ATOM     24  N   UNL     1      -0.267   1.720  24.062  0.00  0.00    -0.227 NA
ATOM     25  C   UNL     1       0.154   1.042  24.270  0.00  0.00    +0.198 A 
ATOM     26  N   UNL     1      -0.389   0.432  24.385  0.00  0.00    -0.226 NA
ENDROOT
BRANCH  14  15
ATOM     15  C   UNL     1      -3.159   2.079  23.746  0.00  0.00    +0.257 C 
ATOM     16  O   UNL     1      -3.423   2.152  22.967  0.00  0.00    -0.272 OA
ATOM     17  N   UNL     1      -3.566   2.457  24.357  0.00  0.00    -0.196 NA
BRANCH  17  18
ATOM     18  C   UNL     1      -4.237   2.906  24.189  0.00  0.00    +0.179 C 
BRANCH  18  19
ATOM     19  C   UNL     1      -4.713   3.183  24.803  0.00  0.00    +0.145 A 
ATOM     20  C   UNL     1      -5.368   2.796  25.121  0.00  0.00    +0.038 A 
ATOM     21  C   UNL     1      -5.677   3.270  25.721  0.00  0.00    +0.043 A 
ATOM     22  C   UNL     1      -5.212   3.949  25.775  0.00  0.00    +0.179 A 
ATOM     23  O   UNL     1      -4.616   3.896  25.207  0.00  0.00    -0.453 OA
ENDBRANCH  18  19
ENDBRANCH  17  18
ENDBRANCH  14  15
BRANCH   9   8
ATOM      8  C   UNL     1      -3.310   0.486  24.145  0.00  0.00    +0.100 C 
BRANCH   8   7
ATOM      4  C   UNL     1      -3.533  -1.921  24.679  0.00  0.00    +0.080 A 
ATOM      5  C   UNL     1      -3.480  -1.676  23.894  0.00  0.00    +0.006 A 
ATOM      6  C   UNL     1      -3.406  -0.874  23.716  0.00  0.00    -0.003 A 
ATOM      7  C   UNL     1      -3.384  -0.317  24.323  0.00  0.00    -0.006 A 
ATOM     27  C   UNL     1      -3.437  -0.562  25.110  0.00  0.00    -0.003 A 
ATOM     28  C   UNL     1      -3.511  -1.364  25.288  0.00  0.00    +0.006 A 
BRANCH   4   2
ATOM      1  O   UNL     1      -3.913  -3.244  24.294  0.00  0.00    -0.241 OA
ATOM      2  C   UNL     1      -3.607  -2.723  24.857  0.00  0.00    +0.388 C 
ATOM      3  O   UNL     1      -3.375  -3.005  25.597  0.00  0.00    -0.241 OA
ENDBRANCH   4   2
ENDBRANCH   8   7
ENDBRANCH   9   8
TORSDOF 6
ENDMDL
MODEL 6
REMARK VINA RESULT:     -10.1      2.078      3.770
REMARK  Name = 
REMARK  6 active torsions:
REMARK  status: ('A' for Active; 'I' for Inactive)
REMARK    1  A    between atoms: C_2  and  C_4
REMARK    2  A    between atoms: C_7  and  C_8
REMARK    3  A    between atoms: C_8  and  N_9
REMARK    4  A    between atoms: C_14  and  C_15
REMARK    5  A    between atoms: N_17  and  C_18
REMARK    6  A    between atoms: C_18  and  C_19
REMARK                            x       y       z     vdW  Elec       q    Type
REMARK                         _______ _______ _______ _____ _____    ______ ____
ROOT
ATOM      9  N   UNL     1      -2.359   2.399  24.263  0.00  0.00    -0.257 NA
ATOM     10  C   UNL     1      -2.534   3.132  24.598  0.00  0.00    +0.121 C 
ATOM     11  C   UNL     1      -1.924   3.635  24.833  0.00  0.00    +0.090 A 
ATOM     12  C   UNL     1      -1.138   3.405  24.734  0.00  0.00    +0.077 A 
ATOM     13  C   UNL     1      -0.962   2.671  24.398  0.00  0.00    +0.072 C 
ATOM     14  C   UNL     1      -1.573   2.169  24.163  0.00  0.00    +0.143 C 
ATOM     24  N   UNL     1      -0.657   4.012  25.016  0.00  0.00    -0.227 NA
ATOM     25  C   UNL     1      -1.145   4.617  25.290  0.00  0.00    +0.198 A 
ATOM     26  N   UNL     1      -1.928   4.384  25.177  0.00  0.00    -0.226 NA
ENDROOT
BRANCH  14  15
ATOM     15  C   UNL     1      -1.397   1.436  23.828  0.00  0.00    +0.257 C 
ATOM     16  O   UNL     1      -1.446   1.333  23.011  0.00  0.00    -0.272 OA
ATOM     17  N   UNL     1      -1.170   0.806  24.311  0.00  0.00    -0.196 NA
BRANCH  17  18
ATOM     18  C   UNL     1      -0.994   0.073  23.976  0.00  0.00    +0.179 C 
BRANCH  18  19
ATOM     19  C   UNL     1      -0.925  -0.595  24.456  0.00  0.00    +0.145 A 
ATOM     20  C   UNL     1      -1.430  -1.247  24.456  0.00  0.00    +0.038 A 
ATOM     21  C   UNL     1      -1.156  -1.782  25.019  0.00  0.00    +0.043 A 
ATOM     22  C   UNL     1      -0.481  -1.461  25.369  0.00  0.00    +0.179 A 
ATOM     23  O   UNL     1      -0.338  -0.727  25.021  0.00  0.00    -0.453 OA
ENDBRANCH  18  19
ENDBRANCH  17  18
ENDBRANCH  14  15
BRANCH   9   8
ATOM      8  C   UNL     1      -2.968   1.896  24.028  0.00  0.00    +0.100 C 
BRANCH   8   7
ATOM      4  C   UNL     1      -5.212   2.109  25.052  0.00  0.00    +0.080 A 
ATOM      5  C   UNL     1      -4.668   1.571  25.358  0.00  0.00    +0.006 A 
ATOM      6  C   UNL     1      -3.920   1.500  25.017  0.00  0.00    -0.003 A 
ATOM      7  C   UNL     1      -3.716   1.967  24.369  0.00  0.00    -0.006 A 
ATOM     27  C   UNL     1      -4.261   2.507  24.062  0.00  0.00    -0.003 A 
ATOM     28  C   UNL     1      -5.009   2.578  24.403  0.00  0.00    +0.006 A 
BRANCH   4   2
ATOM      1  O   UNL     1      -6.616   1.845  25.022  0.00  0.00    -0.241 OA
ATOM      2  C   UNL     1      -5.959   2.180  25.393  0.00  0.00    +0.388 C 
ATOM      3  O   UNL     1      -6.052   2.586  26.105  0.00  0.00    -0.241 OA
ENDBRANCH   4   2
ENDBRANCH   8   7
ENDBRANCH   9   8
TORSDOF 6
ENDMDL
MODEL 7
REMARK VINA RESULT:      -9.8      2.231      3.798
REMARK  Name = 
REMARK  6 active torsions:
REMARK  status: ('A' for Active; 'I' for Inactive)
REMARK    1  A    between atoms: C_2  and  C_4
REMARK    2  A    between atoms: C_7  and  C_8
REMARK    3  A    between atoms: C_8  and  N_9
REMARK    4  A    between atoms: C_14  and  C_15
REMARK    5  A    between atoms: N_17  and  C_18
REMARK    6  A    between atoms: C_18  and  C_19
REMARK                            x       y       z     vdW  Elec       q    Type
REMARK                         _______ _______ _______ _____ _____    ______ ____
ROOT
ATOM      9  N   UNL     1      -3.179  -0.486  24.589  0.00  0.00    -0.257 NA
ATOM     10  C   UNL     1      -3.902  -0.801  24.351  0.00  0.00    +0.121 C 
ATOM     11  C   UNL     1      -3.970  -1.607  24.189  0.00  0.00    +0.090 A 
ATOM     12  C   UNL     1      -3.312  -2.099  24.267  0.00  0.00    +0.077 A 
ATOM     13  C   UNL     1      -2.587  -1.785  24.505  0.00  0.00    +0.072 C 
ATOM     14  C   UNL     1      -2.521  -0.978  24.666  0.00  0.00    +0.143 C 
ATOM     24  N   UNL     1      -3.543  -2.866  24.071  0.00  0.00    -0.227 NA
ATOM     25  C   UNL     1      -4.343  -2.849  23.873  0.00  0.00    +0.198 A 
ATOM     26  N   UNL     1      -4.606  -2.071  23.946  0.00  0.00    -0.226 NA
ENDROOT
BRANCH  14  15
ATOM     15  C   UNL     1      -1.796  -0.665  24.905  0.00  0.00    +0.257 C 
ATOM     16  O   UNL     1      -1.643  -0.540  25.706  0.00  0.00    -0.272 OA
ATOM     17  N   UNL     1      -1.224  -0.475  24.341  0.00  0.00    -0.196 NA
BRANCH  17  18
ATOM     18  C   UNL     1      -0.499  -0.161  24.579  0.00  0.00    +0.179 C 
BRANCH  18  19
ATOM     19  C   UNL     1       0.076   0.024  24.017  0.00  0.00    +0.145 A 
ATOM     20  C   UNL     1       0.360   0.778  23.844  0.00  0.00    +0.038 A 
ATOM     21  C   UNL     1       0.927   0.707  23.250  0.00  0.00    +0.043 A 
ATOM     22  C   UNL     1       0.994  -0.092  23.056  0.00  0.00    +0.179 A 
ATOM     23  O   UNL     1       0.468  -0.515  23.529  0.00  0.00    -0.453 OA
ENDBRANCH  18  19
ENDBRANCH  17  18
ENDBRANCH  14  15
BRANCH   9   8
ATOM      8  C   UNL     1      -3.112   0.319  24.751  0.00  0.00    +0.100 C 
BRANCH   8   7
ATOM      4  C   UNL     1      -5.146   1.716  24.937  0.00  0.00    +0.080 A 
ATOM      5  C   UNL     1      -4.965   1.172  25.529  0.00  0.00    +0.006 A 
ATOM      6  C   UNL     1      -4.287   0.706  25.467  0.00  0.00    -0.003 A 
ATOM      7  C   UNL     1      -3.790   0.785  24.813  0.00  0.00    -0.006 A 
ATOM     27  C   UNL     1      -3.972   1.330  24.220  0.00  0.00    -0.003 A 
ATOM     28  C   UNL     1      -4.650   1.796  24.283  0.00  0.00    +0.006 A 
BRANCH   4   2
ATOM      1  O   UNL     1      -5.780   2.934  25.338  0.00  0.00    -0.241 OA
ATOM      2  C   UNL     1      -5.825   2.182  24.999  0.00  0.00    +0.388 C 
ATOM      3  O   UNL     1      -6.548   1.897  24.724  0.00  0.00    -0.241 OA
ENDBRANCH   4   2
ENDBRANCH   8   7
ENDBRANCH   9   8
TORSDOF 6
ENDMDL
