MODEL 1
REMARK VINA RESULT:     -11.4      0.000      0.000
REMARK  Name = 
REMARK  7 active torsions:
REMARK  status: ('A' for Active; 'I' for Inactive)
REMARK    1  A    between atoms: C_2  and  C_4
REMARK    2  A    between atoms: C_4  and  C_5
REMARK    3  A    between atoms: C_4  and  N_12
REMARK    4  A    between atoms: C_5  and  C_6
REMARK    5  A    between atoms: C_13  and  C_15
REMARK    6  A    between atoms: C_21  and  C_23
REMARK    7  A    between atoms: N_30  and  C_31
REMARK                            x       y       z     vdW  Elec       q    Type
REMARK                         _______ _______ _______ _____ _____    ______ ____
ROOT
ATOM     15  C   UNL     1      -1.998   0.760  24.920  0.00  0.00    +0.174 C 
ATOM     16  C   UNL     1      -2.771   1.034  25.004  0.00  0.00    +0.124 C 
ATOM     17  N   UNL     1      -3.395   0.498  25.071  0.00  0.00    -0.259 N 
ATOM     18  C   UNL     1      -3.245  -0.313  25.054  0.00  0.00    +0.117 C 
ATOM     19  C   UNL     1      -2.471  -0.588  24.970  0.00  0.00    +0.116 C 
ATOM     20  N   UNL     1      -1.848  -0.051  24.903  0.00  0.00    -0.266 N 
ATOM     21  C   UNL     1      -1.074  -0.326  24.819  0.00  0.00    +0.255 C 
ATOM     22  O   UNL     1      -0.451   0.211  24.752  0.00  0.00    -0.269 OA
ATOM     28  C   UNL     1      -4.168   0.772  25.155  0.00  0.00    +0.328 C 
ATOM     29  O   UNL     1      -4.792   0.236  25.222  0.00  0.00    -0.250 OA
ATOM     30  N   UNL     1      -4.318   1.583  25.172  0.00  0.00    -0.162 NA
ENDROOT
BRANCH  30  31
ATOM     31  C   UNL     1      -5.092   1.858  25.256  0.00  0.00    +0.075 A 
ATOM     32  C   UNL     1      -5.644   1.728  24.656  0.00  0.00    +0.017 A 
ATOM     33  C   UNL     1      -6.416   2.002  24.741  0.00  0.00    +0.001 A 
ATOM     34  C   UNL     1      -6.639   2.407  25.425  0.00  0.00    +0.000 A 
ATOM     35  C   UNL     1      -6.088   2.537  26.024  0.00  0.00    +0.001 A 
ATOM     36  C   UNL     1      -5.314   2.262  25.940  0.00  0.00    +0.017 A 
ENDBRANCH  30  31
BRANCH  21  23
ATOM     23  C   UNL     1      -0.924  -1.137  24.802  0.00  0.00    +0.083 A 
ATOM     24  C   UNL     1      -1.073  -1.645  24.169  0.00  0.00    +0.012 A 
ATOM     25  C   UNL     1      -0.839  -2.404  24.390  0.00  0.00    +0.008 A 
ATOM     26  C   UNL     1      -0.546  -2.366  25.160  0.00  0.00    +0.036 A 
ATOM     27  S   UNL     1      -0.598  -1.583  25.415  0.00  0.00    -0.082 S 
ENDBRANCH  21  23
BRANCH  15  13
ATOM     12  N   UNL     1      -1.310   1.922  25.385  0.00  0.00    -0.196 NA
ATOM     13  C   UNL     1      -1.375   1.296  24.853  0.00  0.00    +0.262 C 
ATOM     14  O   UNL     1      -0.816   1.205  24.253  0.00  0.00    -0.271 OA
BRANCH  12   4
ATOM      4  C   UNL     1      -0.686   2.458  25.318  0.00  0.00    +0.174 C 
BRANCH   4   2
ATOM      1  N   UNL     1      -0.194   2.402  26.659  0.00  0.00    -0.086 NA
ATOM      2  C   UNL     1      -0.053   2.422  25.845  0.00  0.00    +0.281 C 
ATOM      3  O   UNL     1       0.721   2.406  25.561  0.00  0.00    -0.270 OA
ENDBRANCH   4   2
BRANCH   4   5
ATOM      5  C   UNL     1      -0.695   3.030  24.724  0.00  0.00    +0.031 C 
BRANCH   5   6
ATOM      6  C   UNL     1      -0.995   3.783  24.879  0.00  0.00    +0.002 C 
ATOM      7  C   UNL     1      -1.750   3.869  25.197  0.00  0.00    +0.000 C 
ATOM      8  C   UNL     1      -2.051   4.621  25.353  0.00  0.00    +0.000 C 
ATOM      9  C   UNL     1      -1.594   5.289  25.190  0.00  0.00    +0.000 C 
ATOM     10  C   UNL     1      -0.837   5.203  24.871  0.00  0.00    +0.000 C 
ATOM     11  C   UNL     1      -0.538   4.450  24.716  0.00  0.00    +0.000 C 
ENDBRANCH   5   6
ENDBRANCH   4   5
ENDBRANCH  12   4
ENDBRANCH  15  13
TORSDOF 7
ENDMDL
MODEL 2
REMARK VINA RESULT:     -11.2      1.517      2.071
REMARK  Name = 
REMARK  7 active torsions:
REMARK  status: ('A' for Active; 'I' for Inactive)
REMARK    1  A    between atoms: C_2  and  C_4
REMARK    2  A    between atoms: C_4  and  C_5
REMARK    3  A    between atoms: C_4  and  N_12
REMARK    4  A    between atoms: C_5  and  C_6
REMARK    5  A    between atoms: C_13  and  C_15
REMARK    6  A    between atoms: C_21  and  C_23
REMARK    7  A    between atoms: N_30  and  C_31
REMARK                            x       y       z     vdW  Elec       q    Type
REMARK                         _______ _______ _______ _____ _____    ______ ____
ROOT
ATOM     15  C   UNL     1      -2.801   0.105  24.842  0.00  0.00    +0.174 C 
ATOM     16  C   UNL     1      -3.247   0.792  24.932  0.00  0.00    +0.124 C 
ATOM     17  N   UNL     1      -4.071   0.753  24.935  0.00  0.00    -0.259 N 
ATOM     18  C   UNL     1      -4.449   0.025  24.848  0.00  0.00    +0.117 C 
ATOM     19  C   UNL     1      -4.003  -0.664  24.757  0.00  0.00    +0.116 C 
ATOM     20  N   UNL     1      -3.179  -0.623  24.754  0.00  0.00    -0.266 N 
ATOM     21  C   UNL     1      -2.733  -1.312  24.663  0.00  0.00    +0.255 C 
ATOM     22  O   UNL     1      -1.909  -1.271  24.660  0.00  0.00    -0.269 OA
ATOM     28  C   UNL     1      -4.517   1.440  25.026  0.00  0.00    +0.328 C 
ATOM     29  O   UNL     1      -5.341   1.401  25.029  0.00  0.00    -0.250 OA
ATOM     30  N   UNL     1      -4.139   2.168  25.114  0.00  0.00    -0.162 NA
ENDROOT
BRANCH  30  31
ATOM     31  C   UNL     1      -4.585   2.857  25.204  0.00  0.00    +0.075 A 
ATOM     32  C   UNL     1      -4.448   3.506  24.713  0.00  0.00    +0.017 A 
ATOM     33  C   UNL     1      -4.893   4.193  24.804  0.00  0.00    +0.001 A 
ATOM     34  C   UNL     1      -5.477   4.234  25.386  0.00  0.00    +0.000 A 
ATOM     35  C   UNL     1      -5.614   3.585  25.877  0.00  0.00    +0.001 A 
ATOM     36  C   UNL     1      -5.168   2.896  25.786  0.00  0.00    +0.017 A 
ENDBRANCH  30  31
BRANCH  21  23
ATOM     23  C   UNL     1      -3.111  -2.040  24.576  0.00  0.00    +0.083 A 
ATOM     24  C   UNL     1      -3.463  -2.324  23.885  0.00  0.00    +0.012 A 
ATOM     25  C   UNL     1      -3.772  -3.071  24.045  0.00  0.00    +0.008 A 
ATOM     26  C   UNL     1      -3.612  -3.249  24.835  0.00  0.00    +0.036 A 
ATOM     27  S   UNL     1      -3.203  -2.612  25.162  0.00  0.00    -0.082 S 
ENDBRANCH  21  23
BRANCH  15  13
ATOM     12  N   UNL     1      -1.594   0.760  24.447  0.00  0.00    -0.196 NA
ATOM     13  C   UNL     1      -1.977   0.144  24.839  0.00  0.00    +0.262 C 
ATOM     14  O   UNL     1      -1.535  -0.434  25.228  0.00  0.00    -0.271 OA
BRANCH  12   4
ATOM      4  C   UNL     1      -0.770   0.800  24.444  0.00  0.00    +0.174 C 
BRANCH   4   2
ATOM      1  N   UNL     1       0.303  -0.014  23.964  0.00  0.00    -0.086 NA
ATOM      2  C   UNL     1      -0.344   0.476  23.816  0.00  0.00    +0.281 C 
ATOM      3  O   UNL     1      -0.566   0.641  23.038  0.00  0.00    -0.270 OA
ENDBRANCH   4   2
BRANCH   4   5
ATOM      5  C   UNL     1      -0.371   1.162  25.068  0.00  0.00    +0.031 C 
BRANCH   5   6
ATOM      6  C   UNL     1      -0.426   1.979  25.174  0.00  0.00    +0.002 C 
ATOM      7  C   UNL     1      -0.333   2.486  24.531  0.00  0.00    +0.000 C 
ATOM      8  C   UNL     1      -0.388   3.302  24.638  0.00  0.00    +0.000 C 
ATOM      9  C   UNL     1      -0.535   3.611  25.389  0.00  0.00    +0.000 C 
ATOM     10  C   UNL     1      -0.627   3.103  26.033  0.00  0.00    +0.000 C 
ATOM     11  C   UNL     1      -0.573   2.287  25.925  0.00  0.00    +0.000 C 
ENDBRANCH   5   6
ENDBRANCH   4   5
ENDBRANCH  12   4
ENDBRANCH  15  13
TORSDOF 7
ENDMDL
MODEL 3
REMARK VINA RESULT:     -11.2      1.766      4.136
REMARK  Name = 
REMARK  7 active torsions:
REMARK  status: ('A' for Active; 'I' for Inactive)
REMARK    1  A    between atoms: C_2  and  C_4
REMARK    2  A    between atoms: C_4  and  C_5
REMARK    3  A    between atoms: C_4  and  N_12
REMARK    4  A    between atoms: C_5  and  C_6
REMARK    5  A    between atoms: C_13  and  C_15
REMARK    6  A    between atoms: C_21  and  C_23
REMARK    7  A    between atoms: N_30  and  C_31
REMARK                            x       y       z     vdW  Elec       q    Type
REMARK                         _______ _______ _______ _____ _____    ______ ____
ROOT
ATOM     15  C   UNL     1      -2.347   1.575  25.122  0.00  0.00    +0.174 C 
ATOM     16  C   UNL     1      -2.637   0.821  24.960  0.00  0.00    +0.124 C 
ATOM     17  N   UNL     1      -2.154   0.160  25.065  0.00  0.00    -0.259 N 
ATOM     18  C   UNL     1      -1.379   0.255  25.333  0.00  0.00    +0.117 C 
ATOM     19  C   UNL     1      -1.088   1.011  25.495  0.00  0.00    +0.116 C 
ATOM     20  N   UNL     1      -1.572   1.670  25.390  0.00  0.00    -0.266 N 
ATOM     21  C   UNL     1      -1.281   2.425  25.552  0.00  0.00    +0.255 C 
ATOM     22  O   UNL     1      -1.765   3.085  25.446  0.00  0.00    -0.269 OA
ATOM     28  C   UNL     1      -2.444  -0.594  24.903  0.00  0.00    +0.328 C 
ATOM     29  O   UNL     1      -1.961  -1.254  25.008  0.00  0.00    -0.250 OA
ATOM     30  N   UNL     1      -3.219  -0.689  24.635  0.00  0.00    -0.162 NA
ENDROOT
BRANCH  30  31
ATOM     31  C   UNL     1      -3.510  -1.444  24.473  0.00  0.00    +0.075 A 
ATOM     32  C   UNL     1      -3.362  -2.065  24.996  0.00  0.00    +0.017 A 
ATOM     33  C   UNL     1      -3.653  -2.819  24.834  0.00  0.00    +0.001 A 
ATOM     34  C   UNL     1      -4.092  -2.954  24.148  0.00  0.00    +0.000 A 
ATOM     35  C   UNL     1      -4.240  -2.333  23.625  0.00  0.00    +0.001 A 
ATOM     36  C   UNL     1      -3.949  -1.578  23.788  0.00  0.00    +0.017 A 
ENDBRANCH  30  31
BRANCH  21  23
ATOM     23  C   UNL     1      -0.506   2.520  25.820  0.00  0.00    +0.083 A 
ATOM     24  C   UNL     1      -0.259   2.500  26.607  0.00  0.00    +0.012 A 
ATOM     25  C   UNL     1       0.556   2.619  26.621  0.00  0.00    +0.008 A 
ATOM     26  C   UNL     1       0.814   2.713  25.843  0.00  0.00    +0.036 A 
ATOM     27  S   UNL     1       0.157   2.652  25.348  0.00  0.00    -0.082 S 
ENDBRANCH  21  23
BRANCH  15  13
ATOM     12  N   UNL     1      -3.544   2.164  24.611  0.00  0.00    -0.196 NA
ATOM     13  C   UNL     1      -2.830   2.236  25.017  0.00  0.00    +0.262 C 
ATOM     14  O   UNL     1      -2.598   2.968  25.317  0.00  0.00    -0.271 OA
BRANCH  12   4
ATOM      4  C   UNL     1      -4.028   2.825  24.506  0.00  0.00    +0.174 C 
BRANCH   4   2
ATOM      1  N   UNL     1      -4.028   4.083  23.828  0.00  0.00    -0.086 NA
ATOM      2  C   UNL     1      -3.985   3.259  23.806  0.00  0.00    +0.281 C 
ATOM      3  O   UNL     1      -3.900   2.870  23.083  0.00  0.00    -0.270 OA
ENDBRANCH   4   2
BRANCH   4   5
ATOM      5  C   UNL     1      -4.553   3.051  25.100  0.00  0.00    +0.031 C 
BRANCH   5   6
ATOM      6  C   UNL     1      -5.218   2.590  25.261  0.00  0.00    +0.002 C 
ATOM      7  C   UNL     1      -5.577   2.158  24.658  0.00  0.00    +0.000 C 
ATOM      8  C   UNL     1      -6.243   1.697  24.819  0.00  0.00    +0.000 C 
ATOM      9  C   UNL     1      -6.548   1.668  25.585  0.00  0.00    +0.000 C 
ATOM     10  C   UNL     1      -6.188   2.100  26.189  0.00  0.00    +0.000 C 
ATOM     11  C   UNL     1      -5.523   2.561  26.027  0.00  0.00    +0.000 C 
ENDBRANCH   5   6
ENDBRANCH   4   5
ENDBRANCH  12   4
ENDBRANCH  15  13
TORSDOF 7
ENDMDL
MODEL 4
REMARK VINA RESULT:     -10.8      2.048      4.172
REMARK  Name = 
REMARK  7 active torsions:
REMARK  status: ('A' for Active; 'I' for Inactive)
REMARK    1  A    between atoms: C_2  and  C_4
REMARK    2  A    between atoms: C_4  and  C_5
REMARK    3  A    between atoms: C_4  and  N_12
REMARK    4  A    between atoms: C_5  and  C_6
REMARK    5  A    between atoms: C_13  and  C_15
REMARK    6  A    between atoms: C_21  and  C_23
REMARK    7  A    between atoms: N_30  and  C_31
REMARK                            x       y       z     vdW  Elec       q    Type
REMARK                         _______ _______ _______ _____ _____    ______ ____
ROOT
ATOM     15  C   UNL     1      -2.984   1.595  24.758  0.00  0.00    +0.174 C 
ATOM     16  C   UNL     1      -3.131   0.789  24.670  0.00  0.00    +0.124 C 
ATOM     17  N   UNL     1      -3.898   0.497  24.755  0.00  0.00    -0.259 N 
ATOM     18  C   UNL     1      -4.518   1.012  24.928  0.00  0.00    +0.117 C 
ATOM     19  C   UNL     1      -4.371   1.820  25.017  0.00  0.00    +0.116 C 
ATOM     20  N   UNL     1      -3.604   2.111  24.932  0.00  0.00    -0.266 N 
ATOM     21  C   UNL     1      -3.458   2.919  25.020  0.00  0.00    +0.255 C 
ATOM     22  O   UNL     1      -2.691   3.210  24.935  0.00  0.00    -0.269 OA
ATOM     28  C   UNL     1      -4.044  -0.310  24.666  0.00  0.00    +0.328 C 
ATOM     29  O   UNL     1      -4.811  -0.602  24.751  0.00  0.00    -0.250 OA
ATOM     30  N   UNL     1      -3.424  -0.825  24.493  0.00  0.00    -0.162 NA
ENDROOT
BRANCH  30  31
ATOM     31  C   UNL     1      -3.570  -1.633  24.404  0.00  0.00    +0.075 A 
ATOM     32  C   UNL     1      -3.276  -2.169  24.958  0.00  0.00    +0.017 A 
ATOM     33  C   UNL     1      -3.423  -2.975  24.869  0.00  0.00    +0.001 A 
ATOM     34  C   UNL     1      -3.864  -3.247  24.227  0.00  0.00    +0.000 A 
ATOM     35  C   UNL     1      -4.158  -2.711  23.673  0.00  0.00    +0.001 A 
ATOM     36  C   UNL     1      -4.011  -1.903  23.761  0.00  0.00    +0.017 A 
ENDBRANCH  30  31
BRANCH  21  23
ATOM     23  C   UNL     1      -4.078   3.434  25.194  0.00  0.00    +0.083 A 
ATOM     24  C   UNL     1      -4.578   3.793  24.644  0.00  0.00    +0.012 A 
ATOM     25  C   UNL     1      -5.116   4.261  25.058  0.00  0.00    +0.008 A 
ATOM     26  C   UNL     1      -4.949   4.192  25.862  0.00  0.00    +0.036 A 
ATOM     27  S   UNL     1      -4.307   3.681  25.946  0.00  0.00    -0.082 S 
ENDBRANCH  21  23
BRANCH  15  13
ATOM     12  N   UNL     1      -1.574   1.444  24.938  0.00  0.00    -0.196 NA
ATOM     13  C   UNL     1      -2.217   1.888  24.674  0.00  0.00    +0.262 C 
ATOM     14  O   UNL     1      -2.093   2.625  24.324  0.00  0.00    -0.271 OA
BRANCH  12   4
ATOM      4  C   UNL     1      -0.807   1.736  24.853  0.00  0.00    +0.174 C 
BRANCH   4   2
ATOM      1  N   UNL     1      -0.002   2.750  25.461  0.00  0.00    -0.086 NA
ATOM      2  C   UNL     1      -0.403   2.029  25.510  0.00  0.00    +0.281 C 
ATOM      3  O   UNL     1      -0.399   1.603  26.216  0.00  0.00    -0.270 OA
ENDBRANCH   4   2
BRANCH   4   5
ATOM      5  C   UNL     1      -0.445   1.736  24.113  0.00  0.00    +0.031 C 
BRANCH   5   6
ATOM      6  C   UNL     1       0.003   1.085  23.872  0.00  0.00    +0.002 C 
ATOM      7  C   UNL     1      -0.322   0.328  23.900  0.00  0.00    +0.000 C 
ATOM      8  C   UNL     1       0.125  -0.322  23.659  0.00  0.00    +0.000 C 
ATOM      9  C   UNL     1       0.898  -0.214  23.390  0.00  0.00    +0.000 C 
ATOM     10  C   UNL     1       1.223   0.544  23.362  0.00  0.00    +0.000 C 
ATOM     11  C   UNL     1       0.775   1.193  23.603  0.00  0.00    +0.000 C 
ENDBRANCH   5   6
ENDBRANCH   4   5
ENDBRANCH  12   4
ENDBRANCH  15  13
TORSDOF 7
ENDMDL
MODEL 5
REMARK VINA RESULT:     -10.7      2.098      4.298
REMARK  Name = 
REMARK  7 active torsions:
REMARK  status: ('A' for Active; 'I' for Inactive)
REMARK    1  A    between atoms: C_2  and  C_4
REMARK    2  A    between atoms: C_4  and  C_5
REMARK    3  A    between atoms: C_4  and  N_12
REMARK    4  A    between atoms: C_5  and  C_6
REMARK    5  A    between atoms: C_13  and  C_15
REMARK    6  A    between atoms: C_21  and  C_23
REMARK    7  A    between atoms: N_30  and  C_31
REMARK                            x       y       z     vdW  Elec       q    Type
REMARK                         _______ _______ _______ _____ _____    ______ ____
ROOT
ATOM     15  C   UNL     1      -0.590   0.432  24.290  0.00  0.00    +0.174 C 
ATOM     16  C   UNL     1      -1.010   1.102  24.522  0.00  0.00    +0.124 C 
ATOM     17  N   UNL     1      -0.791   1.846  24.239  0.00  0.00    -0.259 N 
ATOM     18  C   UNL     1      -0.151   1.918  23.723  0.00  0.00    +0.117 C 
ATOM     19  C   UNL     1       0.269   1.246  23.490  0.00  0.00    +0.116 C 
ATOM     20  N   UNL     1       0.050   0.504  23.774  0.00  0.00    -0.266 N 
ATOM     21  C   UNL     1       0.470  -0.167  23.542  0.00  0.00    +0.255 C 
ATOM     22  O   UNL     1       0.251  -0.910  23.826  0.00  0.00    -0.269 OA
ATOM     28  C   UNL     1      -1.211   2.516  24.471  0.00  0.00    +0.328 C 
ATOM     29  O   UNL     1      -0.992   3.260  24.187  0.00  0.00    -0.250 OA
ATOM     30  N   UNL     1      -1.851   2.444  24.987  0.00  0.00    -0.162 NA
ENDROOT
BRANCH  30  31
ATOM     31  C   UNL     1      -2.271   3.115  25.219  0.00  0.00    +0.075 A 
ATOM     32  C   UNL     1      -2.994   3.293  24.864  0.00  0.00    +0.017 A 
ATOM     33  C   UNL     1      -3.414   3.963  25.096  0.00  0.00    +0.001 A 
ATOM     34  C   UNL     1      -3.112   4.457  25.684  0.00  0.00    +0.000 A 
ATOM     35  C   UNL     1      -2.389   4.280  26.039  0.00  0.00    +0.001 A 
ATOM     36  C   UNL     1      -1.968   3.608  25.807  0.00  0.00    +0.017 A 
ENDBRANCH  30  31
BRANCH  21  23
ATOM     23  C   UNL     1       1.110  -0.095  23.026  0.00  0.00    +0.083 A 
ATOM     24  C   UNL     1       1.092  -0.223  22.210  0.00  0.00    +0.012 A 
ATOM     25  C   UNL     1       1.850  -0.089  21.915  0.00  0.00    +0.008 A 
ATOM     26  C   UNL     1       2.337   0.120  22.548  0.00  0.00    +0.036 A 
ATOM     27  S   UNL     1       1.879   0.116  23.234  0.00  0.00    -0.082 S 
ENDBRANCH  21  23
BRANCH  15  13
ATOM     12  N   UNL     1      -1.604  -0.488  24.698  0.00  0.00    -0.196 NA
ATOM     13  C   UNL     1      -0.809  -0.312  24.574  0.00  0.00    +0.262 C 
ATOM     14  O   UNL     1      -0.231  -0.878  24.733  0.00  0.00    -0.271 OA
BRANCH  12   4
ATOM      4  C   UNL     1      -1.823  -1.232  24.981  0.00  0.00    +0.174 C 
BRANCH   4   2
ATOM      1  N   UNL     1      -2.167  -0.885  26.325  0.00  0.00    -0.086 NA
ATOM      2  C   UNL     1      -1.791  -1.390  25.790  0.00  0.00    +0.281 C 
ATOM      3  O   UNL     1      -1.384  -2.052  26.066  0.00  0.00    -0.270 OA
ENDBRANCH   4   2
BRANCH   4   5
ATOM      5  C   UNL     1      -2.074  -1.817  24.457  0.00  0.00    +0.031 C 
BRANCH   5   6
ATOM      6  C   UNL     1      -2.875  -1.890  24.272  0.00  0.00    +0.002 C 
ATOM      7  C   UNL     1      -3.313  -1.225  24.061  0.00  0.00    +0.000 C 
ATOM      8  C   UNL     1      -4.114  -1.299  23.876  0.00  0.00    +0.000 C 
ATOM      9  C   UNL     1      -4.476  -2.039  23.902  0.00  0.00    +0.000 C 
ATOM     10  C   UNL     1      -4.037  -2.706  24.114  0.00  0.00    +0.000 C 
ATOM     11  C   UNL     1      -3.237  -2.631  24.299  0.00  0.00    +0.000 C 
ENDBRANCH   5   6
ENDBRANCH   4   5
ENDBRANCH  12   4
ENDBRANCH  15  13
TORSDOF 7
ENDMDL
MODEL 6
REMARK VINA RESULT:     -10.4      1.550      4.066
REMARK  Name = 
REMARK  7 active torsions:
REMARK  status: ('A' for Active; 'I' for Inactive)
REMARK    1  A    between atoms: C_2  and  C_4
REMARK    2  A    between atoms: C_4  and  C_5
REMARK    3  A    between atoms: C_4  and  N_12
REMARK    4  A    between atoms: C_5  and  C_6
REMARK    5  A    between atoms: C_13  and  C_15
REMARK    6  A    between atoms: C_21  and  C_23
REMARK    7  A    between atoms: N_30  and  C_31
REMARK                            x       y       z     vdW  Elec       q    Type
REMARK                         _______ _______ _______ _____ _____    ______ ____
ROOT
ATOM     15  C   UNL     1      -3.333   0.212  24.758  0.00  0.00    +0.174 C 
ATOM     16  C   UNL     1      -2.670   0.655  24.965  0.00  0.00    +0.124 C 
ATOM     17  N   UNL     1      -1.947   0.279  25.097  0.00  0.00    -0.259 N 
ATOM     18  C   UNL     1      -1.889  -0.541  25.022  0.00  0.00    +0.117 C 
ATOM     19  C   UNL     1      -2.553  -0.984  24.815  0.00  0.00    +0.116 C 
ATOM     20  N   UNL     1      -3.275  -0.608  24.683  0.00  0.00    -0.266 N 
ATOM     21  C   UNL     1      -3.940  -1.052  24.476  0.00  0.00    +0.255 C 
ATOM     22  O   UNL     1      -4.662  -0.675  24.344  0.00  0.00    -0.269 OA
ATOM     28  C   UNL     1      -1.283   0.722  25.304  0.00  0.00    +0.328 C 
ATOM     29  O   UNL     1      -0.560   0.346  25.436  0.00  0.00    -0.250 OA
ATOM     30  N   UNL     1      -1.341   1.541  25.379  0.00  0.00    -0.162 NA
ENDROOT
BRANCH  30  31
ATOM     31  C   UNL     1      -0.677   1.985  25.586  0.00  0.00    +0.075 A 
ATOM     32  C   UNL     1      -0.528   2.160  26.379  0.00  0.00    +0.017 A 
ATOM     33  C   UNL     1       0.136   2.604  26.585  0.00  0.00    +0.001 A 
ATOM     34  C   UNL     1       0.652   2.873  26.000  0.00  0.00    +0.000 A 
ATOM     35  C   UNL     1       0.503   2.698  25.208  0.00  0.00    +0.001 A 
ATOM     36  C   UNL     1      -0.162   2.254  25.000  0.00  0.00    +0.017 A 
ENDBRANCH  30  31
BRANCH  21  23
ATOM     23  C   UNL     1      -3.882  -1.871  24.401  0.00  0.00    +0.083 A 
ATOM     24  C   UNL     1      -3.675  -2.400  25.000  0.00  0.00    +0.012 A 
ATOM     25  C   UNL     1      -3.686  -3.161  24.683  0.00  0.00    +0.008 A 
ATOM     26  C   UNL     1      -3.898  -3.103  23.888  0.00  0.00    +0.036 A 
ATOM     27  S   UNL     1      -4.019  -2.306  23.714  0.00  0.00    -0.082 S 
ENDBRANCH  21  23
BRANCH  15  13
ATOM     12  N   UNL     1      -4.262   1.254  25.065  0.00  0.00    -0.196 NA
ATOM     13  C   UNL     1      -4.056   0.587  24.626  0.00  0.00    +0.262 C 
ATOM     14  O   UNL     1      -4.573   0.295  24.053  0.00  0.00    -0.271 OA
BRANCH  12   4
ATOM      4  C   UNL     1      -4.984   1.629  24.933  0.00  0.00    +0.174 C 
BRANCH   4   2
ATOM      1  N   UNL     1      -6.381   1.326  24.981  0.00  0.00    -0.086 NA
ATOM      2  C   UNL     1      -5.652   1.401  25.361  0.00  0.00    +0.281 C 
ATOM      3  O   UNL     1      -5.591   1.247  26.169  0.00  0.00    -0.270 OA
ENDBRANCH   4   2
BRANCH   4   5
ATOM      5  C   UNL     1      -5.040   2.232  24.374  0.00  0.00    +0.031 C 
BRANCH   5   6
ATOM      6  C   UNL     1      -4.636   2.942  24.489  0.00  0.00    +0.002 C 
ATOM      7  C   UNL     1      -4.725   3.358  25.195  0.00  0.00    +0.000 C 
ATOM      8  C   UNL     1      -4.320   4.068  25.311  0.00  0.00    +0.000 C 
ATOM      9  C   UNL     1      -3.826   4.361  24.719  0.00  0.00    +0.000 C 
ATOM     10  C   UNL     1      -3.737   3.945  24.012  0.00  0.00    +0.000 C 
ATOM     11  C   UNL     1      -4.142   3.236  23.898  0.00  0.00    +0.000 C 
ENDBRANCH   5   6
ENDBRANCH   4   5
ENDBRANCH  12   4
ENDBRANCH  15  13
TORSDOF 7
ENDMDL
MODEL 7
REMARK VINA RESULT:     -10.1      0.938      3.881
REMARK  Name = 
REMARK  7 active torsions:
REMARK  status: ('A' for Active; 'I' for Inactive)
REMARK    1  A    between atoms: C_2  and  C_4
REMARK    2  A    between atoms: C_4  and  C_5
REMARK    3  A    between atoms: C_4  and  N_12
REMARK    4  A    between atoms: C_5  and  C_6
REMARK    5  A    between atoms: C_13  and  C_15
REMARK    6  A    between atoms: C_21  and  C_23
REMARK    7  A    between atoms: N_30  and  C_31
REMARK                            x       y       z     vdW  Elec       q    Type
REMARK                         _______ _______ _______ _____ _____    ______ ____
ROOT
ATOM     15  C   UNL     1      -1.980   0.832  24.646  0.00  0.00    +0.174 C 
ATOM     16  C   UNL     1      -1.834   1.641  24.710  0.00  0.00    +0.124 C 
ATOM     17  N   UNL     1      -1.074   1.911  24.883  0.00  0.00    -0.259 N 
ATOM     18  C   UNL     1      -0.460   1.371  24.994  0.00  0.00    +0.117 C 
ATOM     19  C   UNL     1      -0.606   0.560  24.931  0.00  0.00    +0.116 C 
ATOM     20  N   UNL     1      -1.367   0.292  24.757  0.00  0.00    -0.266 N 
ATOM     21  C   UNL     1      -1.513  -0.518  24.694  0.00  0.00    +0.255 C 
ATOM     22  O   UNL     1      -2.274  -0.787  24.520  0.00  0.00    -0.269 OA
ATOM     28  C   UNL     1      -0.927   2.719  24.947  0.00  0.00    +0.328 C 
ATOM     29  O   UNL     1      -0.167   2.989  25.120  0.00  0.00    -0.250 OA
ATOM     30  N   UNL     1      -1.541   3.260  24.836  0.00  0.00    -0.162 NA
ENDROOT
BRANCH  30  31
ATOM     31  C   UNL     1      -1.394   4.070  24.899  0.00  0.00    +0.075 A 
ATOM     32  C   UNL     1      -0.745   4.403  24.515  0.00  0.00    +0.017 A 
ATOM     33  C   UNL     1      -0.599   5.212  24.578  0.00  0.00    +0.001 A 
ATOM     34  C   UNL     1      -1.101   5.689  25.026  0.00  0.00    +0.000 A 
ATOM     35  C   UNL     1      -1.751   5.356  25.410  0.00  0.00    +0.001 A 
ATOM     36  C   UNL     1      -1.897   4.546  25.347  0.00  0.00    +0.017 A 
ENDBRANCH  30  31
BRANCH  21  23
ATOM     23  C   UNL     1      -0.900  -1.058  24.804  0.00  0.00    +0.083 A 
ATOM     24  C   UNL     1      -0.303  -1.232  24.261  0.00  0.00    +0.012 A 
ATOM     25  C   UNL     1       0.190  -1.801  24.598  0.00  0.00    +0.008 A 
ATOM     26  C   UNL     1      -0.101  -1.978  25.350  0.00  0.00    +0.036 A 
ATOM     27  S   UNL     1      -0.774  -1.519  25.477  0.00  0.00    -0.082 S 
ENDBRANCH  21  23
BRANCH  15  13
ATOM     12  N   UNL     1      -3.366   0.736  24.980  0.00  0.00    -0.196 NA
ATOM     13  C   UNL     1      -2.741   0.562  24.473  0.00  0.00    +0.262 C 
ATOM     14  O   UNL     1      -2.874   0.118  23.790  0.00  0.00    -0.271 OA
BRANCH  12   4
ATOM      4  C   UNL     1      -4.127   0.466  24.807  0.00  0.00    +0.174 C 
BRANCH   4   2
ATOM      1  N   UNL     1      -4.684  -0.814  24.499  0.00  0.00    -0.086 NA
ATOM      2  C   UNL     1      -4.361  -0.288  25.047  0.00  0.00    +0.281 C 
ATOM      3  O   UNL     1      -4.273  -0.516  25.835  0.00  0.00    -0.270 OA
ENDBRANCH   4   2
BRANCH   4   5
ATOM      5  C   UNL     1      -4.652   0.948  24.393  0.00  0.00    +0.031 C 
BRANCH   5   6
ATOM      6  C   UNL     1      -5.001   1.596  24.768  0.00  0.00    +0.002 C 
ATOM      7  C   UNL     1      -5.504   1.479  25.410  0.00  0.00    +0.000 C 
ATOM      8  C   UNL     1      -5.853   2.126  25.785  0.00  0.00    +0.000 C 
ATOM      9  C   UNL     1      -5.697   2.891  25.516  0.00  0.00    +0.000 C 
ATOM     10  C   UNL     1      -5.193   3.008  24.872  0.00  0.00    +0.000 C 
ATOM     11  C   UNL     1      -4.845   2.360  24.499  0.00  0.00    +0.000 C 
ENDBRANCH   5   6
ENDBRANCH   4   5
ENDBRANCH  12   4
ENDBRANCH  15  13
TORSDOF 7
ENDMDL
MODEL 8
REMARK VINA RESULT:     -10.0      2.105      4.332
REMARK  Name = 
REMARK  7 active torsions:
REMARK  status: ('A' for Active; 'I' for Inactive)
REMARK    1  A    between atoms: C_2  and  C_4
REMARK    2  A    between atoms: C_4  and  C_5
REMARK    3  A    between atoms: C_4  and  N_12
REMARK    4  A    between atoms: C_5  and  C_6
REMARK    5  A    between atoms: C_13  and  C_15
REMARK    6  A    between atoms: C_21  and  C_23
REMARK    7  A    between atoms: N_30  and  C_31
REMARK                            x       y       z     vdW  Elec       q    Type
REMARK                         _______ _______ _______ _____ _____    ______ ____
ROOT
ATOM     15  C   UNL     1      -1.675   0.297  24.468  0.00  0.00    +0.174 C 
ATOM     16  C   UNL     1      -0.912   0.354  24.161  0.00  0.00    +0.124 C 
ATOM     17  N   UNL     1      -0.498  -0.329  23.953  0.00  0.00    -0.259 N 
ATOM     18  C   UNL     1      -0.848  -1.069  24.051  0.00  0.00    +0.117 C 
ATOM     19  C   UNL     1      -1.613  -1.127  24.359  0.00  0.00    +0.116 C 
ATOM     20  N   UNL     1      -2.025  -0.444  24.567  0.00  0.00    -0.266 N 
ATOM     21  C   UNL     1      -2.789  -0.501  24.874  0.00  0.00    +0.255 C 
ATOM     22  O   UNL     1      -3.202   0.182  25.082  0.00  0.00    -0.269 OA
ATOM     28  C   UNL     1       0.265  -0.272  23.646  0.00  0.00    +0.328 C 
ATOM     29  O   UNL     1       0.679  -0.955  23.437  0.00  0.00    -0.250 OA
ATOM     30  N   UNL     1       0.615   0.468  23.547  0.00  0.00    -0.162 NA
ENDROOT
BRANCH  30  31
ATOM     31  C   UNL     1       1.380   0.526  23.240  0.00  0.00    +0.075 A 
ATOM     32  C   UNL     1       1.608   0.047  22.608  0.00  0.00    +0.017 A 
ATOM     33  C   UNL     1       2.371   0.105  22.301  0.00  0.00    +0.001 A 
ATOM     34  C   UNL     1       2.907   0.641  22.626  0.00  0.00    +0.000 A 
ATOM     35  C   UNL     1       2.679   1.120  23.258  0.00  0.00    +0.001 A 
ATOM     36  C   UNL     1       1.915   1.062  23.566  0.00  0.00    +0.017 A 
ENDBRANCH  30  31
BRANCH  21  23
ATOM     23  C   UNL     1      -3.140  -1.242  24.972  0.00  0.00    +0.083 A 
ATOM     24  C   UNL     1      -3.061  -1.731  25.632  0.00  0.00    +0.012 A 
ATOM     25  C   UNL     1      -3.503  -2.414  25.496  0.00  0.00    +0.008 A 
ATOM     26  C   UNL     1      -3.854  -2.347  24.753  0.00  0.00    +0.036 A 
ATOM     27  S   UNL     1      -3.630  -1.623  24.429  0.00  0.00    -0.082 S 
ENDBRANCH  21  23
BRANCH  15  13
ATOM     12  N   UNL     1      -1.982   1.675  24.247  0.00  0.00    -0.196 NA
ATOM     13  C   UNL     1      -2.089   0.979  24.676  0.00  0.00    +0.262 C 
ATOM     14  O   UNL     1      -2.610   0.966  25.315  0.00  0.00    -0.271 OA
BRANCH  12   4
ATOM      4  C   UNL     1      -2.396   2.357  24.455  0.00  0.00    +0.174 C 
BRANCH   4   2
ATOM      1  N   UNL     1      -3.738   2.838  24.357  0.00  0.00    -0.086 NA
ATOM      2  C   UNL     1      -3.032   2.610  23.995  0.00  0.00    +0.281 C 
ATOM      3  O   UNL     1      -2.964   2.635  23.173  0.00  0.00    -0.270 OA
ENDBRANCH   4   2
BRANCH   4   5
ATOM      5  C   UNL     1      -2.174   2.787  25.122  0.00  0.00    +0.031 C 
BRANCH   5   6
ATOM      6  C   UNL     1      -1.699   3.458  25.043  0.00  0.00    +0.002 C 
ATOM      7  C   UNL     1      -0.932   3.389  24.749  0.00  0.00    +0.000 C 
ATOM      8  C   UNL     1      -0.458   4.059  24.670  0.00  0.00    +0.000 C 
ATOM      9  C   UNL     1      -0.752   4.799  24.885  0.00  0.00    +0.000 C 
ATOM     10  C   UNL     1      -1.520   4.869  25.180  0.00  0.00    +0.000 C 
ATOM     11  C   UNL     1      -1.993   4.198  25.259  0.00  0.00    +0.000 C 
ENDBRANCH   5   6
ENDBRANCH   4   5
ENDBRANCH  12   4
ENDBRANCH  15  13
TORSDOF 7
ENDMDL
