MODEL 1
REMARK VINA RESULT:      -8.5      0.000      0.000
REMARK  Name = 
REMARK  8 active torsions:
REMARK  status: ('A' for Active; 'I' for Inactive)
REMARK    1  A    between atoms: O_2  and  C_3
REMARK    2  A    between atoms: C_8  and  O_9
REMARK    3  A    between atoms: C_11  and  C_12
REMARK    4  A    between atoms: C_12  and  C_13
REMARK    5  A    between atoms: C_18  and  C_19
REMARK    6  A    between atoms: C_19  and  C_20
REMARK    7  A    between atoms: C_23  and  C_25
REMARK    8  A    between atoms: C_28  and  C_31
REMARK                            x       y       z     vdW  Elec       q    Type
REMARK                         _______ _______ _______ _____ _____    ______ ____
ROOT
ATOM     13  C   UNL     1      -4.390   1.874  25.024  0.00  0.00    +0.026 C 
ATOM     14  C   UNL     1      -3.762   1.369  24.850  0.00  0.00    +0.094 C 
ATOM     15  N   UNL     1      -3.892   0.555  24.790  0.00  0.00    -0.276 N 
ATOM     16  C   UNL     1      -4.649   0.249  24.905  0.00  0.00    +0.094 C 
ATOM     17  C   UNL     1      -5.276   0.755  25.079  0.00  0.00    +0.022 C 
ATOM     18  C   UNL     1      -5.148   1.567  25.139  0.00  0.00    +0.015 C 
ATOM     23  C   UNL     1      -3.264   0.049  24.616  0.00  0.00    +0.249 C 
ATOM     24  O   UNL     1      -2.507   0.357  24.501  0.00  0.00    -0.270 OA
ENDROOT
BRANCH  23  25
ATOM     25  C   UNL     1      -3.393  -0.763  24.556  0.00  0.00    +0.054 A 
ATOM     26  C   UNL     1      -3.195  -1.259  25.185  0.00  0.00    +0.005 A 
ATOM     27  C   UNL     1      -3.325  -2.072  25.126  0.00  0.00    +0.010 A 
ATOM     28  C   UNL     1      -3.652  -2.388  24.438  0.00  0.00    +0.068 A 
ATOM     29  C   UNL     1      -3.850  -1.892  23.809  0.00  0.00    +0.010 A 
ATOM     30  C   UNL     1      -3.721  -1.080  23.869  0.00  0.00    +0.005 A 
BRANCH  28  31
ATOM     31  C   UNL     1      -3.782  -3.201  24.378  0.00  0.00    +0.100 C 
ATOM     32  N   UNL     1      -3.912  -4.013  24.319  0.00  0.00    -0.191 NA
ENDBRANCH  28  31
ENDBRANCH  23  25
BRANCH  13  12
ATOM     12  C   UNL     1      -4.261   2.686  25.084  0.00  0.00    +0.047 C 
BRANCH  12  11
ATOM      3  C   UNL     1      -2.007   4.627  25.168  0.00  0.00    +0.172 A 
ATOM      4  C   UNL     1      -2.174   4.503  24.369  0.00  0.00    +0.036 A 
ATOM      5  C   UNL     1      -2.778   3.987  24.148  0.00  0.00    -0.016 A 
ATOM      6  C   UNL     1      -3.218   3.594  24.727  0.00  0.00    +0.012 A 
ATOM      7  C   UNL     1      -3.051   3.718  25.525  0.00  0.00    +0.041 A 
ATOM      8  C   UNL     1      -2.446   4.234  25.747  0.00  0.00    +0.172 A 
ATOM     11  C   UNL     1      -3.822   3.079  24.506  0.00  0.00    +0.054 C 
ATOM     33  N   UNL     1      -3.988   2.955  23.708  0.00  0.00    -0.274 NA
ATOM     34  C   UNL     1      -3.549   3.348  23.129  0.00  0.00    +0.130 C 
ATOM     35  C   UNL     1      -2.944   3.863  23.350  0.00  0.00    +0.053 C 
BRANCH   3   2
ATOM      1  C   UNL     1      -0.811   5.339  24.850  0.00  0.00    +0.253 C 
ATOM      2  O   UNL     1      -1.403   5.142  25.389  0.00  0.00    -0.468 OA
ENDBRANCH   3   2
BRANCH   8   9
ATOM      9  O   UNL     1      -2.280   4.358  26.545  0.00  0.00    -0.468 OA
ATOM     10  C   UNL     1      -2.867   4.239  27.111  0.00  0.00    +0.253 C 
ENDBRANCH   8   9
ENDBRANCH  12  11
ENDBRANCH  13  12
BRANCH  18  19
ATOM     19  C   UNL     1      -5.775   2.073  25.313  0.00  0.00    +0.114 C 
BRANCH  19  20
ATOM     20  C   UNL     1      -6.509   1.762  25.526  0.00  0.00    +0.365 C 
ATOM     21  O   UNL     1      -7.075   1.605  24.947  0.00  0.00    -0.246 OA
ATOM     22  O   UNL     1      -6.677   1.607  26.320  0.00  0.00    -0.246 OA
ENDBRANCH  19  20
ENDBRANCH  18  19
TORSDOF 8
ENDMDL
MODEL 2
REMARK VINA RESULT:      -8.2      1.508      5.483
REMARK  Name = 
REMARK  8 active torsions:
REMARK  status: ('A' for Active; 'I' for Inactive)
REMARK    1  A    between atoms: O_2  and  C_3
REMARK    2  A    between atoms: C_8  and  O_9
REMARK    3  A    between atoms: C_11  and  C_12
REMARK    4  A    between atoms: C_12  and  C_13
REMARK    5  A    between atoms: C_18  and  C_19
REMARK    6  A    between atoms: C_19  and  C_20
REMARK    7  A    between atoms: C_23  and  C_25
REMARK    8  A    between atoms: C_28  and  C_31
REMARK                            x       y       z     vdW  Elec       q    Type
REMARK                         _______ _______ _______ _____ _____    ______ ____
ROOT
ATOM     13  C   UNL     1      -4.017   0.848  24.969  0.00  0.00    +0.026 C 
ATOM     14  C   UNL     1      -3.215   1.020  24.896  0.00  0.00    +0.094 C 
ATOM     15  N   UNL     1      -2.956   1.803  24.919  0.00  0.00    -0.276 N 
ATOM     16  C   UNL     1      -3.502   2.414  25.015  0.00  0.00    +0.094 C 
ATOM     17  C   UNL     1      -4.304   2.243  25.089  0.00  0.00    +0.022 C 
ATOM     18  C   UNL     1      -4.563   1.460  25.066  0.00  0.00    +0.015 C 
ATOM     23  C   UNL     1      -2.152   1.975  24.845  0.00  0.00    +0.249 C 
ATOM     24  O   UNL     1      -1.608   1.363  24.748  0.00  0.00    -0.270 OA
ENDROOT
BRANCH  23  25
ATOM     25  C   UNL     1      -1.894   2.757  24.868  0.00  0.00    +0.054 A 
ATOM     26  C   UNL     1      -1.778   3.174  24.165  0.00  0.00    +0.005 A 
ATOM     27  C   UNL     1      -1.519   3.958  24.188  0.00  0.00    +0.010 A 
ATOM     28  C   UNL     1      -1.378   4.324  24.913  0.00  0.00    +0.068 A 
ATOM     29  C   UNL     1      -1.494   3.907  25.616  0.00  0.00    +0.010 A 
ATOM     30  C   UNL     1      -1.752   3.125  25.593  0.00  0.00    +0.005 A 
BRANCH  28  31
ATOM     31  C   UNL     1      -1.120   5.108  24.936  0.00  0.00    +0.100 C 
ATOM     32  N   UNL     1      -0.861   5.890  24.958  0.00  0.00    -0.191 NA
ENDBRANCH  28  31
ENDBRANCH  23  25
BRANCH  13  12
ATOM     12  C   UNL     1      -4.276   0.065  24.946  0.00  0.00    +0.047 C 
BRANCH  12  11
ATOM      3  C   UNL     1      -3.515  -2.753  24.370  0.00  0.00    +0.172 A 
ATOM      4  C   UNL     1      -3.230  -2.588  25.127  0.00  0.00    +0.036 A 
ATOM      5  C   UNL     1      -3.349  -1.843  25.461  0.00  0.00    -0.016 A 
ATOM      6  C   UNL     1      -3.753  -1.261  25.037  0.00  0.00    +0.012 A 
ATOM      7  C   UNL     1      -4.038  -1.425  24.280  0.00  0.00    +0.041 A 
ATOM      8  C   UNL     1      -3.919  -2.171  23.946  0.00  0.00    +0.172 A 
ATOM     11  C   UNL     1      -3.872  -0.516  25.370  0.00  0.00    +0.054 C 
ATOM     33  N   UNL     1      -3.588  -0.352  26.126  0.00  0.00    -0.274 NA
ATOM     34  C   UNL     1      -3.183  -0.934  26.550  0.00  0.00    +0.130 C 
ATOM     35  C   UNL     1      -3.064  -1.679  26.217  0.00  0.00    +0.053 C 
BRANCH   3   2
ATOM      1  C   UNL     1      -2.634  -3.809  23.986  0.00  0.00    +0.253 C 
ATOM      2  O   UNL     1      -3.396  -3.497  24.037  0.00  0.00    -0.468 OA
ENDBRANCH   3   2
BRANCH   8   9
ATOM      9  O   UNL     1      -4.204  -2.335  23.190  0.00  0.00    -0.468 OA
ATOM     10  C   UNL     1      -5.011  -2.447  23.069  0.00  0.00    +0.253 C 
ENDBRANCH   8   9
ENDBRANCH  12  11
ENDBRANCH  13  12
BRANCH  18  19
ATOM     19  C   UNL     1      -5.367   1.289  25.139  0.00  0.00    +0.114 C 
BRANCH  19  20
ATOM     20  C   UNL     1      -5.907   1.896  25.279  0.00  0.00    +0.365 C 
ATOM     21  O   UNL     1      -6.042   2.159  26.049  0.00  0.00    -0.246 OA
ATOM     22  O   UNL     1      -6.312   2.241  24.648  0.00  0.00    -0.246 OA
ENDBRANCH  19  20
ENDBRANCH  18  19
TORSDOF 8
ENDMDL
MODEL 3
REMARK VINA RESULT:      -7.4      1.614      2.873
REMARK  Name = 
REMARK  8 active torsions:
REMARK  status: ('A' for Active; 'I' for Inactive)
REMARK    1  A    between atoms: O_2  and  C_3
REMARK    2  A    between atoms: C_8  and  O_9
REMARK    3  A    between atoms: C_11  and  C_12
REMARK    4  A    between atoms: C_12  and  C_13
REMARK    5  A    between atoms: C_18  and  C_19
REMARK    6  A    between atoms: C_19  and  C_20
REMARK    7  A    between atoms: C_23  and  C_25
REMARK    8  A    between atoms: C_28  and  C_31
REMARK                            x       y       z     vdW  Elec       q    Type
REMARK                         _______ _______ _______ _____ _____    ______ ____
ROOT
ATOM     13  C   UNL     1      -2.384   1.444  24.405  0.00  0.00    +0.026 C 
ATOM     14  C   UNL     1      -3.076   1.007  24.509  0.00  0.00    +0.094 C 
ATOM     15  N   UNL     1      -3.053   0.183  24.471  0.00  0.00    -0.276 N 
ATOM     16  C   UNL     1      -2.338  -0.204  24.329  0.00  0.00    +0.094 C 
ATOM     17  C   UNL     1      -1.647   0.233  24.225  0.00  0.00    +0.022 C 
ATOM     18  C   UNL     1      -1.669   1.056  24.263  0.00  0.00    +0.015 C 
ATOM     23  C   UNL     1      -3.745  -0.254  24.576  0.00  0.00    +0.249 C 
ATOM     24  O   UNL     1      -4.460   0.134  24.718  0.00  0.00    -0.270 OA
ENDROOT
BRANCH  23  25
ATOM     25  C   UNL     1      -3.722  -1.077  24.538  0.00  0.00    +0.054 A 
ATOM     26  C   UNL     1      -3.958  -1.465  23.849  0.00  0.00    +0.005 A 
ATOM     27  C   UNL     1      -3.935  -2.289  23.810  0.00  0.00    +0.010 A 
ATOM     28  C   UNL     1      -3.677  -2.725  24.461  0.00  0.00    +0.068 A 
ATOM     29  C   UNL     1      -3.442  -2.337  25.151  0.00  0.00    +0.010 A 
ATOM     30  C   UNL     1      -3.465  -1.514  25.189  0.00  0.00    +0.005 A 
BRANCH  28  31
ATOM     31  C   UNL     1      -3.655  -3.549  24.423  0.00  0.00    +0.100 C 
ATOM     32  N   UNL     1      -3.632  -4.373  24.384  0.00  0.00    -0.191 NA
ENDBRANCH  28  31
ENDBRANCH  23  25
BRANCH  13  12
ATOM     12  C   UNL     1      -2.406   2.267  24.443  0.00  0.00    +0.047 C 
BRANCH  12  11
ATOM      3  C   UNL     1      -4.504   4.199  25.292  0.00  0.00    +0.172 A 
ATOM      4  C   UNL     1      -4.591   4.110  24.476  0.00  0.00    +0.036 A 
ATOM      5  C   UNL     1      -4.088   3.605  24.060  0.00  0.00    -0.016 A 
ATOM      6  C   UNL     1      -3.498   3.188  24.460  0.00  0.00    +0.012 A 
ATOM      7  C   UNL     1      -3.411   3.277  25.275  0.00  0.00    +0.041 A 
ATOM      8  C   UNL     1      -3.914   3.782  25.692  0.00  0.00    +0.172 A 
ATOM     11  C   UNL     1      -2.996   2.684  24.044  0.00  0.00    +0.054 C 
ATOM     33  N   UNL     1      -3.083   2.595  23.229  0.00  0.00    -0.274 NA
ATOM     34  C   UNL     1      -3.673   3.012  22.829  0.00  0.00    +0.130 C 
ATOM     35  C   UNL     1      -4.175   3.516  23.245  0.00  0.00    +0.053 C 
BRANCH   3   2
ATOM      1  C   UNL     1      -5.808   4.734  25.521  0.00  0.00    +0.253 C 
ATOM      2  O   UNL     1      -5.006   4.703  25.708  0.00  0.00    -0.468 OA
ENDBRANCH   3   2
BRANCH   8   9
ATOM      9  O   UNL     1      -3.827   3.871  26.507  0.00  0.00    -0.468 OA
ATOM     10  C   UNL     1      -3.087   4.042  26.827  0.00  0.00    +0.253 C 
ENDBRANCH   8   9
ENDBRANCH  12  11
ENDBRANCH  13  12
BRANCH  18  19
ATOM     19  C   UNL     1      -0.977   1.493  24.159  0.00  0.00    +0.114 C 
BRANCH  19  20
ATOM     20  C   UNL     1      -0.243   1.133  24.262  0.00  0.00    +0.365 C 
ATOM     21  O   UNL     1       0.133   0.770  23.623  0.00  0.00    -0.246 OA
ATOM     22  O   UNL     1       0.117   1.135  25.005  0.00  0.00    -0.246 OA
ENDBRANCH  19  20
ENDBRANCH  18  19
TORSDOF 8
ENDMDL
MODEL 4
REMARK VINA RESULT:      -7.1      2.923      4.158
REMARK  Name = 
REMARK  8 active torsions:
REMARK  status: ('A' for Active; 'I' for Inactive)
REMARK    1  A    between atoms: O_2  and  C_3
REMARK    2  A    between atoms: C_8  and  O_9
REMARK    3  A    between atoms: C_11  and  C_12
REMARK    4  A    between atoms: C_12  and  C_13
REMARK    5  A    between atoms: C_18  and  C_19
REMARK    6  A    between atoms: C_19  and  C_20
REMARK    7  A    between atoms: C_23  and  C_25
REMARK    8  A    between atoms: C_28  and  C_31
REMARK                            x       y       z     vdW  Elec       q    Type
REMARK                         _______ _______ _______ _____ _____    ______ ____
ROOT
ATOM     13  C   UNL     1      -2.296   1.023  24.714  0.00  0.00    +0.026 C 
ATOM     14  C   UNL     1      -1.746   1.390  24.222  0.00  0.00    +0.094 C 
ATOM     15  N   UNL     1      -1.028   1.018  24.055  0.00  0.00    -0.276 N 
ATOM     16  C   UNL     1      -0.862   0.279  24.381  0.00  0.00    +0.094 C 
ATOM     17  C   UNL     1      -1.411  -0.088  24.874  0.00  0.00    +0.022 C 
ATOM     18  C   UNL     1      -2.128   0.283  25.041  0.00  0.00    +0.015 C 
ATOM     23  C   UNL     1      -0.478   1.386  23.562  0.00  0.00    +0.249 C 
ATOM     24  O   UNL     1      -0.646   2.125  23.236  0.00  0.00    -0.270 OA
ENDROOT
BRANCH  23  25
ATOM     25  C   UNL     1       0.239   1.014  23.396  0.00  0.00    +0.054 A 
ATOM     26  C   UNL     1       0.933   1.277  23.757  0.00  0.00    +0.005 A 
ATOM     27  C   UNL     1       1.651   0.905  23.590  0.00  0.00    +0.010 A 
ATOM     28  C   UNL     1       1.674   0.271  23.062  0.00  0.00    +0.068 A 
ATOM     29  C   UNL     1       0.980   0.009  22.701  0.00  0.00    +0.010 A 
ATOM     30  C   UNL     1       0.263   0.381  22.868  0.00  0.00    +0.005 A 
BRANCH  28  31
ATOM     31  C   UNL     1       2.392  -0.100  22.896  0.00  0.00    +0.100 C 
ATOM     32  N   UNL     1       3.109  -0.472  22.730  0.00  0.00    -0.191 NA
ENDBRANCH  28  31
ENDBRANCH  23  25
BRANCH  13  12
ATOM     12  C   UNL     1      -3.013   1.394  24.882  0.00  0.00    +0.047 C 
BRANCH  12  11
ATOM      3  C   UNL     1      -5.157   3.394  25.386  0.00  0.00    +0.172 A 
ATOM      4  C   UNL     1      -4.452   3.747  25.630  0.00  0.00    +0.036 A 
ATOM      5  C   UNL     1      -3.740   3.336  25.565  0.00  0.00    -0.016 A 
ATOM      6  C   UNL     1      -3.732   2.570  25.255  0.00  0.00    +0.012 A 
ATOM      7  C   UNL     1      -4.437   2.217  25.012  0.00  0.00    +0.041 A 
ATOM      8  C   UNL     1      -5.150   2.628  25.077  0.00  0.00    +0.172 A 
ATOM     11  C   UNL     1      -3.021   2.159  25.190  0.00  0.00    +0.054 C 
ATOM     33  N   UNL     1      -2.317   2.512  25.434  0.00  0.00    -0.274 NA
ATOM     34  C   UNL     1      -2.324   3.278  25.743  0.00  0.00    +0.130 C 
ATOM     35  C   UNL     1      -3.036   3.689  25.808  0.00  0.00    +0.053 C 
BRANCH   3   2
ATOM      1  C   UNL     1      -5.865   4.626  25.530  0.00  0.00    +0.253 C 
ATOM      2  O   UNL     1      -5.869   3.805  25.451  0.00  0.00    -0.468 OA
ENDBRANCH   3   2
BRANCH   8   9
ATOM      9  O   UNL     1      -5.854   2.275  24.834  0.00  0.00    -0.468 OA
ATOM     10  C   UNL     1      -6.020   1.497  25.047  0.00  0.00    +0.253 C 
ENDBRANCH   8   9
ENDBRANCH  12  11
ENDBRANCH  13  12
BRANCH  18  19
ATOM     19  C   UNL     1      -2.678  -0.085  25.534  0.00  0.00    +0.114 C 
BRANCH  19  20
ATOM     20  C   UNL     1      -2.603  -0.886  25.710  0.00  0.00    +0.365 C 
ATOM     21  O   UNL     1      -2.140  -1.127  26.349  0.00  0.00    -0.246 OA
ATOM     22  O   UNL     1      -2.990  -1.449  25.246  0.00  0.00    -0.246 OA
ENDBRANCH  19  20
ENDBRANCH  18  19
TORSDOF 8
ENDMDL
MODEL 5
REMARK VINA RESULT:      -7.0      3.328      5.166
REMARK  Name = 
REMARK  8 active torsions:
REMARK  status: ('A' for Active; 'I' for Inactive)
REMARK    1  A    between atoms: O_2  and  C_3
REMARK    2  A    between atoms: C_8  and  O_9
REMARK    3  A    between atoms: C_11  and  C_12
REMARK    4  A    between atoms: C_12  and  C_13
REMARK    5  A    between atoms: C_18  and  C_19
REMARK    6  A    between atoms: C_19  and  C_20
REMARK    7  A    between atoms: C_23  and  C_25
REMARK    8  A    between atoms: C_28  and  C_31
REMARK                            x       y       z     vdW  Elec       q    Type
REMARK                         _______ _______ _______ _____ _____    ______ ____
ROOT
ATOM     13  C   UNL     1      -1.480   0.620  24.210  0.00  0.00    +0.026 C 
ATOM     14  C   UNL     1      -1.794   1.363  24.042  0.00  0.00    +0.094 C 
ATOM     15  N   UNL     1      -2.514   1.592  24.376  0.00  0.00    -0.276 N 
ATOM     16  C   UNL     1      -2.917   1.077  24.879  0.00  0.00    +0.094 C 
ATOM     17  C   UNL     1      -2.603   0.334  25.047  0.00  0.00    +0.022 C 
ATOM     18  C   UNL     1      -1.884   0.105  24.713  0.00  0.00    +0.015 C 
ATOM     23  C   UNL     1      -2.828   2.336  24.208  0.00  0.00    +0.249 C 
ATOM     24  O   UNL     1      -2.424   2.850  23.705  0.00  0.00    -0.270 OA
ENDROOT
BRANCH  23  25
ATOM     25  C   UNL     1      -3.546   2.565  24.542  0.00  0.00    +0.054 A 
ATOM     26  C   UNL     1      -3.555   3.040  25.217  0.00  0.00    +0.005 A 
ATOM     27  C   UNL     1      -4.274   3.269  25.552  0.00  0.00    +0.010 A 
ATOM     28  C   UNL     1      -4.983   3.023  25.211  0.00  0.00    +0.068 A 
ATOM     29  C   UNL     1      -4.975   2.548  24.536  0.00  0.00    +0.010 A 
ATOM     30  C   UNL     1      -4.257   2.319  24.202  0.00  0.00    +0.005 A 
BRANCH  28  31
ATOM     31  C   UNL     1      -5.703   3.252  25.546  0.00  0.00    +0.100 C 
ATOM     32  N   UNL     1      -6.421   3.482  25.880  0.00  0.00    -0.191 NA
ENDBRANCH  28  31
ENDBRANCH  23  25
BRANCH  13  12
ATOM     12  C   UNL     1      -0.762   0.390  23.876  0.00  0.00    +0.047 C 
BRANCH  12  11
ATOM      3  C   UNL     1       1.984   0.363  22.730  0.00  0.00    +0.172 A 
ATOM      4  C   UNL     1       1.973   0.973  23.286  0.00  0.00    +0.036 A 
ATOM      5  C   UNL     1       1.285   1.132  23.712  0.00  0.00    -0.016 A 
ATOM      6  C   UNL     1       0.605   0.681  23.582  0.00  0.00    +0.012 A 
ATOM      7  C   UNL     1       0.616   0.072  23.025  0.00  0.00    +0.041 A 
ATOM      8  C   UNL     1       1.304  -0.088  22.599  0.00  0.00    +0.172 A 
ATOM     11  C   UNL     1      -0.083   0.840  24.007  0.00  0.00    +0.054 C 
ATOM     33  N   UNL     1      -0.093   1.449  24.563  0.00  0.00    -0.274 NA
ATOM     34  C   UNL     1       0.587   1.900  24.693  0.00  0.00    +0.130 C 
ATOM     35  C   UNL     1       1.275   1.741  24.268  0.00  0.00    +0.053 C 
BRANCH   3   2
ATOM      1  C   UNL     1       3.398   0.488  22.573  0.00  0.00    +0.253 C 
ATOM      2  O   UNL     1       2.672   0.204  22.304  0.00  0.00    -0.468 OA
ENDBRANCH   3   2
BRANCH   8   9
ATOM      9  O   UNL     1       1.314  -0.696  22.043  0.00  0.00    -0.468 OA
ATOM     10  C   UNL     1       0.856  -0.639  21.360  0.00  0.00    +0.253 C 
ENDBRANCH   8   9
ENDBRANCH  12  11
ENDBRANCH  13  12
BRANCH  18  19
ATOM     19  C   UNL     1      -1.570  -0.639  24.882  0.00  0.00    +0.114 C 
BRANCH  19  20
ATOM     20  C   UNL     1      -2.021  -1.194  25.291  0.00  0.00    +0.365 C 
ATOM     21  O   UNL     1      -2.033  -1.190  26.116  0.00  0.00    -0.246 OA
ATOM     22  O   UNL     1      -2.462  -1.756  24.874  0.00  0.00    -0.246 OA
ENDBRANCH  19  20
ENDBRANCH  18  19
TORSDOF 8
ENDMDL
MODEL 6
REMARK VINA RESULT:      -6.8      2.136      3.628
REMARK  Name = 
REMARK  8 active torsions:
REMARK  status: ('A' for Active; 'I' for Inactive)
REMARK    1  A    between atoms: O_2  and  C_3
REMARK    2  A    between atoms: C_8  and  O_9
REMARK    3  A    between atoms: C_11  and  C_12
REMARK    4  A    between atoms: C_12  and  C_13
REMARK    5  A    between atoms: C_18  and  C_19
REMARK    6  A    between atoms: C_19  and  C_20
REMARK    7  A    between atoms: C_23  and  C_25
REMARK    8  A    between atoms: C_28  and  C_31
REMARK                            x       y       z     vdW  Elec       q    Type
REMARK                         _______ _______ _______ _____ _____    ______ ____
ROOT
ATOM     13  C   UNL     1      -1.015   0.974  24.226  0.00  0.00    +0.026 C 
ATOM     14  C   UNL     1      -1.758   0.763  24.514  0.00  0.00    +0.094 C 
ATOM     15  N   UNL     1      -2.022  -0.016  24.444  0.00  0.00    -0.276 N 
ATOM     16  C   UNL     1      -1.542  -0.583  24.087  0.00  0.00    +0.094 C 
ATOM     17  C   UNL     1      -0.799  -0.373  23.799  0.00  0.00    +0.022 C 
ATOM     18  C   UNL     1      -0.535   0.406  23.868  0.00  0.00    +0.015 C 
ATOM     23  C   UNL     1      -2.766  -0.226  24.733  0.00  0.00    +0.249 C 
ATOM     24  O   UNL     1      -3.245   0.342  25.090  0.00  0.00    -0.270 OA
ENDROOT
BRANCH  23  25
ATOM     25  C   UNL     1      -3.029  -1.004  24.663  0.00  0.00    +0.054 A 
ATOM     26  C   UNL     1      -3.536  -1.215  24.047  0.00  0.00    +0.005 A 
ATOM     27  C   UNL     1      -3.800  -1.994  23.977  0.00  0.00    +0.010 A 
ATOM     28  C   UNL     1      -3.557  -2.562  24.524  0.00  0.00    +0.068 A 
ATOM     29  C   UNL     1      -3.050  -2.351  25.140  0.00  0.00    +0.010 A 
ATOM     30  C   UNL     1      -2.787  -1.573  25.209  0.00  0.00    +0.005 A 
BRANCH  28  31
ATOM     31  C   UNL     1      -3.821  -3.341  24.454  0.00  0.00    +0.100 C 
ATOM     32  N   UNL     1      -4.085  -4.119  24.384  0.00  0.00    -0.191 NA
ENDBRANCH  28  31
ENDBRANCH  23  25
BRANCH  13  12
ATOM     12  C   UNL     1      -0.750   1.752  24.295  0.00  0.00    +0.047 C 
BRANCH  12  11
ATOM      3  C   UNL     1      -2.093   4.129  25.479  0.00  0.00    +0.172 A 
ATOM      4  C   UNL     1      -1.609   3.820  26.071  0.00  0.00    +0.036 A 
ATOM      5  C   UNL     1      -1.152   3.149  25.924  0.00  0.00    -0.016 A 
ATOM      6  C   UNL     1      -1.179   2.785  25.183  0.00  0.00    +0.012 A 
ATOM      7  C   UNL     1      -1.664   3.094  24.590  0.00  0.00    +0.041 A 
ATOM      8  C   UNL     1      -2.121   3.765  24.737  0.00  0.00    +0.172 A 
ATOM     11  C   UNL     1      -0.723   2.115  25.035  0.00  0.00    +0.054 C 
ATOM     33  N   UNL     1      -0.240   1.807  25.628  0.00  0.00    -0.274 NA
ATOM     34  C   UNL     1      -0.212   2.170  26.369  0.00  0.00    +0.130 C 
ATOM     35  C   UNL     1      -0.669   2.840  26.516  0.00  0.00    +0.053 C 
BRANCH   3   2
ATOM      1  C   UNL     1      -2.936   4.885  26.349  0.00  0.00    +0.253 C 
ATOM      2  O   UNL     1      -2.550   4.799  25.626  0.00  0.00    -0.468 OA
ENDBRANCH   3   2
BRANCH   8   9
ATOM      9  O   UNL     1      -2.604   4.074  24.145  0.00  0.00    -0.468 OA
ATOM     10  C   UNL     1      -3.231   3.627  23.850  0.00  0.00    +0.253 C 
ENDBRANCH   8   9
ENDBRANCH  12  11
ENDBRANCH  13  12
BRANCH  18  19
ATOM     19  C   UNL     1       0.209   0.616  23.579  0.00  0.00    +0.114 C 
BRANCH  19  20
ATOM     20  C   UNL     1       0.666   0.063  23.174  0.00  0.00    +0.365 C 
ATOM     21  O   UNL     1       0.627   0.018  22.351  0.00  0.00    -0.246 OA
ATOM     22  O   UNL     1       1.162  -0.449  23.591  0.00  0.00    -0.246 OA
ENDBRANCH  19  20
ENDBRANCH  18  19
TORSDOF 8
ENDMDL
MODEL 7
REMARK VINA RESULT:      -6.8      3.677      5.573
REMARK  Name = 
REMARK  8 active torsions:
REMARK  status: ('A' for Active; 'I' for Inactive)
REMARK    1  A    between atoms: O_2  and  C_3
REMARK    2  A    between atoms: C_8  and  O_9
REMARK    3  A    between atoms: C_11  and  C_12
REMARK    4  A    between atoms: C_12  and  C_13
REMARK    5  A    between atoms: C_18  and  C_19
REMARK    6  A    between atoms: C_19  and  C_20
REMARK    7  A    between atoms: C_23  and  C_25
REMARK    8  A    between atoms: C_28  and  C_31
REMARK                            x       y       z     vdW  Elec       q    Type
REMARK                         _______ _______ _______ _____ _____    ______ ____
ROOT
ATOM     13  C   UNL     1      -0.922   1.014  24.797  0.00  0.00    +0.026 C 
ATOM     14  C   UNL     1      -0.573   0.533  24.226  0.00  0.00    +0.094 C 
ATOM     15  N   UNL     1       0.219   0.644  24.020  0.00  0.00    -0.276 N 
ATOM     16  C   UNL     1       0.660   1.237  24.387  0.00  0.00    +0.094 C 
ATOM     17  C   UNL     1       0.312   1.717  24.958  0.00  0.00    +0.022 C 
ATOM     18  C   UNL     1      -0.479   1.607  25.164  0.00  0.00    +0.015 C 
ATOM     23  C   UNL     1       0.568   0.163  23.448  0.00  0.00    +0.249 C 
ATOM     24  O   UNL     1       0.125  -0.429  23.082  0.00  0.00    -0.270 OA
ENDROOT
BRANCH  23  25
ATOM     25  C   UNL     1       1.358   0.274  23.243  0.00  0.00    +0.054 A 
ATOM     26  C   UNL     1       1.891  -0.354  23.299  0.00  0.00    +0.005 A 
ATOM     27  C   UNL     1       2.683  -0.243  23.093  0.00  0.00    +0.010 A 
ATOM     28  C   UNL     1       2.941   0.496  22.833  0.00  0.00    +0.068 A 
ATOM     29  C   UNL     1       2.409   1.124  22.777  0.00  0.00    +0.010 A 
ATOM     30  C   UNL     1       1.618   1.013  22.982  0.00  0.00    +0.005 A 
BRANCH  28  31
ATOM     31  C   UNL     1       3.733   0.607  22.627  0.00  0.00    +0.100 C 
ATOM     32  N   UNL     1       4.524   0.718  22.422  0.00  0.00    -0.191 NA
ENDBRANCH  28  31
ENDBRANCH  23  25
BRANCH  13  12
ATOM     12  C   UNL     1      -1.713   0.904  25.003  0.00  0.00    +0.047 C 
BRANCH  12  11
ATOM      3  C   UNL     1      -3.904  -1.011  24.381  0.00  0.00    +0.172 A 
ATOM      4  C   UNL     1      -3.944  -0.421  23.805  0.00  0.00    +0.036 A 
ATOM      5  C   UNL     1      -3.407   0.206  23.816  0.00  0.00    -0.016 A 
ATOM      6  C   UNL     1      -2.828   0.242  24.404  0.00  0.00    +0.012 A 
ATOM      7  C   UNL     1      -2.788  -0.348  24.980  0.00  0.00    +0.041 A 
ATOM      8  C   UNL     1      -3.325  -0.975  24.968  0.00  0.00    +0.172 A 
ATOM     11  C   UNL     1      -2.291   0.867  24.416  0.00  0.00    +0.054 C 
ATOM     33  N   UNL     1      -2.332   1.457  23.841  0.00  0.00    -0.274 NA
ATOM     34  C   UNL     1      -2.912   1.421  23.253  0.00  0.00    +0.130 C 
ATOM     35  C   UNL     1      -3.448   0.795  23.242  0.00  0.00    +0.053 C 
BRANCH   3   2
ATOM      1  C   UNL     1      -4.510  -2.108  23.696  0.00  0.00    +0.253 C 
ATOM      2  O   UNL     1      -4.441  -1.636  24.369  0.00  0.00    -0.468 OA
ENDBRANCH   3   2
BRANCH   8   9
ATOM      9  O   UNL     1      -3.284  -1.564  25.543  0.00  0.00    -0.468 OA
ATOM     10  C   UNL     1      -3.234  -1.360  26.340  0.00  0.00    +0.253 C 
ENDBRANCH   8   9
ENDBRANCH  12  11
ENDBRANCH  13  12
BRANCH  18  19
ATOM     19  C   UNL     1      -0.829   2.088  25.736  0.00  0.00    +0.114 C 
BRANCH  19  20
ATOM     20  C   UNL     1      -0.384   2.674  26.108  0.00  0.00    +0.365 C 
ATOM     21  O   UNL     1       0.059   2.493  26.780  0.00  0.00    -0.246 OA
ATOM     22  O   UNL     1      -0.383   3.444  25.808  0.00  0.00    -0.246 OA
ENDBRANCH  19  20
ENDBRANCH  18  19
TORSDOF 8
ENDMDL
MODEL 8
REMARK VINA RESULT:      -6.7      3.399      4.935
REMARK  Name = 
REMARK  8 active torsions:
REMARK  status: ('A' for Active; 'I' for Inactive)
REMARK    1  A    between atoms: O_2  and  C_3
REMARK    2  A    between atoms: C_8  and  O_9
REMARK    3  A    between atoms: C_11  and  C_12
REMARK    4  A    between atoms: C_12  and  C_13
REMARK    5  A    between atoms: C_18  and  C_19
REMARK    6  A    between atoms: C_19  and  C_20
REMARK    7  A    between atoms: C_23  and  C_25
REMARK    8  A    between atoms: C_28  and  C_31
REMARK                            x       y       z     vdW  Elec       q    Type
REMARK                         _______ _______ _______ _____ _____    ______ ____
ROOT
ATOM     13  C   UNL     1      -1.228   1.690  24.793  0.00  0.00    +0.026 C 
ATOM     14  C   UNL     1      -1.012   1.273  24.116  0.00  0.00    +0.094 C 
ATOM     15  N   UNL     1      -0.217   1.101  23.973  0.00  0.00    -0.276 N 
ATOM     16  C   UNL     1       0.360   1.346  24.508  0.00  0.00    +0.094 C 
ATOM     17  C   UNL     1       0.144   1.762  25.186  0.00  0.00    +0.022 C 
ATOM     18  C   UNL     1      -0.649   1.935  25.329  0.00  0.00    +0.015 C 
ATOM     23  C   UNL     1      -0.001   0.684  23.295  0.00  0.00    +0.249 C 
ATOM     24  O   UNL     1      -0.580   0.439  22.759  0.00  0.00    -0.270 OA
ENDROOT
BRANCH  23  25
ATOM     25  C   UNL     1       0.792   0.512  23.152  0.00  0.00    +0.054 A 
ATOM     26  C   UNL     1       1.340   1.124  23.075  0.00  0.00    +0.005 A 
ATOM     27  C   UNL     1       2.135   0.952  22.933  0.00  0.00    +0.010 A 
ATOM     28  C   UNL     1       2.381   0.168  22.867  0.00  0.00    +0.068 A 
ATOM     29  C   UNL     1       1.833  -0.445  22.943  0.00  0.00    +0.010 A 
ATOM     30  C   UNL     1       1.040  -0.273  23.086  0.00  0.00    +0.005 A 
BRANCH  28  31
ATOM     31  C   UNL     1       3.176  -0.004  22.724  0.00  0.00    +0.100 C 
ATOM     32  N   UNL     1       3.969  -0.175  22.582  0.00  0.00    -0.191 NA
ENDBRANCH  28  31
ENDBRANCH  23  25
BRANCH  13  12
ATOM     12  C   UNL     1      -2.022   1.862  24.937  0.00  0.00    +0.047 C 
BRANCH  12  11
ATOM      3  C   UNL     1      -4.986   1.771  24.703  0.00  0.00    +0.172 A 
ATOM      4  C   UNL     1      -4.740   0.991  24.813  0.00  0.00    +0.036 A 
ATOM      5  C   UNL     1      -3.938   0.818  24.898  0.00  0.00    -0.016 A 
ATOM      6  C   UNL     1      -3.380   1.426  24.875  0.00  0.00    +0.012 A 
ATOM      7  C   UNL     1      -3.626   2.207  24.765  0.00  0.00    +0.041 A 
ATOM      8  C   UNL     1      -4.429   2.379  24.679  0.00  0.00    +0.172 A 
ATOM     11  C   UNL     1      -2.579   1.254  24.960  0.00  0.00    +0.054 C 
ATOM     33  N   UNL     1      -2.334   0.475  25.070  0.00  0.00    -0.274 NA
ATOM     34  C   UNL     1      -2.891  -0.134  25.093  0.00  0.00    +0.130 C 
ATOM     35  C   UNL     1      -3.693   0.038  25.008  0.00  0.00    +0.053 C 
BRANCH   3   2
ATOM      1  C   UNL     1      -6.352   1.491  25.015  0.00  0.00    +0.253 C 
ATOM      2  O   UNL     1      -5.788   1.943  24.617  0.00  0.00    -0.468 OA
ENDBRANCH   3   2
BRANCH   8   9
ATOM      9  O   UNL     1      -4.674   3.159  24.570  0.00  0.00    -0.468 OA
ATOM     10  C   UNL     1      -4.115   3.757  24.472  0.00  0.00    +0.253 C 
ENDBRANCH   8   9
ENDBRANCH  12  11
ENDBRANCH  13  12
BRANCH  18  19
ATOM     19  C   UNL     1      -0.866   2.352  26.007  0.00  0.00    +0.114 C 
BRANCH  19  20
ATOM     20  C   UNL     1      -0.306   2.805  26.408  0.00  0.00    +0.365 C 
ATOM     21  O   UNL     1      -0.139   3.573  26.158  0.00  0.00    -0.246 OA
ATOM     22  O   UNL     1       0.089   2.490  27.062  0.00  0.00    -0.246 OA
ENDBRANCH  19  20
ENDBRANCH  18  19
TORSDOF 8
ENDMDL
