MODEL 1
REMARK VINA RESULT:     -12.2      0.000      0.000
REMARK  Name = 
REMARK  5 active torsions:
REMARK  status: ('A' for Active; 'I' for Inactive)
REMARK    1  A    between atoms: C_3  and  C_12
REMARK    2  A    between atoms: N_4  and  C_6
REMARK    3  A    between atoms: C_14  and  C_17
REMARK    4  A    between atoms: C_20  and  O_21
REMARK    5  A    between atoms: O_21  and  C_22
REMARK                            x       y       z     vdW  Elec       q    Type
REMARK                         _______ _______ _______ _____ _____    ______ ____
ROOT
ATOM     12  C   UNL     1      -2.462   3.135  24.421  0.00  0.00    +0.251 A 
ATOM     13  N   UNL     1      -2.810   2.463  24.748  0.00  0.00    -0.190 NA
ATOM     14  C   UNL     1      -3.071   1.983  24.131  0.00  0.00    +0.205 A 
ATOM     15  N   UNL     1      -2.884   2.359  23.420  0.00  0.00    -0.056 NA
ATOM     16  O   UNL     1      -2.508   3.071  23.599  0.00  0.00    -0.336 OA
ENDROOT
BRANCH  14  17
ATOM     17  C   UNL     1      -3.452   1.255  24.208  0.00  0.00    +0.058 A 
ATOM     18  C   UNL     1      -3.930   1.108  24.864  0.00  0.00    +0.010 A 
ATOM     19  C   UNL     1      -4.311   0.382  24.943  0.00  0.00    +0.058 A 
ATOM     20  C   UNL     1      -4.215  -0.199  24.365  0.00  0.00    +0.225 A 
ATOM     28  N   UNL     1      -3.737  -0.053  23.709  0.00  0.00    -0.210 NA
ATOM     29  C   UNL     1      -3.355   0.675  23.631  0.00  0.00    +0.105 A 
BRANCH  20  21
ATOM     21  O   UNL     1      -4.596  -0.927  24.444  0.00  0.00    -0.464 OA
BRANCH  21  22
ATOM     22  C   UNL     1      -4.153  -1.617  24.530  0.00  0.00    +0.168 C 
ATOM     23  C   UNL     1      -3.742  -1.759  25.232  0.00  0.00    +0.044 C 
ATOM     24  C   UNL     1      -3.300  -2.450  25.318  0.00  0.00    +0.004 C 
ATOM     25  C   UNL     1      -3.268  -2.999  24.703  0.00  0.00    +0.000 C 
ATOM     26  C   UNL     1      -3.679  -2.857  24.001  0.00  0.00    +0.004 C 
ATOM     27  C   UNL     1      -4.121  -2.166  23.915  0.00  0.00    +0.044 C 
ENDBRANCH  21  22
ENDBRANCH  20  21
ENDBRANCH  14  17
BRANCH  12   3
ATOM      1  C   UNL     1      -1.970   4.932  25.462  0.00  0.00    +0.019 C 
ATOM      2  C   UNL     1      -2.509   4.462  25.050  0.00  0.00    +0.027 C 
ATOM      3  C   UNL     1      -2.127   3.762  24.839  0.00  0.00    +0.138 C 
ATOM      4  N   UNL     1      -1.352   3.799  25.119  0.00  0.00    -0.268 NA
ATOM      5  C   UNL     1      -1.255   4.522  25.504  0.00  0.00    +0.072 C 
BRANCH   4   6
ATOM      6  C   UNL     1      -0.776   3.216  25.031  0.00  0.00    +0.063 C 
ATOM      7  C   UNL     1      -0.641   2.673  25.638  0.00  0.00    +0.048 C 
ATOM      8  C   UNL     1      -0.065   2.090  25.549  0.00  0.00    +0.144 C 
ATOM      9  O   UNL     1       0.377   2.050  24.853  0.00  0.00    -0.354 OA
ATOM     10  C   UNL     1       0.243   2.592  24.247  0.00  0.00    +0.144 C 
ATOM     11  C   UNL     1      -0.334   3.175  24.336  0.00  0.00    +0.048 C 
ENDBRANCH   4   6
ENDBRANCH  12   3
TORSDOF 5
ENDMDL
MODEL 2
REMARK VINA RESULT:     -11.8      1.612      2.447
REMARK  Name = 
REMARK  5 active torsions:
REMARK  status: ('A' for Active; 'I' for Inactive)
REMARK    1  A    between atoms: C_3  and  C_12
REMARK    2  A    between atoms: N_4  and  C_6
REMARK    3  A    between atoms: C_14  and  C_17
REMARK    4  A    between atoms: C_20  and  O_21
REMARK    5  A    between atoms: O_21  and  C_22
REMARK                            x       y       z     vdW  Elec       q    Type
REMARK                         _______ _______ _______ _____ _____    ______ ____
ROOT
ATOM     12  C   UNL     1      -1.054   3.045  25.410  0.00  0.00    +0.251 A 
ATOM     13  N   UNL     1      -1.254   2.394  24.944  0.00  0.00    -0.190 NA
ATOM     14  C   UNL     1      -1.150   1.714  25.397  0.00  0.00    +0.205 A 
ATOM     15  N   UNL     1      -0.884   1.943  26.144  0.00  0.00    -0.056 NA
ATOM     16  O   UNL     1      -0.825   2.766  26.152  0.00  0.00    -0.336 OA
ENDROOT
BRANCH  14  17
ATOM     17  C   UNL     1      -1.286   0.939  25.149  0.00  0.00    +0.058 A 
ATOM     18  C   UNL     1      -1.281   0.323  25.698  0.00  0.00    +0.010 A 
ATOM     19  C   UNL     1      -1.417  -0.452  25.452  0.00  0.00    +0.058 A 
ATOM     20  C   UNL     1      -1.559  -0.612  24.655  0.00  0.00    +0.225 A 
ATOM     28  N   UNL     1      -1.564   0.003  24.105  0.00  0.00    -0.210 NA
ATOM     29  C   UNL     1      -1.428   0.779  24.352  0.00  0.00    +0.105 A 
BRANCH  20  21
ATOM     21  O   UNL     1      -1.695  -1.387  24.407  0.00  0.00    -0.464 OA
BRANCH  21  22
ATOM     22  C   UNL     1      -2.453  -1.709  24.458  0.00  0.00    +0.168 C 
ATOM     23  C   UNL     1      -2.617  -2.292  25.019  0.00  0.00    +0.044 C 
ATOM     24  C   UNL     1      -3.375  -2.613  25.070  0.00  0.00    +0.004 C 
ATOM     25  C   UNL     1      -3.969  -2.353  24.560  0.00  0.00    +0.000 C 
ATOM     26  C   UNL     1      -3.805  -1.770  23.998  0.00  0.00    +0.004 C 
ATOM     27  C   UNL     1      -3.047  -1.448  23.948  0.00  0.00    +0.044 C 
ENDBRANCH  21  22
ENDBRANCH  20  21
ENDBRANCH  14  17
BRANCH  12   3
ATOM      1  C   UNL     1      -0.711   5.035  24.720  0.00  0.00    +0.019 C 
ATOM      2  C   UNL     1      -0.442   4.273  24.883  0.00  0.00    +0.027 C 
ATOM      3  C   UNL     1      -1.077   3.835  25.176  0.00  0.00    +0.138 C 
ATOM      4  N   UNL     1      -1.739   4.328  25.194  0.00  0.00    -0.268 NA
ATOM      5  C   UNL     1      -1.513   5.069  24.912  0.00  0.00    +0.072 C 
BRANCH   4   6
ATOM      6  C   UNL     1      -2.494   4.116  25.449  0.00  0.00    +0.063 C 
ATOM      7  C   UNL     1      -2.689   4.167  26.250  0.00  0.00    +0.048 C 
ATOM      8  C   UNL     1      -3.444   3.955  26.505  0.00  0.00    +0.144 C 
ATOM      9  O   UNL     1      -4.004   3.691  25.959  0.00  0.00    -0.354 OA
ATOM     10  C   UNL     1      -3.810   3.639  25.160  0.00  0.00    +0.144 C 
ATOM     11  C   UNL     1      -3.055   3.852  24.905  0.00  0.00    +0.048 C 
ENDBRANCH   4   6
ENDBRANCH  12   3
TORSDOF 5
ENDMDL
MODEL 3
REMARK VINA RESULT:     -10.8      1.575      4.991
REMARK  Name = 
REMARK  5 active torsions:
REMARK  status: ('A' for Active; 'I' for Inactive)
REMARK    1  A    between atoms: C_3  and  C_12
REMARK    2  A    between atoms: N_4  and  C_6
REMARK    3  A    between atoms: C_14  and  C_17
REMARK    4  A    between atoms: C_20  and  O_21
REMARK    5  A    between atoms: O_21  and  C_22
REMARK                            x       y       z     vdW  Elec       q    Type
REMARK                         _______ _______ _______ _____ _____    ______ ____
ROOT
ATOM     12  C   UNL     1      -3.486  -1.051  24.069  0.00  0.00    +0.251 A 
ATOM     13  N   UNL     1      -3.576  -0.341  24.479  0.00  0.00    -0.190 NA
ATOM     14  C   UNL     1      -3.614   0.270  23.928  0.00  0.00    +0.205 A 
ATOM     15  N   UNL     1      -3.548  -0.061  23.175  0.00  0.00    -0.056 NA
ATOM     16  O   UNL     1      -3.468  -0.878  23.262  0.00  0.00    -0.336 OA
ENDROOT
BRANCH  14  17
ATOM     17  C   UNL     1      -3.703   1.073  24.097  0.00  0.00    +0.058 A 
ATOM     18  C   UNL     1      -4.254   1.316  24.661  0.00  0.00    +0.010 A 
ATOM     19  C   UNL     1      -4.344   2.118  24.831  0.00  0.00    +0.058 A 
ATOM     20  C   UNL     1      -3.882   2.677  24.438  0.00  0.00    +0.225 A 
ATOM     28  N   UNL     1      -3.331   2.435  23.875  0.00  0.00    -0.210 NA
ATOM     29  C   UNL     1      -3.241   1.632  23.704  0.00  0.00    +0.105 A 
BRANCH  20  21
ATOM     21  O   UNL     1      -3.972   3.480  24.608  0.00  0.00    -0.464 OA
BRANCH  21  22
ATOM     22  C   UNL     1      -3.414   3.867  25.077  0.00  0.00    +0.168 C 
ATOM     23  C   UNL     1      -2.752   4.214  24.728  0.00  0.00    +0.044 C 
ATOM     24  C   UNL     1      -2.194   4.601  25.196  0.00  0.00    +0.004 C 
ATOM     25  C   UNL     1      -2.298   4.641  26.014  0.00  0.00    +0.000 C 
ATOM     26  C   UNL     1      -2.960   4.293  26.363  0.00  0.00    +0.004 C 
ATOM     27  C   UNL     1      -3.518   3.906  25.894  0.00  0.00    +0.044 C 
ENDBRANCH  21  22
ENDBRANCH  20  21
ENDBRANCH  14  17
BRANCH  12   3
ATOM      1  C   UNL     1      -3.726  -3.031  24.828  0.00  0.00    +0.019 C 
ATOM      2  C   UNL     1      -4.029  -2.361  24.453  0.00  0.00    +0.027 C 
ATOM      3  C   UNL     1      -3.424  -1.802  24.404  0.00  0.00    +0.138 C 
ATOM      4  N   UNL     1      -2.748  -2.126  24.749  0.00  0.00    -0.268 NA
ATOM      5  C   UNL     1      -2.935  -2.885  25.011  0.00  0.00    +0.072 C 
BRANCH   4   6
ATOM      6  C   UNL     1      -2.015  -1.755  24.819  0.00  0.00    +0.063 C 
ATOM      7  C   UNL     1      -1.834  -1.323  25.498  0.00  0.00    +0.048 C 
ATOM      8  C   UNL     1      -1.101  -0.952  25.569  0.00  0.00    +0.144 C 
ATOM      9  O   UNL     1      -0.548  -1.014  24.959  0.00  0.00    -0.354 OA
ATOM     10  C   UNL     1      -0.728  -1.445  24.280  0.00  0.00    +0.144 C 
ATOM     11  C   UNL     1      -1.462  -1.816  24.210  0.00  0.00    +0.048 C 
ENDBRANCH   4   6
ENDBRANCH  12   3
TORSDOF 5
ENDMDL
