REMARK  Name = 
REMARK  5 active torsions:
REMARK  status: ('A' for Active; 'I' for Inactive)
REMARK    1  A    between atoms: C_7  and  C_8
REMARK    2  A    between atoms: C_14  and  N_15
REMARK    3  A    between atoms: C_16  and  C_18
REMARK    4  A    between atoms: C_23  and  O_24
REMARK    5  A    between atoms: O_24  and  C_25
REMARK                            x       y       z     vdW  Elec       q    Type
REMARK                         _______ _______ _______ _____ _____    ______ ____
ROOT
ATOM     15  N   UNL     1       0.130  -2.767   0.000  0.00  0.00    -0.200 NA
ATOM     16  C   UNL     1       0.743  -3.319   0.000  0.00  0.00    +0.269 C 
ATOM     17  O   UNL     1       0.571  -4.126   0.000  0.00  0.00    -0.268 OA
ENDROOT
BRANCH  15  14
ATOM      8  C   UNL     1      -1.322  -2.537   0.000  0.00  0.00    +0.047 C 
ATOM      9  C   UNL     1      -1.990  -3.022   0.000  0.00  0.00    +0.042 C 
ATOM     10  C   UNL     1      -1.735  -3.806   0.000  0.00  0.00    +0.184 C 
ATOM     11  O   UNL     1      -2.220  -4.474   0.000  0.00  0.00    -0.220 OA
ATOM     12  C   UNL     1      -0.910  -3.806   0.000  0.00  0.00    +0.202 C 
ATOM     13  O   UNL     1      -0.425  -4.474   0.000  0.00  0.00    -0.219 OA
ATOM     14  C   UNL     1      -0.655  -3.022   0.000  0.00  0.00    +0.132 C 
BRANCH   8   7
ATOM      1  C   UNL     1      -2.751  -1.712   0.000  0.00  0.00    +0.031 C 
ATOM      2  C   UNL     1      -2.037  -1.299   0.000  0.00  0.00    -0.026 A 
ATOM      3  C   UNL     1      -2.037  -0.474   0.000  0.00  0.00    -0.005 A 
ATOM      4  C   UNL     1      -1.322  -0.062   0.000  0.00  0.00    -0.000 A 
ATOM      5  C   UNL     1      -0.608  -0.474   0.000  0.00  0.00    -0.000 A 
ATOM      6  C   UNL     1      -0.608  -1.299   0.000  0.00  0.00    -0.005 A 
ATOM      7  C   UNL     1      -1.322  -1.712   0.000  0.00  0.00    -0.025 A 
ENDBRANCH   8   7
ENDBRANCH  15  14
BRANCH  16  18
ATOM     18  C   UNL     1       1.528  -3.064   0.000  0.00  0.00    +0.108 A 
ATOM     19  C   UNL     1       2.141  -3.616   0.000  0.00  0.00    +0.011 A 
ATOM     20  C   UNL     1       2.925  -3.361   0.000  0.00  0.00    +0.021 A 
ATOM     21  C   UNL     1       3.097  -2.554   0.000  0.00  0.00    +0.102 A 
ATOM     22  N   UNL     1       2.484  -2.002   0.000  0.00  0.00    -0.210 NA
ATOM     23  C   UNL     1       1.699  -2.257   0.000  0.00  0.00    +0.234 A 
BRANCH  23  24
ATOM     24  O   UNL     1       1.086  -1.705   0.000  0.00  0.00    -0.436 OA
BRANCH  24  25
ATOM     25  C   UNL     1       1.258  -0.898   0.000  0.00  0.00    +0.147 A 
ATOM     26  C   UNL     1       0.644  -0.346   0.000  0.00  0.00    +0.038 A 
ATOM     27  C   UNL     1       0.816   0.461   0.000  0.00  0.00    +0.003 A 
ATOM     28  C   UNL     1       1.601   0.716   0.000  0.00  0.00    +0.000 A 
ATOM     29  C   UNL     1       2.214   0.164   0.000  0.00  0.00    +0.003 A 
ATOM     30  C   UNL     1       2.042  -0.643   0.000  0.00  0.00    +0.038 A 
ENDBRANCH  24  25
ENDBRANCH  23  24
ENDBRANCH  16  18
TORSDOF 5
