MODEL 1
REMARK VINA RESULT:     -10.6      0.000      0.000
REMARK  Name = 
REMARK  3 active torsions:
REMARK  status: ('A' for Active; 'I' for Inactive)
REMARK    1  A    between atoms: S_2  and  N_5
REMARK    2  A    between atoms: N_11  and  C_12
REMARK    3  A    between atoms: C_12  and  C_13
REMARK                            x       y       z     vdW  Elec       q    Type
REMARK                         _______ _______ _______ _____ _____    ______ ____
ROOT
ATOM      5  N   UNL     1      -2.067   2.560  24.539  0.00  0.00    -0.156 NA
ATOM      6  C   UNL     1      -2.752   2.989  24.375  0.00  0.00    +0.117 C 
ATOM      7  C   UNL     1      -3.490   2.625  24.427  0.00  0.00    +0.114 C 
ATOM      8  N   UNL     1      -3.544   1.830  24.643  0.00  0.00    -0.261 N 
ATOM      9  C   UNL     1      -2.859   1.400  24.807  0.00  0.00    +0.114 C 
ATOM     10  C   UNL     1      -3.081   0.632  25.005  0.00  0.00    +0.117 C 
ATOM     11  N   UNL     1      -3.904   0.585  24.963  0.00  0.00    -0.258 N 
ATOM     20  C   UNL     1      -4.189   1.326  24.739  0.00  0.00    +0.308 C 
ATOM     21  O   UNL     1      -4.982   1.528  24.630  0.00  0.00    -0.252 OA
ATOM     22  C   UNL     1      -2.120   1.766  24.755  0.00  0.00    +0.117 C 
ENDROOT
BRANCH   5   2
ATOM      1  C   UNL     1      -0.591   3.290  24.437  0.00  0.00    +0.196 C 
ATOM      2  S   UNL     1      -1.329   2.925  24.488  0.00  0.00    +0.046 S 
ATOM      3  O   UNL     1      -1.238   2.633  23.722  0.00  0.00    -0.157 OA
ATOM      4  O   UNL     1      -1.420   3.217  25.254  0.00  0.00    -0.157 OA
ENDBRANCH   5   2
BRANCH  11  12
ATOM     12  C   UNL     1      -4.361  -0.084  25.117  0.00  0.00    +0.122 C 
BRANCH  12  13
ATOM     13  C   UNL     1      -4.090  -0.830  24.892  0.00  0.00    -0.002 A 
ATOM     14  C   UNL     1      -3.669  -1.295  25.428  0.00  0.00    -0.000 A 
ATOM     15  C   UNL     1      -3.398  -2.041  25.202  0.00  0.00    +0.029 A 
ATOM     16  C   UNL     1      -3.548  -2.322  24.441  0.00  0.00    +0.140 A 
ATOM     17  F   UNL     1      -3.278  -3.068  24.215  0.00  0.00    -0.204 F 
ATOM     18  C   UNL     1      -3.969  -1.856  23.905  0.00  0.00    +0.029 A 
ATOM     19  C   UNL     1      -4.240  -1.110  24.130  0.00  0.00    -0.000 A 
ENDBRANCH  12  13
ENDBRANCH  11  12
TORSDOF 3
ENDMDL
MODEL 2
REMARK VINA RESULT:      -9.9      1.622      2.408
REMARK  Name = 
REMARK  3 active torsions:
REMARK  status: ('A' for Active; 'I' for Inactive)
REMARK    1  A    between atoms: S_2  and  N_5
REMARK    2  A    between atoms: N_11  and  C_12
REMARK    3  A    between atoms: C_12  and  C_13
REMARK                            x       y       z     vdW  Elec       q    Type
REMARK                         _______ _______ _______ _____ _____    ______ ____
ROOT
ATOM      5  N   UNL     1      -4.679   2.515  24.961  0.00  0.00    -0.156 NA
ATOM      6  C   UNL     1      -4.296   2.846  24.310  0.00  0.00    +0.117 C 
ATOM      7  C   UNL     1      -3.723   2.413  23.905  0.00  0.00    +0.114 C 
ATOM      8  N   UNL     1      -3.533   1.649  24.150  0.00  0.00    -0.261 N 
ATOM      9  C   UNL     1      -3.916   1.318  24.802  0.00  0.00    +0.114 C 
ATOM     10  C   UNL     1      -3.616   0.558  24.916  0.00  0.00    +0.117 C 
ATOM     11  N   UNL     1      -3.047   0.420  24.335  0.00  0.00    -0.258 N 
ATOM     20  C   UNL     1      -2.996   1.094  23.863  0.00  0.00    +0.308 C 
ATOM     21  O   UNL     1      -2.495   1.195  23.215  0.00  0.00    -0.252 OA
ATOM     22  C   UNL     1      -4.490   1.751  25.207  0.00  0.00    +0.117 C 
ENDROOT
BRANCH   5   2
ATOM      1  C   UNL     1      -5.827   3.381  25.771  0.00  0.00    +0.196 C 
ATOM      2  S   UNL     1      -5.253   2.949  25.366  0.00  0.00    +0.046 S 
ATOM      3  O   UNL     1      -4.662   3.416  25.702  0.00  0.00    -0.157 OA
ATOM      4  O   UNL     1      -5.844   2.480  25.030  0.00  0.00    -0.157 OA
ENDBRANCH   5   2
BRANCH  11  12
ATOM     12  C   UNL     1      -2.606  -0.272  24.243  0.00  0.00    +0.122 C 
BRANCH  12  13
ATOM     13  C   UNL     1      -2.931  -1.000  24.454  0.00  0.00    -0.002 A 
ATOM     14  C   UNL     1      -3.460  -1.379  23.947  0.00  0.00    -0.000 A 
ATOM     15  C   UNL     1      -3.784  -2.107  24.160  0.00  0.00    +0.029 A 
ATOM     16  C   UNL     1      -3.580  -2.456  24.878  0.00  0.00    +0.140 A 
ATOM     17  F   UNL     1      -3.905  -3.185  25.091  0.00  0.00    -0.204 F 
ATOM     18  C   UNL     1      -3.052  -2.077  25.386  0.00  0.00    +0.029 A 
ATOM     19  C   UNL     1      -2.727  -1.349  25.174  0.00  0.00    -0.000 A 
ENDBRANCH  12  13
ENDBRANCH  11  12
TORSDOF 3
ENDMDL
MODEL 3
REMARK VINA RESULT:      -9.8      2.472      3.676
REMARK  Name = 
REMARK  3 active torsions:
REMARK  status: ('A' for Active; 'I' for Inactive)
REMARK    1  A    between atoms: S_2  and  N_5
REMARK    2  A    between atoms: N_11  and  C_12
REMARK    3  A    between atoms: C_12  and  C_13
REMARK                            x       y       z     vdW  Elec       q    Type
REMARK                         _______ _______ _______ _____ _____    ______ ____
ROOT
ATOM      5  N   UNL     1      -1.293  -0.133  24.655  0.00  0.00    -0.156 NA
ATOM      6  C   UNL     1      -0.822   0.378  24.210  0.00  0.00    +0.117 C 
ATOM      7  C   UNL     1      -1.153   1.054  23.874  0.00  0.00    +0.114 C 
ATOM      8  N   UNL     1      -1.954   1.220  23.982  0.00  0.00    -0.261 N 
ATOM      9  C   UNL     1      -2.424   0.709  24.426  0.00  0.00    +0.114 C 
ATOM     10  C   UNL     1      -3.190   1.013  24.439  0.00  0.00    +0.117 C 
ATOM     11  N   UNL     1      -3.194   1.712  24.001  0.00  0.00    -0.258 N 
ATOM     20  C   UNL     1      -2.430   1.840  23.719  0.00  0.00    +0.308 C 
ATOM     21  O   UNL     1      -2.184   2.477  23.255  0.00  0.00    -0.252 OA
ATOM     22  C   UNL     1      -2.094   0.032  24.763  0.00  0.00    +0.117 C 
ENDROOT
BRANCH   5   2
ATOM      1  C   UNL     1      -0.632  -1.487  25.328  0.00  0.00    +0.196 C 
ATOM      2  S   UNL     1      -0.962  -0.811  24.992  0.00  0.00    +0.046 S 
ATOM      3  O   UNL     1      -0.975  -0.448  25.733  0.00  0.00    -0.157 OA
ATOM      4  O   UNL     1      -0.950  -1.173  24.251  0.00  0.00    -0.157 OA
ENDBRANCH   5   2
BRANCH  11  12
ATOM     12  C   UNL     1      -3.847   2.199  23.869  0.00  0.00    +0.122 C 
BRANCH  12  13
ATOM     13  C   UNL     1      -4.364   2.373  24.488  0.00  0.00    -0.002 A 
ATOM     14  C   UNL     1      -4.212   3.014  24.985  0.00  0.00    -0.000 A 
ATOM     15  C   UNL     1      -4.729   3.188  25.604  0.00  0.00    +0.029 A 
ATOM     16  C   UNL     1      -5.398   2.722  25.726  0.00  0.00    +0.140 A 
ATOM     17  F   UNL     1      -5.916   2.896  26.345  0.00  0.00    -0.204 F 
ATOM     18  C   UNL     1      -5.550   2.081  25.229  0.00  0.00    +0.029 A 
ATOM     19  C   UNL     1      -5.034   1.906  24.610  0.00  0.00    -0.000 A 
ENDBRANCH  12  13
ENDBRANCH  11  12
TORSDOF 3
ENDMDL
