MODEL 1
REMARK VINA RESULT:     -15.7      0.000      0.000
REMARK  Name = 
REMARK  3 active torsions:
REMARK  status: ('A' for Active; 'I' for Inactive)
REMARK    1  A    between atoms: O_2  and  C_3
REMARK    2  A    between atoms: C_6  and  C_9
REMARK    3  A    between atoms: C_20  and  C_25
REMARK                            x       y       z     vdW  Elec       q    Type
REMARK                         _______ _______ _______ _____ _____    ______ ____
ROOT
ATOM      9  C   UNL     1      -5.054   1.142  24.840  0.00  0.00    +0.249 C 
ATOM     10  O   UNL     1      -5.861   1.468  24.975  0.00  0.00    -0.270 OA
ATOM     11  N   UNL     1      -4.604   1.826  24.730  0.00  0.00    -0.276 N 
ATOM     12  C   UNL     1      -4.566   2.660  24.689  0.00  0.00    +0.096 C 
ATOM     13  C   UNL     1      -3.601   2.773  24.507  0.00  0.00    +0.043 C 
ATOM     14  C   UNL     1      -2.843   3.032  24.358  0.00  0.00    +0.011 C 
ATOM     15  C   UNL     1      -3.175   2.419  24.444  0.00  0.00    +0.058 C 
ATOM     16  C   UNL     1      -4.109   2.326  24.619  0.00  0.00    +0.099 C 
ATOM     17  C   UNL     1      -3.023   1.513  24.453  0.00  0.00    +0.041 A 
ATOM     18  C   UNL     1      -2.413   0.964  24.363  0.00  0.00    +0.013 A 
ATOM     19  C   UNL     1      -2.572   0.157  24.425  0.00  0.00    +0.006 A 
ATOM     20  C   UNL     1      -3.341  -0.101  24.577  0.00  0.00    +0.058 A 
ATOM     21  C   UNL     1      -3.951   0.447  24.666  0.00  0.00    +0.261 A 
ATOM     22  O   UNL     1      -4.967   0.452  24.852  0.00  0.00    -0.267 OA
ATOM     23  N   UNL     1      -3.792   1.254  24.604  0.00  0.00    -0.299 N 
ATOM     24  C   UNL     1      -3.452   1.824  24.519  0.00  0.00    +0.110 C 
ENDROOT
BRANCH   9   6
ATOM      3  C   UNL     1      -3.202  -1.128  24.608  0.00  0.00    +0.139 A 
ATOM      4  C   UNL     1      -3.586  -0.607  23.981  0.00  0.00    +0.037 A 
ATOM      5  C   UNL     1      -4.176   0.118  24.038  0.00  0.00    +0.008 A 
ATOM      6  C   UNL     1      -4.452   0.405  24.760  0.00  0.00    +0.054 A 
ATOM      7  C   UNL     1      -4.209   0.053  25.465  0.00  0.00    +0.008 A 
ATOM      8  C   UNL     1      -3.831  -0.420  25.526  0.00  0.00    +0.037 A 
BRANCH   3   2
ATOM      1  C   UNL     1      -1.654  -2.224  24.407  0.00  0.00    +0.252 C 
ATOM      2  O   UNL     1      -2.544  -1.933  24.510  0.00  0.00    -0.471 OA
ENDBRANCH   3   2
ENDBRANCH   9   6
BRANCH  20  25
ATOM     25  C   UNL     1      -3.499  -0.908  24.639  0.00  0.00    +0.024 A 
ATOM     26  C   UNL     1      -3.795  -1.321  23.988  0.00  0.00    +0.003 A 
ATOM     27  C   UNL     1      -3.954  -2.129  24.049  0.00  0.00    +0.021 A 
ATOM     28  C   UNL     1      -3.816  -2.523  24.761  0.00  0.00    +0.099 A 
ATOM     29  N   UNL     1      -3.521  -2.111  25.411  0.00  0.00    -0.242 NA
ATOM     30  C   UNL     1      -3.362  -1.303  25.350  0.00  0.00    +0.099 A 
ENDBRANCH  20  25
TORSDOF 3
ENDMDL
MODEL 2
REMARK VINA RESULT:     -15.3      1.006      3.731
REMARK  Name = 
REMARK  3 active torsions:
REMARK  status: ('A' for Active; 'I' for Inactive)
REMARK    1  A    between atoms: O_2  and  C_3
REMARK    2  A    between atoms: C_6  and  C_9
REMARK    3  A    between atoms: C_20  and  C_25
REMARK                            x       y       z     vdW  Elec       q    Type
REMARK                         _______ _______ _______ _____ _____    ______ ____
ROOT
ATOM      9  C   UNL     1      -1.723  -0.589  24.509  0.00  0.00    +0.249 C 
ATOM     10  O   UNL     1      -0.860  -0.768  24.497  0.00  0.00    -0.270 OA
ATOM     11  N   UNL     1      -2.059  -1.343  24.517  0.00  0.00    -0.276 N 
ATOM     12  C   UNL     1      -1.959  -2.172  24.518  0.00  0.00    +0.096 C 
ATOM     13  C   UNL     1      -2.906  -2.454  24.533  0.00  0.00    +0.043 C 
ATOM     14  C   UNL     1      -3.621  -2.844  24.545  0.00  0.00    +0.011 C 
ATOM     15  C   UNL     1      -3.391  -2.180  24.539  0.00  0.00    +0.058 C 
ATOM     16  C   UNL     1      -2.472  -1.924  24.525  0.00  0.00    +0.099 C 
ATOM     17  C   UNL     1      -3.694  -1.313  24.540  0.00  0.00    +0.041 A 
ATOM     18  C   UNL     1      -4.396  -0.879  24.548  0.00  0.00    +0.013 A 
ATOM     19  C   UNL     1      -4.371  -0.055  24.545  0.00  0.00    +0.006 A 
ATOM     20  C   UNL     1      -3.644   0.336  24.533  0.00  0.00    +0.058 A 
ATOM     21  C   UNL     1      -2.943  -0.097  24.525  0.00  0.00    +0.261 A 
ATOM     22  O   UNL     1      -1.924   0.077  24.509  0.00  0.00    -0.267 OA
ATOM     23  N   UNL     1      -2.968  -0.922  24.528  0.00  0.00    -0.299 N 
ATOM     24  C   UNL     1      -3.213  -1.545  24.534  0.00  0.00    +0.110 C 
ENDROOT
BRANCH   9   6
ATOM      3  C   UNL     1      -3.953   1.326  24.519  0.00  0.00    +0.139 A 
ATOM      4  C   UNL     1      -3.588   0.834  25.180  0.00  0.00    +0.037 A 
ATOM      5  C   UNL     1      -2.879   0.222  25.194  0.00  0.00    +0.008 A 
ATOM      6  C   UNL     1      -2.448   0.033  24.517  0.00  0.00    +0.054 A 
ATOM      7  C   UNL     1      -2.634   0.387  23.796  0.00  0.00    +0.008 A 
ATOM      8  C   UNL     1      -3.075   0.794  23.691  0.00  0.00    +0.037 A 
BRANCH   3   2
ATOM      1  C   UNL     1      -5.665   2.148  24.694  0.00  0.00    +0.252 C 
ATOM      2  O   UNL     1      -4.747   2.004  24.538  0.00  0.00    -0.471 OA
ENDBRANCH   3   2
ENDBRANCH   9   6
BRANCH  20  25
ATOM     25  C   UNL     1      -3.621   1.161  24.530  0.00  0.00    +0.024 A 
ATOM     26  C   UNL     1      -3.705   1.572  23.819  0.00  0.00    +0.003 A 
ATOM     27  C   UNL     1      -3.681   2.397  23.815  0.00  0.00    +0.021 A 
ATOM     28  C   UNL     1      -3.573   2.810  24.521  0.00  0.00    +0.099 A 
ATOM     29  N   UNL     1      -3.489   2.399  25.231  0.00  0.00    -0.242 NA
ATOM     30  C   UNL     1      -3.513   1.573  25.235  0.00  0.00    +0.099 A 
ENDBRANCH  20  25
TORSDOF 3
ENDMDL
