MODEL 1
REMARK VINA RESULT:     -11.4      0.000      0.000
REMARK  Name = 
REMARK  4 active torsions:
REMARK  status: ('A' for Active; 'I' for Inactive)
REMARK    1  A    between atoms: C_2  and  C_4
REMARK    2  A    between atoms: N_6  and  C_7
REMARK    3  A    between atoms: C_13  and  C_14
REMARK    4  A    between atoms: C_17  and  C_20
REMARK                            x       y       z     vdW  Elec       q    Type
REMARK                         _______ _______ _______ _____ _____    ______ ____
ROOT
ATOM      7  C   UNL     1      -4.211   1.302  24.397  0.00  0.00    +0.132 C 
ATOM      8  C   UNL     1      -4.667   1.958  24.597  0.00  0.00    +0.202 C 
ATOM      9  O   UNL     1      -4.586   2.720  24.290  0.00  0.00    -0.219 OA
ATOM     10  C   UNL     1      -5.222   1.720  25.160  0.00  0.00    +0.184 C 
ATOM     11  O   UNL     1      -5.791   2.201  25.515  0.00  0.00    -0.220 OA
ATOM     12  C   UNL     1      -5.108   0.916  25.307  0.00  0.00    +0.042 C 
ATOM     13  C   UNL     1      -4.482   0.657  24.834  0.00  0.00    +0.049 C 
ENDROOT
BRANCH  13  14
ATOM     14  C   UNL     1      -4.182  -0.111  24.806  0.00  0.00    -0.002 A 
ATOM     15  C   UNL     1      -3.669  -0.376  25.394  0.00  0.00    +0.095 A 
ATOM     16  N   UNL     1      -3.369  -1.143  25.365  0.00  0.00    -0.240 NA
ATOM     17  C   UNL     1      -3.584  -1.647  24.748  0.00  0.00    +0.153 A 
ATOM     18  C   UNL     1      -4.098  -1.382  24.160  0.00  0.00    +0.023 A 
ATOM     19  C   UNL     1      -4.398  -0.614  24.188  0.00  0.00    -0.001 A 
BRANCH  17  20
ATOM     20  C   UNL     1      -3.285  -2.415  24.719  0.00  0.00    +0.435 C 
ATOM     21  F   UNL     1      -2.985  -3.183  24.689  0.00  0.00    -0.164 F 
ATOM     22  F   UNL     1      -3.802  -2.641  25.320  0.00  0.00    -0.164 F 
ATOM     23  F   UNL     1      -2.767  -2.190  24.118  0.00  0.00    -0.164 F 
ENDBRANCH  17  20
ENDBRANCH  13  14
BRANCH   7   6
ATOM      4  C   UNL     1      -2.977   1.838  23.916  0.00  0.00    +0.241 C 
ATOM      5  O   UNL     1      -2.982   2.395  24.523  0.00  0.00    -0.273 OA
ATOM      6  N   UNL     1      -3.590   1.291  23.852  0.00  0.00    -0.204 NA
BRANCH   4   2
ATOM      1  C   UNL     1      -2.514   1.892  22.564  0.00  0.00    +0.010 C 
ATOM      2  C   UNL     1      -2.357   1.827  23.372  0.00  0.00    +0.078 C 
ATOM      3  C   UNL     1      -1.578   1.751  23.634  0.00  0.00    +0.010 C 
ENDBRANCH   4   2
ENDBRANCH   7   6
TORSDOF 4
ENDMDL
MODEL 2
REMARK VINA RESULT:     -11.0      0.935      2.270
REMARK  Name = 
REMARK  4 active torsions:
REMARK  status: ('A' for Active; 'I' for Inactive)
REMARK    1  A    between atoms: C_2  and  C_4
REMARK    2  A    between atoms: N_6  and  C_7
REMARK    3  A    between atoms: C_13  and  C_14
REMARK    4  A    between atoms: C_17  and  C_20
REMARK                            x       y       z     vdW  Elec       q    Type
REMARK                         _______ _______ _______ _____ _____    ______ ____
ROOT
ATOM      7  C   UNL     1      -3.600   1.682  24.142  0.00  0.00    +0.132 C 
ATOM      8  C   UNL     1      -3.365   2.273  23.618  0.00  0.00    +0.202 C 
ATOM      9  O   UNL     1      -3.598   3.064  23.641  0.00  0.00    -0.219 OA
ATOM     10  C   UNL     1      -2.853   1.935  23.066  0.00  0.00    +0.184 C 
ATOM     11  O   UNL     1      -2.486   2.328  22.439  0.00  0.00    -0.220 OA
ATOM     12  C   UNL     1      -2.773   1.135  23.249  0.00  0.00    +0.042 C 
ATOM     13  C   UNL     1      -3.235   0.978  23.915  0.00  0.00    +0.049 C 
ENDROOT
BRANCH  13  14
ATOM     14  C   UNL     1      -3.316   0.246  24.286  0.00  0.00    -0.002 A 
ATOM     15  C   UNL     1      -2.890   0.080  24.972  0.00  0.00    +0.095 A 
ATOM     16  N   UNL     1      -2.971  -0.651  25.343  0.00  0.00    -0.240 NA
ATOM     17  C   UNL     1      -3.480  -1.219  25.028  0.00  0.00    +0.153 A 
ATOM     18  C   UNL     1      -3.907  -1.054  24.341  0.00  0.00    +0.023 A 
ATOM     19  C   UNL     1      -3.826  -0.322  23.970  0.00  0.00    -0.001 A 
BRANCH  17  20
ATOM     20  C   UNL     1      -3.562  -1.951  25.398  0.00  0.00    +0.435 C 
ATOM     21  F   UNL     1      -3.644  -2.684  25.768  0.00  0.00    -0.164 F 
ATOM     22  F   UNL     1      -3.674  -1.573  26.123  0.00  0.00    -0.164 F 
ATOM     23  F   UNL     1      -3.451  -2.330  24.674  0.00  0.00    -0.164 F 
ENDBRANCH  17  20
ENDBRANCH  13  14
BRANCH   7   6
ATOM      4  C   UNL     1      -4.833   2.164  24.680  0.00  0.00    +0.241 C 
ATOM      5  O   UNL     1      -5.043   2.455  23.938  0.00  0.00    -0.273 OA
ATOM      6  N   UNL     1      -4.112   1.778  24.783  0.00  0.00    -0.204 NA
BRANCH   4   2
ATOM      1  C   UNL     1      -6.065   1.858  25.337  0.00  0.00    +0.010 C 
ATOM      2  C   UNL     1      -5.344   2.259  25.321  0.00  0.00    +0.078 C 
ATOM      3  C   UNL     1      -5.136   2.756  25.945  0.00  0.00    +0.010 C 
ENDBRANCH   4   2
ENDBRANCH   7   6
TORSDOF 4
ENDMDL
MODEL 3
REMARK VINA RESULT:     -10.7      3.246      4.438
REMARK  Name = 
REMARK  4 active torsions:
REMARK  status: ('A' for Active; 'I' for Inactive)
REMARK    1  A    between atoms: C_2  and  C_4
REMARK    2  A    between atoms: N_6  and  C_7
REMARK    3  A    between atoms: C_13  and  C_14
REMARK    4  A    between atoms: C_17  and  C_20
REMARK                            x       y       z     vdW  Elec       q    Type
REMARK                         _______ _______ _______ _____ _____    ______ ____
ROOT
ATOM      7  C   UNL     1      -4.362   2.492  25.033  0.00  0.00    +0.132 C 
ATOM      8  C   UNL     1      -5.143   2.321  25.231  0.00  0.00    +0.202 C 
ATOM      9  O   UNL     1      -5.564   1.646  25.013  0.00  0.00    -0.219 OA
ATOM     10  C   UNL     1      -5.432   2.945  25.688  0.00  0.00    +0.184 C 
ATOM     11  O   UNL     1      -6.191   3.003  26.006  0.00  0.00    -0.220 OA
ATOM     12  C   UNL     1      -4.828   3.501  25.771  0.00  0.00    +0.042 C 
ATOM     13  C   UNL     1      -4.166   3.221  25.366  0.00  0.00    +0.049 C 
ENDROOT
BRANCH  13  14
ATOM     14  C   UNL     1      -3.437   3.603  25.305  0.00  0.00    -0.002 A 
ATOM     15  C   UNL     1      -3.221   3.973  24.601  0.00  0.00    +0.095 A 
ATOM     16  N   UNL     1      -2.493   4.355  24.541  0.00  0.00    -0.240 NA
ATOM     17  C   UNL     1      -1.980   4.368  25.186  0.00  0.00    +0.153 A 
ATOM     18  C   UNL     1      -2.195   3.998  25.892  0.00  0.00    +0.023 A 
ATOM     19  C   UNL     1      -2.924   3.616  25.952  0.00  0.00    -0.001 A 
BRANCH  17  20
ATOM     20  C   UNL     1      -1.252   4.750  25.127  0.00  0.00    +0.435 C 
ATOM     21  F   UNL     1      -0.523   5.132  25.068  0.00  0.00    -0.164 F 
ATOM     22  F   UNL     1      -0.910   4.056  24.838  0.00  0.00    -0.164 F 
ATOM     23  F   UNL     1      -1.592   5.443  25.416  0.00  0.00    -0.164 F 
ENDBRANCH  17  20
ENDBRANCH  13  14
BRANCH   7   6
ATOM      4  C   UNL     1      -3.775   1.217  24.763  0.00  0.00    +0.241 C 
ATOM      5  O   UNL     1      -4.187   0.893  25.399  0.00  0.00    -0.273 OA
ATOM      6  N   UNL     1      -3.861   2.016  24.579  0.00  0.00    -0.204 NA
BRANCH   4   2
ATOM      1  C   UNL     1      -2.725   0.251  24.680  0.00  0.00    +0.010 C 
ATOM      2  C   UNL     1      -3.275   0.742  24.310  0.00  0.00    +0.078 C 
ATOM      3  C   UNL     1      -3.325   0.757  23.487  0.00  0.00    +0.010 C 
ENDBRANCH   4   2
ENDBRANCH   7   6
TORSDOF 4
ENDMDL
MODEL 4
REMARK VINA RESULT:     -10.7      2.818      3.868
REMARK  Name = 
REMARK  4 active torsions:
REMARK  status: ('A' for Active; 'I' for Inactive)
REMARK    1  A    between atoms: C_2  and  C_4
REMARK    2  A    between atoms: N_6  and  C_7
REMARK    3  A    between atoms: C_13  and  C_14
REMARK    4  A    between atoms: C_17  and  C_20
REMARK                            x       y       z     vdW  Elec       q    Type
REMARK                         _______ _______ _______ _____ _____    ______ ____
ROOT
ATOM      7  C   UNL     1      -3.215  -1.184  24.730  0.00  0.00    +0.132 C 
ATOM      8  C   UNL     1      -3.291  -1.985  24.551  0.00  0.00    +0.202 C 
ATOM      9  O   UNL     1      -2.773  -2.585  24.780  0.00  0.00    -0.219 OA
ATOM     10  C   UNL     1      -3.977  -2.082  24.103  0.00  0.00    +0.184 C 
ATOM     11  O   UNL     1      -4.265  -2.796  23.806  0.00  0.00    -0.220 OA
ATOM     12  C   UNL     1      -4.325  -1.341  24.005  0.00  0.00    +0.042 C 
ATOM     13  C   UNL     1      -3.853  -0.785  24.393  0.00  0.00    +0.049 C 
ENDROOT
BRANCH  13  14
ATOM     14  C   UNL     1      -3.997   0.027  24.434  0.00  0.00    -0.002 A 
ATOM     15  C   UNL     1      -3.724   0.526  23.838  0.00  0.00    +0.095 A 
ATOM     16  N   UNL     1      -3.868   1.337  23.879  0.00  0.00    -0.240 NA
ATOM     17  C   UNL     1      -4.284   1.649  24.519  0.00  0.00    +0.153 A 
ATOM     18  C   UNL     1      -4.557   1.150  25.117  0.00  0.00    +0.023 A 
ATOM     19  C   UNL     1      -4.414   0.338  25.075  0.00  0.00    -0.001 A 
BRANCH  17  20
ATOM     20  C   UNL     1      -4.428   2.460  24.562  0.00  0.00    +0.435 C 
ATOM     21  F   UNL     1      -4.573   3.271  24.605  0.00  0.00    -0.164 F 
ATOM     22  F   UNL     1      -3.709   2.568  24.952  0.00  0.00    -0.164 F 
ATOM     23  F   UNL     1      -5.147   2.353  24.172  0.00  0.00    -0.164 F 
ENDBRANCH  17  20
ENDBRANCH  13  14
BRANCH   7   6
ATOM      4  C   UNL     1      -1.820  -0.985  24.967  0.00  0.00    +0.241 C 
ATOM      5  O   UNL     1      -1.641  -1.473  24.327  0.00  0.00    -0.273 OA
ATOM      6  N   UNL     1      -2.606  -0.840  25.169  0.00  0.00    -0.204 NA
BRANCH   4   2
ATOM      1  C   UNL     1      -1.193  -0.730  26.226  0.00  0.00    +0.010 C 
ATOM      2  C   UNL     1      -1.211  -0.642  25.406  0.00  0.00    +0.078 C 
ATOM      3  C   UNL     1      -0.621  -0.210  25.026  0.00  0.00    +0.010 C 
ENDBRANCH   4   2
ENDBRANCH   7   6
TORSDOF 4
ENDMDL
