MODEL 1
REMARK VINA RESULT:     -11.7      0.000      0.000
REMARK  Name = 
REMARK  5 active torsions:
REMARK  status: ('A' for Active; 'I' for Inactive)
REMARK    1  A    between atoms: O_2  and  C_3
REMARK    2  A    between atoms: C_4  and  C_9
REMARK    3  A    between atoms: C_13  and  C_15
REMARK    4  A    between atoms: C_22  and  C_23
REMARK    5  A    between atoms: C_23  and  N_24
REMARK                            x       y       z     vdW  Elec       q    Type
REMARK                         _______ _______ _______ _____ _____    ______ ____
ROOT
ATOM      9  C   UNL     1      -4.127  -0.267  24.651  0.00  0.00    +0.105 A 
ATOM     10  N   UNL     1      -4.851   0.092  24.814  0.00  0.00    -0.169 NA
ATOM     11  N   UNL     1      -4.724   0.905  24.872  0.00  0.00    -0.253 N 
ATOM     12  C   UNL     1      -5.298   1.476  25.030  0.00  0.00    +0.153 C 
ATOM     13  C   UNL     1      -3.921   1.048  24.745  0.00  0.00    +0.058 A 
ATOM     14  C   UNL     1      -3.552   0.323  24.608  0.00  0.00    +0.035 A 
ENDROOT
BRANCH  13  15
ATOM     15  C   UNL     1      -3.552   1.787  24.753  0.00  0.00    +0.056 C 
ATOM     16  C   UNL     1      -3.557   2.180  25.425  0.00  0.00    +0.078 C 
ATOM     17  N   UNL     1      -3.217   2.431  24.716  0.00  0.00    -0.272 NA
ATOM     18  C   UNL     1      -3.383   1.675  24.008  0.00  0.00    +0.072 C 
ATOM     19  C   UNL     1      -3.318   1.441  23.402  0.00  0.00    +0.018 C 
ATOM     20  C   UNL     1      -3.216   2.040  24.061  0.00  0.00    +0.010 C 
ATOM     21  C   UNL     1      -2.784   2.774  23.851  0.00  0.00    +0.018 C 
ATOM     22  C   UNL     1      -2.767   3.192  24.490  0.00  0.00    +0.079 C 
BRANCH  22  23
ATOM     23  C   UNL     1      -2.499   3.909  24.796  0.00  0.00    +0.131 C 
BRANCH  23  24
ATOM     24  N   UNL     1      -1.709   4.127  24.704  0.00  0.00    -0.204 NA
ATOM     25  C   UNL     1      -1.432   4.829  25.036  0.00  0.00    +0.242 C 
ATOM     26  C   UNL     1      -0.642   5.047  24.944  0.00  0.00    +0.096 C 
ATOM     27  O   UNL     1      -1.946   5.314  25.461  0.00  0.00    -0.273 OA
ENDBRANCH  23  24
ENDBRANCH  22  23
ENDBRANCH  13  15
BRANCH   9   4
ATOM      3  C   UNL     1      -3.648  -1.518  25.150  0.00  0.00    +0.140 A 
ATOM      4  C   UNL     1      -3.999  -1.076  24.549  0.00  0.00    +0.053 A 
ATOM      5  C   UNL     1      -4.223  -1.443  23.844  0.00  0.00    +0.005 A 
ATOM      6  C   UNL     1      -4.096  -2.252  23.741  0.00  0.00    +0.000 A 
ATOM      7  C   UNL     1      -3.745  -2.694  24.343  0.00  0.00    +0.003 A 
ATOM      8  C   UNL     1      -3.521  -2.327  25.047  0.00  0.00    +0.037 A 
BRANCH   3   2
ATOM      1  C   UNL     1      -3.052  -1.588  26.446  0.00  0.00    +0.252 C 
ATOM      2  O   UNL     1      -3.425  -1.152  25.854  0.00  0.00    -0.471 OA
ENDBRANCH   3   2
ENDBRANCH   9   4
TORSDOF 5
ENDMDL
MODEL 2
REMARK VINA RESULT:     -10.4      1.220      5.050
REMARK  Name = 
REMARK  5 active torsions:
REMARK  status: ('A' for Active; 'I' for Inactive)
REMARK    1  A    between atoms: O_2  and  C_3
REMARK    2  A    between atoms: C_4  and  C_9
REMARK    3  A    between atoms: C_13  and  C_15
REMARK    4  A    between atoms: C_22  and  C_23
REMARK    5  A    between atoms: C_23  and  N_24
REMARK                            x       y       z     vdW  Elec       q    Type
REMARK                         _______ _______ _______ _____ _____    ______ ____
ROOT
ATOM      9  C   UNL     1      -2.515   2.959  24.299  0.00  0.00    +0.105 A 
ATOM     10  N   UNL     1      -2.823   3.019  23.537  0.00  0.00    -0.169 NA
ATOM     11  N   UNL     1      -3.186   2.301  23.352  0.00  0.00    -0.253 N 
ATOM     12  C   UNL     1      -3.566   2.118  22.642  0.00  0.00    +0.153 C 
ATOM     13  C   UNL     1      -3.101   1.798  24.000  0.00  0.00    +0.058 A 
ATOM     14  C   UNL     1      -2.687   2.205  24.586  0.00  0.00    +0.035 A 
ENDROOT
BRANCH  13  15
ATOM     15  C   UNL     1      -3.383   1.023  24.053  0.00  0.00    +0.056 C 
ATOM     16  C   UNL     1      -3.064   0.496  23.578  0.00  0.00    +0.078 C 
ATOM     17  N   UNL     1      -3.659   0.356  24.132  0.00  0.00    -0.272 NA
ATOM     18  C   UNL     1      -3.863   1.269  24.605  0.00  0.00    +0.072 C 
ATOM     19  C   UNL     1      -4.198   1.620  25.043  0.00  0.00    +0.018 C 
ATOM     20  C   UNL     1      -3.967   0.879  24.594  0.00  0.00    +0.010 C 
ATOM     21  C   UNL     1      -4.400   0.147  24.811  0.00  0.00    +0.018 C 
ATOM     22  C   UNL     1      -4.113  -0.401  24.363  0.00  0.00    +0.079 C 
BRANCH  22  23
ATOM     23  C   UNL     1      -4.177  -1.205  24.190  0.00  0.00    +0.131 C 
BRANCH  23  24
ATOM     24  N   UNL     1      -3.763  -1.758  24.641  0.00  0.00    -0.204 NA
ATOM     25  C   UNL     1      -3.781  -2.556  24.435  0.00  0.00    +0.242 C 
ATOM     26  C   UNL     1      -3.368  -3.109  24.886  0.00  0.00    +0.096 C 
ATOM     27  O   UNL     1      -4.213  -2.802  23.776  0.00  0.00    -0.273 OA
ENDBRANCH  23  24
ENDBRANCH  22  23
ENDBRANCH  13  15
BRANCH   9   4
ATOM      3  C   UNL     1      -1.282   3.548  24.717  0.00  0.00    +0.140 A 
ATOM      4  C   UNL     1      -2.107   3.550  24.704  0.00  0.00    +0.053 A 
ATOM      5  C   UNL     1      -2.523   4.144  25.098  0.00  0.00    +0.005 A 
ATOM      6  C   UNL     1      -2.115   4.736  25.504  0.00  0.00    +0.000 A 
ATOM      7  C   UNL     1      -1.290   4.733  25.516  0.00  0.00    +0.003 A 
ATOM      8  C   UNL     1      -0.874   4.139  25.122  0.00  0.00    +0.037 A 
BRANCH   3   2
ATOM      1  C   UNL     1      -0.042   2.930  24.368  0.00  0.00    +0.252 C 
ATOM      2  O   UNL     1      -0.865   2.955  24.324  0.00  0.00    -0.471 OA
ENDBRANCH   3   2
ENDBRANCH   9   4
TORSDOF 5
ENDMDL
MODEL 3
REMARK VINA RESULT:     -10.2      1.411      5.172
REMARK  Name = 
REMARK  5 active torsions:
REMARK  status: ('A' for Active; 'I' for Inactive)
REMARK    1  A    between atoms: O_2  and  C_3
REMARK    2  A    between atoms: C_4  and  C_9
REMARK    3  A    between atoms: C_13  and  C_15
REMARK    4  A    between atoms: C_22  and  C_23
REMARK    5  A    between atoms: C_23  and  N_24
REMARK                            x       y       z     vdW  Elec       q    Type
REMARK                         _______ _______ _______ _____ _____    ______ ____
ROOT
ATOM      9  C   UNL     1      -2.112   2.923  24.517  0.00  0.00    +0.105 A 
ATOM     10  N   UNL     1      -2.537   2.791  23.822  0.00  0.00    -0.169 NA
ATOM     11  N   UNL     1      -2.728   1.990  23.789  0.00  0.00    -0.253 N 
ATOM     12  C   UNL     1      -3.152   1.617  23.187  0.00  0.00    +0.153 C 
ATOM     13  C   UNL     1      -2.421   1.626  24.462  0.00  0.00    +0.058 A 
ATOM     14  C   UNL     1      -2.040   2.202  24.913  0.00  0.00    +0.035 A 
ENDROOT
BRANCH  13  15
ATOM     15  C   UNL     1      -2.484   0.824  24.653  0.00  0.00    +0.056 C 
ATOM     16  C   UNL     1      -3.192   0.556  24.833  0.00  0.00    +0.078 C 
ATOM     17  N   UNL     1      -2.494   0.115  24.813  0.00  0.00    -0.272 NA
ATOM     18  C   UNL     1      -1.723   0.769  24.535  0.00  0.00    +0.072 C 
ATOM     19  C   UNL     1      -1.093   0.881  24.403  0.00  0.00    +0.018 C 
ATOM     20  C   UNL     1      -1.804   0.386  24.635  0.00  0.00    +0.010 C 
ATOM     21  C   UNL     1      -1.647  -0.462  24.798  0.00  0.00    +0.018 C 
ATOM     22  C   UNL     1      -2.324  -0.765  24.981  0.00  0.00    +0.079 C 
BRANCH  22  23
ATOM     23  C   UNL     1      -2.686  -1.472  25.201  0.00  0.00    +0.131 C 
BRANCH  23  24
ATOM     24  N   UNL     1      -2.940  -2.002  24.622  0.00  0.00    -0.204 NA
ATOM     25  C   UNL     1      -3.348  -2.686  24.838  0.00  0.00    +0.242 C 
ATOM     26  C   UNL     1      -3.602  -3.216  24.260  0.00  0.00    +0.096 C 
ATOM     27  O   UNL     1      -3.501  -2.840  25.634  0.00  0.00    -0.273 OA
ENDBRANCH  23  24
ENDBRANCH  22  23
ENDBRANCH  13  15
BRANCH   9   4
ATOM      3  C   UNL     1      -2.246   4.116  25.291  0.00  0.00    +0.140 A 
ATOM      4  C   UNL     1      -1.811   3.647  24.771  0.00  0.00    +0.053 A 
ATOM      5  C   UNL     1      -1.073   3.904  24.505  0.00  0.00    +0.005 A 
ATOM      6  C   UNL     1      -0.772   4.629  24.759  0.00  0.00    +0.000 A 
ATOM      7  C   UNL     1      -1.208   5.097  25.279  0.00  0.00    +0.003 A 
ATOM      8  C   UNL     1      -1.946   4.841  25.546  0.00  0.00    +0.037 A 
BRANCH   3   2
ATOM      1  C   UNL     1      -3.378   4.279  26.148  0.00  0.00    +0.252 C 
ATOM      2  O   UNL     1      -2.984   3.860  25.558  0.00  0.00    -0.471 OA
ENDBRANCH   3   2
ENDBRANCH   9   4
TORSDOF 5
ENDMDL
MODEL 4
REMARK VINA RESULT:      -9.8      2.636      4.006
REMARK  Name = 
REMARK  5 active torsions:
REMARK  status: ('A' for Active; 'I' for Inactive)
REMARK    1  A    between atoms: O_2  and  C_3
REMARK    2  A    between atoms: C_4  and  C_9
REMARK    3  A    between atoms: C_13  and  C_15
REMARK    4  A    between atoms: C_22  and  C_23
REMARK    5  A    between atoms: C_23  and  N_24
REMARK                            x       y       z     vdW  Elec       q    Type
REMARK                         _______ _______ _______ _____ _____    ______ ____
ROOT
ATOM      9  C   UNL     1      -3.854   2.109  24.366  0.00  0.00    +0.105 A 
ATOM     10  N   UNL     1      -3.819   2.289  23.561  0.00  0.00    -0.169 NA
ATOM     11  N   UNL     1      -3.080   2.054  23.280  0.00  0.00    -0.253 N 
ATOM     12  C   UNL     1      -2.809   2.131  22.504  0.00  0.00    +0.153 C 
ATOM     13  C   UNL     1      -2.659   1.729  23.911  0.00  0.00    +0.058 A 
ATOM     14  C   UNL     1      -3.137   1.763  24.582  0.00  0.00    +0.035 A 
ENDROOT
BRANCH  13  15
ATOM     15  C   UNL     1      -1.892   1.424  23.876  0.00  0.00    +0.056 C 
ATOM     16  C   UNL     1      -1.328   1.903  23.633  0.00  0.00    +0.078 C 
ATOM     17  N   UNL     1      -1.234   1.114  23.860  0.00  0.00    -0.272 NA
ATOM     18  C   UNL     1      -2.181   0.755  24.130  0.00  0.00    +0.072 C 
ATOM     19  C   UNL     1      -2.566   0.271  24.343  0.00  0.00    +0.018 C 
ATOM     20  C   UNL     1      -1.792   0.651  24.096  0.00  0.00    +0.010 C 
ATOM     21  C   UNL     1      -1.081   0.138  24.135  0.00  0.00    +0.018 C 
ATOM     22  C   UNL     1      -0.499   0.575  23.902  0.00  0.00    +0.079 C 
BRANCH  22  23
ATOM     23  C   UNL     1       0.314   0.565  23.769  0.00  0.00    +0.131 C 
BRANCH  23  24
ATOM     24  N   UNL     1       0.629   0.081  23.179  0.00  0.00    -0.204 NA
ATOM     25  C   UNL     1       1.414   0.172  22.946  0.00  0.00    +0.242 C 
ATOM     26  C   UNL     1       1.729  -0.312  22.356  0.00  0.00    +0.096 C 
ATOM     27  O   UNL     1       1.886   0.748  23.302  0.00  0.00    -0.273 OA
ENDBRANCH  23  24
ENDBRANCH  22  23
ENDBRANCH  13  15
BRANCH   9   4
ATOM      3  C   UNL     1      -4.493   2.908  25.364  0.00  0.00    +0.140 A 
ATOM      4  C   UNL     1      -4.494   2.251  24.866  0.00  0.00    +0.053 A 
ATOM      5  C   UNL     1      -5.137   1.733  24.870  0.00  0.00    +0.005 A 
ATOM      6  C   UNL     1      -5.778   1.874  25.371  0.00  0.00    +0.000 A 
ATOM      7  C   UNL     1      -5.776   2.532  25.868  0.00  0.00    +0.003 A 
ATOM      8  C   UNL     1      -5.133   3.050  25.864  0.00  0.00    +0.037 A 
BRANCH   3   2
ATOM      1  C   UNL     1      -3.811   4.039  25.910  0.00  0.00    +0.252 C 
ATOM      2  O   UNL     1      -3.850   3.426  25.360  0.00  0.00    -0.471 OA
ENDBRANCH   3   2
ENDBRANCH   9   4
TORSDOF 5
ENDMDL
MODEL 5
REMARK VINA RESULT:      -9.7      2.126      2.580
REMARK  Name = 
REMARK  5 active torsions:
REMARK  status: ('A' for Active; 'I' for Inactive)
REMARK    1  A    between atoms: O_2  and  C_3
REMARK    2  A    between atoms: C_4  and  C_9
REMARK    3  A    between atoms: C_13  and  C_15
REMARK    4  A    between atoms: C_22  and  C_23
REMARK    5  A    between atoms: C_23  and  N_24
REMARK                            x       y       z     vdW  Elec       q    Type
REMARK                         _______ _______ _______ _____ _____    ______ ____
ROOT
ATOM      9  C   UNL     1      -1.857  -0.799  24.535  0.00  0.00    +0.105 A 
ATOM     10  N   UNL     1      -1.163  -0.867  24.094  0.00  0.00    -0.169 NA
ATOM     11  N   UNL     1      -0.787  -0.133  24.098  0.00  0.00    -0.253 N 
ATOM     12  C   UNL     1      -0.074   0.049  23.724  0.00  0.00    +0.153 C 
ATOM     13  C   UNL     1      -1.248   0.388  24.541  0.00  0.00    +0.058 A 
ATOM     14  C   UNL     1      -1.910  -0.023  24.811  0.00  0.00    +0.035 A 
ENDROOT
BRANCH  13  15
ATOM     15  C   UNL     1      -1.077   1.183  24.687  0.00  0.00    +0.056 C 
ATOM     16  C   UNL     1      -1.120   1.673  24.085  0.00  0.00    +0.078 C 
ATOM     17  N   UNL     1      -0.919   1.871  24.861  0.00  0.00    -0.272 NA
ATOM     18  C   UNL     1      -0.954   0.987  25.424  0.00  0.00    +0.072 C 
ATOM     19  C   UNL     1      -0.887   0.673  25.993  0.00  0.00    +0.018 C 
ATOM     20  C   UNL     1      -0.879   1.384  25.446  0.00  0.00    +0.010 C 
ATOM     21  C   UNL     1      -0.666   2.152  25.814  0.00  0.00    +0.018 C 
ATOM     22  C   UNL     1      -0.696   2.665  25.250  0.00  0.00    +0.079 C 
BRANCH  22  23
ATOM     23  C   UNL     1      -0.590   3.467  25.088  0.00  0.00    +0.131 C 
BRANCH  23  24
ATOM     24  N   UNL     1      -1.189   4.006  25.267  0.00  0.00    -0.204 NA
ATOM     25  C   UNL     1      -1.101   4.801  25.068  0.00  0.00    +0.242 C 
ATOM     26  C   UNL     1      -1.699   5.340  25.247  0.00  0.00    +0.096 C 
ATOM     27  O   UNL     1      -0.415   5.058  24.689  0.00  0.00    -0.273 OA
ENDBRANCH  23  24
ENDBRANCH  22  23
ENDBRANCH  13  15
BRANCH   9   4
ATOM      3  C   UNL     1      -3.175  -1.334  24.394  0.00  0.00    +0.140 A 
ATOM      4  C   UNL     1      -2.403  -1.402  24.675  0.00  0.00    +0.053 A 
ATOM      5  C   UNL     1      -2.176  -2.073  25.098  0.00  0.00    +0.005 A 
ATOM      6  C   UNL     1      -2.722  -2.677  25.239  0.00  0.00    +0.000 A 
ATOM      7  C   UNL     1      -3.494  -2.608  24.957  0.00  0.00    +0.003 A 
ATOM      8  C   UNL     1      -3.721  -1.936  24.534  0.00  0.00    +0.037 A 
BRANCH   3   2
ATOM      1  C   UNL     1      -4.190  -0.560  23.752  0.00  0.00    +0.252 C 
ATOM      2  O   UNL     1      -3.402  -0.662  23.971  0.00  0.00    -0.471 OA
ENDBRANCH   3   2
ENDBRANCH   9   4
TORSDOF 5
ENDMDL
MODEL 6
REMARK VINA RESULT:      -9.4      3.439      4.312
REMARK  Name = 
REMARK  5 active torsions:
REMARK  status: ('A' for Active; 'I' for Inactive)
REMARK    1  A    between atoms: O_2  and  C_3
REMARK    2  A    between atoms: C_4  and  C_9
REMARK    3  A    between atoms: C_13  and  C_15
REMARK    4  A    between atoms: C_22  and  C_23
REMARK    5  A    between atoms: C_23  and  N_24
REMARK                            x       y       z     vdW  Elec       q    Type
REMARK                         _______ _______ _______ _____ _____    ______ ____
ROOT
ATOM      9  C   UNL     1      -2.578   1.192  24.771  0.00  0.00    +0.105 A 
ATOM     10  N   UNL     1      -2.083   1.600  25.288  0.00  0.00    -0.169 NA
ATOM     11  N   UNL     1      -1.304   1.473  25.049  0.00  0.00    -0.253 N 
ATOM     12  C   UNL     1      -0.629   1.780  25.411  0.00  0.00    +0.153 C 
ATOM     13  C   UNL     1      -1.318   0.987  24.383  0.00  0.00    +0.058 A 
ATOM     14  C   UNL     1      -2.105   0.812  24.210  0.00  0.00    +0.035 A 
ENDROOT
BRANCH  13  15
ATOM     15  C   UNL     1      -0.659   0.721  23.962  0.00  0.00    +0.056 C 
ATOM     16  C   UNL     1      -0.327   1.221  23.466  0.00  0.00    +0.078 C 
ATOM     17  N   UNL     1      -0.083   0.446  23.614  0.00  0.00    -0.272 NA
ATOM     18  C   UNL     1      -0.736   0.046  24.329  0.00  0.00    +0.072 C 
ATOM     19  C   UNL     1      -0.928  -0.449  24.709  0.00  0.00    +0.018 C 
ATOM     20  C   UNL     1      -0.413  -0.038  24.102  0.00  0.00    +0.010 C 
ATOM     21  C   UNL     1       0.249  -0.512  23.773  0.00  0.00    +0.018 C 
ATOM     22  C   UNL     1       0.603  -0.052  23.276  0.00  0.00    +0.079 C 
BRANCH  22  23
ATOM     23  C   UNL     1       1.234  -0.024  22.746  0.00  0.00    +0.131 C 
BRANCH  23  24
ATOM     24  N   UNL     1       1.986   0.186  23.012  0.00  0.00    -0.204 NA
ATOM     25  C   UNL     1       2.623   0.192  22.488  0.00  0.00    +0.242 C 
ATOM     26  C   UNL     1       3.375   0.401  22.754  0.00  0.00    +0.096 C 
ATOM     27  O   UNL     1       2.507  -0.011  21.697  0.00  0.00    -0.273 OA
ENDBRANCH  23  24
ENDBRANCH  22  23
ENDBRANCH  13  15
BRANCH   9   4
ATOM      3  C   UNL     1      -3.848   1.789  24.500  0.00  0.00    +0.140 A 
ATOM      4  C   UNL     1      -3.402   1.167  24.806  0.00  0.00    +0.053 A 
ATOM      5  C   UNL     1      -3.780   0.518  25.149  0.00  0.00    +0.005 A 
ATOM      6  C   UNL     1      -4.605   0.493  25.184  0.00  0.00    +0.000 A 
ATOM      7  C   UNL     1      -5.050   1.116  24.878  0.00  0.00    +0.003 A 
ATOM      8  C   UNL     1      -4.672   1.764  24.536  0.00  0.00    +0.037 A 
BRANCH   3   2
ATOM      1  C   UNL     1      -3.915   3.055  23.841  0.00  0.00    +0.252 C 
ATOM      2  O   UNL     1      -3.469   2.438  24.158  0.00  0.00    -0.471 OA
ENDBRANCH   3   2
ENDBRANCH   9   4
TORSDOF 5
ENDMDL
