MODEL 1
REMARK VINA RESULT:     -10.8      0.000      0.000
REMARK  Name = 
REMARK  6 active torsions:
REMARK  status: ('A' for Active; 'I' for Inactive)
REMARK    1  A    between atoms: O_2  and  C_3
REMARK    2  A    between atoms: C_3  and  C_4
REMARK    3  A    between atoms: C_4  and  N_5
REMARK    4  A    between atoms: N_5  and  C_6
REMARK    5  A    between atoms: C_7  and  C_12
REMARK    6  A    between atoms: C_15  and  C_17
REMARK                            x       y       z     vdW  Elec       q    Type
REMARK                         _______ _______ _______ _____ _____    ______ ____
ROOT
ATOM     12  C   UNL     1      -3.746   1.287  24.668  0.00  0.00    +0.206 A 
ATOM     13  N   UNL     1      -3.529   1.134  23.887  0.00  0.00    -0.056 NA
ATOM     14  O   UNL     1      -2.926   0.573  23.894  0.00  0.00    -0.335 OA
ATOM     15  C   UNL     1      -2.770   0.377  24.681  0.00  0.00    +0.255 A 
ATOM     16  N   UNL     1      -3.277   0.819  25.158  0.00  0.00    -0.189 NA
ENDROOT
BRANCH  15  17
ATOM     17  C   UNL     1      -2.206  -0.165  24.943  0.00  0.00    +0.155 C 
ATOM     18  C   UNL     1      -1.480   0.019  25.288  0.00  0.00    +0.031 C 
ATOM     19  C   UNL     1      -1.095  -0.690  25.463  0.00  0.00    +0.024 C 
ATOM     20  C   UNL     1      -1.583  -1.311  25.225  0.00  0.00    +0.094 C 
ATOM     21  N   UNL     1      -2.269  -0.987  24.904  0.00  0.00    -0.271 N 
ATOM     22  C   UNL     1      -2.908  -1.409  24.597  0.00  0.00    +0.221 A 
ATOM     23  N   UNL     1      -2.893  -2.235  24.596  0.00  0.00    -0.212 NA
ATOM     24  C   UNL     1      -3.532  -2.658  24.289  0.00  0.00    +0.103 A 
ATOM     25  C   UNL     1      -4.185  -2.256  23.984  0.00  0.00    +0.041 A 
ATOM     26  C   UNL     1      -4.200  -1.431  23.986  0.00  0.00    +0.103 A 
ATOM     27  N   UNL     1      -3.561  -1.008  24.293  0.00  0.00    -0.212 NA
ENDBRANCH  15  17
BRANCH  12   7
ATOM      6  C   UNL     1      -4.138   2.604  25.062  0.00  0.00    +0.151 A 
ATOM      7  C   UNL     1      -4.330   1.815  24.915  0.00  0.00    +0.072 A 
ATOM      8  C   UNL     1      -5.107   1.554  25.014  0.00  0.00    +0.008 A 
ATOM      9  C   UNL     1      -5.691   2.082  25.261  0.00  0.00    +0.021 A 
ATOM     10  C   UNL     1      -5.498   2.871  25.408  0.00  0.00    +0.100 A 
ATOM     11  N   UNL     1      -4.722   3.132  25.309  0.00  0.00    -0.228 NA
BRANCH   6   5
ATOM      5  N   UNL     1      -3.361   2.864  24.962  0.00  0.00    -0.218 NA
BRANCH   5   4
ATOM      4  C   UNL     1      -3.158   3.639  25.160  0.00  0.00    +0.146 C 
BRANCH   4   3
ATOM      3  C   UNL     1      -2.384   3.904  25.047  0.00  0.00    +0.166 C 
BRANCH   3   2
ATOM      1  C   UNL     1      -1.439   4.970  25.158  0.00  0.00    +0.174 C 
ATOM      2  O   UNL     1      -2.127   4.595  25.418  0.00  0.00    -0.349 OA
ENDBRANCH   3   2
ENDBRANCH   4   3
ENDBRANCH   5   4
ENDBRANCH   6   5
ENDBRANCH  12   7
TORSDOF 6
ENDMDL
MODEL 2
REMARK VINA RESULT:     -10.1      1.227      4.238
REMARK  Name = 
REMARK  6 active torsions:
REMARK  status: ('A' for Active; 'I' for Inactive)
REMARK    1  A    between atoms: O_2  and  C_3
REMARK    2  A    between atoms: C_3  and  C_4
REMARK    3  A    between atoms: C_4  and  N_5
REMARK    4  A    between atoms: N_5  and  C_6
REMARK    5  A    between atoms: C_7  and  C_12
REMARK    6  A    between atoms: C_15  and  C_17
REMARK                            x       y       z     vdW  Elec       q    Type
REMARK                         _______ _______ _______ _____ _____    ______ ____
ROOT
ATOM     12  C   UNL     1      -2.930   0.538  24.619  0.00  0.00    +0.206 A 
ATOM     13  N   UNL     1      -3.183   0.868  23.906  0.00  0.00    -0.056 NA
ATOM     14  O   UNL     1      -3.166   1.688  23.984  0.00  0.00    -0.335 OA
ATOM     15  C   UNL     1      -2.902   1.866  24.746  0.00  0.00    +0.255 A 
ATOM     16  N   UNL     1      -2.757   1.156  25.137  0.00  0.00    -0.189 NA
ENDROOT
BRANCH  15  17
ATOM     17  C   UNL     1      -2.801   2.623  25.059  0.00  0.00    +0.155 C 
ATOM     18  C   UNL     1      -2.083   3.015  25.160  0.00  0.00    +0.031 C 
ATOM     19  C   UNL     1      -2.241   3.755  25.490  0.00  0.00    +0.024 C 
ATOM     20  C   UNL     1      -3.057   3.819  25.592  0.00  0.00    +0.094 C 
ATOM     21  N   UNL     1      -3.404   3.121  25.326  0.00  0.00    -0.271 N 
ATOM     22  C   UNL     1      -4.211   2.947  25.326  0.00  0.00    +0.221 A 
ATOM     23  N   UNL     1      -4.751   3.503  25.612  0.00  0.00    -0.212 NA
ATOM     24  C   UNL     1      -5.558   3.330  25.612  0.00  0.00    +0.103 A 
ATOM     25  C   UNL     1      -5.824   2.603  25.327  0.00  0.00    +0.041 A 
ATOM     26  C   UNL     1      -5.285   2.049  25.041  0.00  0.00    +0.103 A 
ATOM     27  N   UNL     1      -4.477   2.222  25.041  0.00  0.00    -0.212 NA
ENDBRANCH  15  17
BRANCH  12   7
ATOM      6  C   UNL     1      -2.143  -0.653  24.671  0.00  0.00    +0.151 A 
ATOM      7  C   UNL     1      -2.863  -0.267  24.784  0.00  0.00    +0.072 A 
ATOM      8  C   UNL     1      -3.517  -0.688  25.062  0.00  0.00    +0.008 A 
ATOM      9  C   UNL     1      -3.450  -1.493  25.227  0.00  0.00    +0.021 A 
ATOM     10  C   UNL     1      -2.729  -1.878  25.114  0.00  0.00    +0.100 A 
ATOM     11  N   UNL     1      -2.076  -1.459  24.836  0.00  0.00    -0.228 NA
BRANCH   6   5
ATOM      5  N   UNL     1      -1.489  -0.233  24.392  0.00  0.00    -0.218 NA
BRANCH   5   4
ATOM      4  C   UNL     1      -0.781  -0.627  24.239  0.00  0.00    +0.146 C 
BRANCH   4   3
ATOM      3  C   UNL     1      -0.122  -0.204  23.979  0.00  0.00    +0.166 C 
BRANCH   3   2
ATOM      1  C   UNL     1       0.975  -0.104  23.069  0.00  0.00    +0.174 C 
ATOM      2  O   UNL     1       0.431  -0.565  23.485  0.00  0.00    -0.349 OA
ENDBRANCH   3   2
ENDBRANCH   4   3
ENDBRANCH   5   4
ENDBRANCH   6   5
ENDBRANCH  12   7
TORSDOF 6
ENDMDL
MODEL 3
REMARK VINA RESULT:      -9.5      2.039      3.989
REMARK  Name = 
REMARK  6 active torsions:
REMARK  status: ('A' for Active; 'I' for Inactive)
REMARK    1  A    between atoms: O_2  and  C_3
REMARK    2  A    between atoms: C_3  and  C_4
REMARK    3  A    between atoms: C_4  and  N_5
REMARK    4  A    between atoms: N_5  and  C_6
REMARK    5  A    between atoms: C_7  and  C_12
REMARK    6  A    between atoms: C_15  and  C_17
REMARK                            x       y       z     vdW  Elec       q    Type
REMARK                         _______ _______ _______ _____ _____    ______ ____
ROOT
ATOM     12  C   UNL     1      -1.904   1.829  24.739  0.00  0.00    +0.206 A 
ATOM     13  N   UNL     1      -2.240   2.176  24.071  0.00  0.00    -0.056 NA
ATOM     14  O   UNL     1      -2.921   1.753  23.878  0.00  0.00    -0.335 OA
ATOM     15  C   UNL     1      -3.007   1.144  24.429  0.00  0.00    +0.255 A 
ATOM     16  N   UNL     1      -2.378   1.192  24.961  0.00  0.00    -0.189 NA
ENDROOT
BRANCH  15  17
ATOM     17  C   UNL     1      -3.615   0.587  24.444  0.00  0.00    +0.155 C 
ATOM     18  C   UNL     1      -3.550  -0.208  24.234  0.00  0.00    +0.031 C 
ATOM     19  C   UNL     1      -4.291  -0.558  24.332  0.00  0.00    +0.024 C 
ATOM     20  C   UNL     1      -4.812   0.020  24.603  0.00  0.00    +0.094 C 
ATOM     21  N   UNL     1      -4.396   0.728  24.672  0.00  0.00    -0.271 N 
ATOM     22  C   UNL     1      -4.703   1.450  24.925  0.00  0.00    +0.221 A 
ATOM     23  N   UNL     1      -5.499   1.507  25.136  0.00  0.00    -0.212 NA
ATOM     24  C   UNL     1      -5.808   2.230  25.390  0.00  0.00    +0.103 A 
ATOM     25  C   UNL     1      -5.321   2.894  25.431  0.00  0.00    +0.041 A 
ATOM     26  C   UNL     1      -4.526   2.837  25.220  0.00  0.00    +0.103 A 
ATOM     27  N   UNL     1      -4.217   2.114  24.967  0.00  0.00    -0.212 NA
ENDBRANCH  15  17
BRANCH  12   7
ATOM      6  C   UNL     1      -0.481   1.800  24.866  0.00  0.00    +0.151 A 
ATOM      7  C   UNL     1      -1.215   2.076  25.120  0.00  0.00    +0.072 A 
ATOM      8  C   UNL     1      -1.260   2.601  25.756  0.00  0.00    +0.008 A 
ATOM      9  C   UNL     1      -0.571   2.849  26.136  0.00  0.00    +0.021 A 
ATOM     10  C   UNL     1       0.163   2.571  25.881  0.00  0.00    +0.100 A 
ATOM     11  N   UNL     1       0.208   2.047  25.247  0.00  0.00    -0.228 NA
BRANCH   6   5
ATOM      5  N   UNL     1      -0.436   1.275  24.230  0.00  0.00    -0.218 NA
BRANCH   5   4
ATOM      4  C   UNL     1       0.288   0.934  24.028  0.00  0.00    +0.146 C 
BRANCH   4   3
ATOM      3  C   UNL     1       0.358   0.499  23.330  0.00  0.00    +0.166 C 
BRANCH   3   2
ATOM      1  C   UNL     1       1.357  -0.199  22.583  0.00  0.00    +0.174 C 
ATOM      2  O   UNL     1       0.916  -0.105  23.275  0.00  0.00    -0.349 OA
ENDBRANCH   3   2
ENDBRANCH   4   3
ENDBRANCH   5   4
ENDBRANCH   6   5
ENDBRANCH  12   7
TORSDOF 6
ENDMDL
MODEL 4
REMARK VINA RESULT:      -9.5      1.593      4.229
REMARK  Name = 
REMARK  6 active torsions:
REMARK  status: ('A' for Active; 'I' for Inactive)
REMARK    1  A    between atoms: O_2  and  C_3
REMARK    2  A    between atoms: C_3  and  C_4
REMARK    3  A    between atoms: C_4  and  N_5
REMARK    4  A    between atoms: N_5  and  C_6
REMARK    5  A    between atoms: C_7  and  C_12
REMARK    6  A    between atoms: C_15  and  C_17
REMARK                            x       y       z     vdW  Elec       q    Type
REMARK                         _______ _______ _______ _____ _____    ______ ____
ROOT
ATOM     12  C   UNL     1      -3.499   2.045  24.455  0.00  0.00    +0.206 A 
ATOM     13  N   UNL     1      -3.352   2.337  23.698  0.00  0.00    -0.056 NA
ATOM     14  O   UNL     1      -2.536   2.367  23.588  0.00  0.00    -0.335 OA
ATOM     15  C   UNL     1      -2.177   2.094  24.280  0.00  0.00    +0.255 A 
ATOM     16  N   UNL     1      -2.772   1.895  24.814  0.00  0.00    -0.189 NA
ENDROOT
BRANCH  15  17
ATOM     17  C   UNL     1      -1.365   2.031  24.411  0.00  0.00    +0.155 C 
ATOM     18  C   UNL     1      -0.913   1.345  24.339  0.00  0.00    +0.031 C 
ATOM     19  C   UNL     1      -0.130   1.535  24.521  0.00  0.00    +0.024 C 
ATOM     20  C   UNL     1      -0.100   2.338  24.705  0.00  0.00    +0.094 C 
ATOM     21  N   UNL     1      -0.861   2.645  24.638  0.00  0.00    -0.271 N 
ATOM     22  C   UNL     1      -1.084   3.428  24.773  0.00  0.00    +0.221 A 
ATOM     23  N   UNL     1      -0.516   3.984  24.998  0.00  0.00    -0.212 NA
ATOM     24  C   UNL     1      -0.738   4.767  25.133  0.00  0.00    +0.103 A 
ATOM     25  C   UNL     1      -1.526   4.995  25.043  0.00  0.00    +0.041 A 
ATOM     26  C   UNL     1      -2.092   4.439  24.818  0.00  0.00    +0.103 A 
ATOM     27  N   UNL     1      -1.871   3.656  24.683  0.00  0.00    -0.212 NA
ENDBRANCH  15  17
BRANCH  12   7
ATOM      6  C   UNL     1      -4.568   1.168  24.815  0.00  0.00    +0.151 A 
ATOM      7  C   UNL     1      -4.241   1.925  24.794  0.00  0.00    +0.072 A 
ATOM      8  C   UNL     1      -4.658   2.562  25.112  0.00  0.00    +0.008 A 
ATOM      9  C   UNL     1      -5.401   2.442  25.451  0.00  0.00    +0.021 A 
ATOM     10  C   UNL     1      -5.727   1.684  25.471  0.00  0.00    +0.100 A 
ATOM     11  N   UNL     1      -5.310   1.047  25.153  0.00  0.00    -0.228 NA
BRANCH   6   5
ATOM      5  N   UNL     1      -4.151   0.530  24.496  0.00  0.00    -0.218 NA
BRANCH   5   4
ATOM      4  C   UNL     1      -4.487  -0.223  24.497  0.00  0.00    +0.146 C 
BRANCH   4   3
ATOM      3  C   UNL     1      -4.049  -0.870  24.229  0.00  0.00    +0.166 C 
BRANCH   3   2
ATOM      1  C   UNL     1      -4.062  -2.280  23.998  0.00  0.00    +0.174 C 
ATOM      2  O   UNL     1      -4.437  -1.546  23.958  0.00  0.00    -0.349 OA
ENDBRANCH   3   2
ENDBRANCH   4   3
ENDBRANCH   5   4
ENDBRANCH   6   5
ENDBRANCH  12   7
TORSDOF 6
ENDMDL
MODEL 5
REMARK VINA RESULT:      -9.4      1.440      2.830
REMARK  Name = 
REMARK  6 active torsions:
REMARK  status: ('A' for Active; 'I' for Inactive)
REMARK    1  A    between atoms: O_2  and  C_3
REMARK    2  A    between atoms: C_3  and  C_4
REMARK    3  A    between atoms: C_4  and  N_5
REMARK    4  A    between atoms: N_5  and  C_6
REMARK    5  A    between atoms: C_7  and  C_12
REMARK    6  A    between atoms: C_15  and  C_17
REMARK                            x       y       z     vdW  Elec       q    Type
REMARK                         _______ _______ _______ _____ _____    ______ ____
ROOT
ATOM     12  C   UNL     1      -2.287   2.220  24.704  0.00  0.00    +0.206 A 
ATOM     13  N   UNL     1      -2.432   1.985  23.927  0.00  0.00    -0.056 NA
ATOM     14  O   UNL     1      -2.500   1.163  23.917  0.00  0.00    -0.335 OA
ATOM     15  C   UNL     1      -2.398   0.890  24.690  0.00  0.00    +0.255 A 
ATOM     16  N   UNL     1      -2.266   1.544  25.175  0.00  0.00    -0.189 NA
ENDROOT
BRANCH  15  17
ATOM     17  C   UNL     1      -2.422   0.102  24.932  0.00  0.00    +0.155 C 
ATOM     18  C   UNL     1      -3.041  -0.262  25.337  0.00  0.00    +0.031 C 
ATOM     19  C   UNL     1      -2.833  -1.050  25.467  0.00  0.00    +0.024 C 
ATOM     20  C   UNL     1      -2.085  -1.172  25.141  0.00  0.00    +0.094 C 
ATOM     21  N   UNL     1      -1.831  -0.461  24.811  0.00  0.00    -0.271 N 
ATOM     22  C   UNL     1      -1.112  -0.333  24.426  0.00  0.00    +0.221 A 
ATOM     23  N   UNL     1      -0.572  -0.953  24.346  0.00  0.00    -0.212 NA
ATOM     24  C   UNL     1       0.147  -0.825  23.962  0.00  0.00    +0.103 A 
ATOM     25  C   UNL     1       0.326  -0.079  23.658  0.00  0.00    +0.041 A 
ATOM     26  C   UNL     1      -0.214   0.539  23.738  0.00  0.00    +0.103 A 
ATOM     27  N   UNL     1      -0.933   0.412  24.122  0.00  0.00    -0.212 NA
ENDBRANCH  15  17
BRANCH  12   7
ATOM      6  C   UNL     1      -2.834   3.448  25.190  0.00  0.00    +0.151 A 
ATOM      7  C   UNL     1      -2.182   2.996  24.964  0.00  0.00    +0.072 A 
ATOM      8  C   UNL     1      -1.423   3.321  24.999  0.00  0.00    +0.008 A 
ATOM      9  C   UNL     1      -1.318   4.096  25.259  0.00  0.00    +0.021 A 
ATOM     10  C   UNL     1      -1.971   4.548  25.485  0.00  0.00    +0.100 A 
ATOM     11  N   UNL     1      -2.728   4.224  25.450  0.00  0.00    -0.228 NA
BRANCH   6   5
ATOM      5  N   UNL     1      -3.592   3.123  25.156  0.00  0.00    -0.218 NA
BRANCH   5   4
ATOM      4  C   UNL     1      -4.221   3.506  25.527  0.00  0.00    +0.146 C 
BRANCH   4   3
ATOM      3  C   UNL     1      -4.995   3.250  25.395  0.00  0.00    +0.166 C 
BRANCH   3   2
ATOM      1  C   UNL     1      -6.037   2.404  25.884  0.00  0.00    +0.174 C 
ATOM      2  O   UNL     1      -5.446   2.964  26.023  0.00  0.00    -0.349 OA
ENDBRANCH   3   2
ENDBRANCH   4   3
ENDBRANCH   5   4
ENDBRANCH   6   5
ENDBRANCH  12   7
TORSDOF 6
ENDMDL
MODEL 6
REMARK VINA RESULT:      -9.3      1.482      2.715
REMARK  Name = 
REMARK  6 active torsions:
REMARK  status: ('A' for Active; 'I' for Inactive)
REMARK    1  A    between atoms: O_2  and  C_3
REMARK    2  A    between atoms: C_3  and  C_4
REMARK    3  A    between atoms: C_4  and  N_5
REMARK    4  A    between atoms: N_5  and  C_6
REMARK    5  A    between atoms: C_7  and  C_12
REMARK    6  A    between atoms: C_15  and  C_17
REMARK                            x       y       z     vdW  Elec       q    Type
REMARK                         _______ _______ _______ _____ _____    ______ ____
ROOT
ATOM     12  C   UNL     1      -3.360   0.772  24.272  0.00  0.00    +0.206 A 
ATOM     13  N   UNL     1      -3.218   0.646  25.074  0.00  0.00    -0.056 NA
ATOM     14  O   UNL     1      -3.247  -0.166  25.215  0.00  0.00    -0.335 OA
ATOM     15  C   UNL     1      -3.408  -0.542  24.497  0.00  0.00    +0.255 A 
ATOM     16  N   UNL     1      -3.478   0.037  23.916  0.00  0.00    -0.189 NA
ENDROOT
BRANCH  15  17
ATOM     17  C   UNL     1      -3.484  -1.356  24.385  0.00  0.00    +0.155 C 
ATOM     18  C   UNL     1      -4.174  -1.753  24.169  0.00  0.00    +0.031 C 
ATOM     19  C   UNL     1      -3.999  -2.558  24.119  0.00  0.00    +0.024 C 
ATOM     20  C   UNL     1      -3.202  -2.658  24.304  0.00  0.00    +0.094 C 
ATOM     21  N   UNL     1      -2.883  -1.916  24.468  0.00  0.00    -0.271 N 
ATOM     22  C   UNL     1      -2.101  -1.758  24.678  0.00  0.00    +0.221 A 
ATOM     23  N   UNL     1      -1.559  -2.378  24.740  0.00  0.00    -0.212 NA
ATOM     24  C   UNL     1      -0.776  -2.221  24.951  0.00  0.00    +0.103 A 
ATOM     25  C   UNL     1      -0.536  -1.445  25.099  0.00  0.00    +0.041 A 
ATOM     26  C   UNL     1      -1.078  -0.827  25.037  0.00  0.00    +0.103 A 
ATOM     27  N   UNL     1      -1.861  -0.984  24.827  0.00  0.00    -0.212 NA
ENDBRANCH  15  17
BRANCH  12   7
ATOM      6  C   UNL     1      -3.982   2.043  24.067  0.00  0.00    +0.151 A 
ATOM      7  C   UNL     1      -3.382   1.504  23.892  0.00  0.00    +0.072 A 
ATOM      8  C   UNL     1      -2.803   1.698  23.337  0.00  0.00    +0.008 A 
ATOM      9  C   UNL     1      -2.824   2.430  22.957  0.00  0.00    +0.021 A 
ATOM     10  C   UNL     1      -3.425   2.968  23.133  0.00  0.00    +0.100 A 
ATOM     11  N   UNL     1      -4.003   2.775  23.687  0.00  0.00    -0.228 NA
BRANCH   6   5
ATOM      5  N   UNL     1      -4.561   1.848  24.623  0.00  0.00    -0.218 NA
BRANCH   5   4
ATOM      4  C   UNL     1      -5.116   2.413  24.853  0.00  0.00    +0.146 C 
BRANCH   4   3
ATOM      3  C   UNL     1      -5.785   2.183  25.280  0.00  0.00    +0.166 C 
BRANCH   3   2
ATOM      1  C   UNL     1      -6.439   2.085  26.546  0.00  0.00    +0.174 C 
ATOM      2  O   UNL     1      -5.898   2.460  26.049  0.00  0.00    -0.349 OA
ENDBRANCH   3   2
ENDBRANCH   4   3
ENDBRANCH   5   4
ENDBRANCH   6   5
ENDBRANCH  12   7
TORSDOF 6
ENDMDL
MODEL 7
REMARK VINA RESULT:      -9.3      1.592      5.253
REMARK  Name = 
REMARK  6 active torsions:
REMARK  status: ('A' for Active; 'I' for Inactive)
REMARK    1  A    between atoms: O_2  and  C_3
REMARK    2  A    between atoms: C_3  and  C_4
REMARK    3  A    between atoms: C_4  and  N_5
REMARK    4  A    between atoms: N_5  and  C_6
REMARK    5  A    between atoms: C_7  and  C_12
REMARK    6  A    between atoms: C_15  and  C_17
REMARK                            x       y       z     vdW  Elec       q    Type
REMARK                         _______ _______ _______ _____ _____    ______ ____
ROOT
ATOM     12  C   UNL     1      -1.217   1.016  24.647  0.00  0.00    +0.206 A 
ATOM     13  N   UNL     1      -1.236   1.193  25.452  0.00  0.00    -0.056 NA
ATOM     14  O   UNL     1      -1.871   1.700  25.587  0.00  0.00    -0.335 OA
ATOM     15  C   UNL     1      -2.247   1.837  24.864  0.00  0.00    +0.255 A 
ATOM     16  N   UNL     1      -1.842   1.413  24.284  0.00  0.00    -0.189 NA
ENDROOT
BRANCH  15  17
ATOM     17  C   UNL     1      -2.910   2.313  24.745  0.00  0.00    +0.155 C 
ATOM     18  C   UNL     1      -3.673   2.049  24.578  0.00  0.00    +0.031 C 
ATOM     19  C   UNL     1      -4.160   2.711  24.502  0.00  0.00    +0.024 C 
ATOM     20  C   UNL     1      -3.697   3.383  24.622  0.00  0.00    +0.094 C 
ATOM     21  N   UNL     1      -2.925   3.138  24.771  0.00  0.00    -0.271 N 
ATOM     22  C   UNL     1      -2.279   3.629  24.922  0.00  0.00    +0.221 A 
ATOM     23  N   UNL     1      -2.379   4.449  24.931  0.00  0.00    -0.212 NA
ATOM     24  C   UNL     1      -1.734   4.941  25.081  0.00  0.00    +0.103 A 
ATOM     25  C   UNL     1      -0.989   4.614  25.222  0.00  0.00    +0.041 A 
ATOM     26  C   UNL     1      -0.890   3.795  25.213  0.00  0.00    +0.103 A 
ATOM     27  N   UNL     1      -1.536   3.303  25.063  0.00  0.00    -0.212 NA
ENDBRANCH  15  17
BRANCH  12   7
ATOM      6  C   UNL     1      -0.774  -0.292  24.279  0.00  0.00    +0.151 A 
ATOM      7  C   UNL     1      -0.670   0.526  24.270  0.00  0.00    +0.072 A 
ATOM      8  C   UNL     1      -0.018   0.855  23.885  0.00  0.00    +0.008 A 
ATOM      9  C   UNL     1       0.529   0.366  23.509  0.00  0.00    +0.021 A 
ATOM     10  C   UNL     1       0.424  -0.453  23.518  0.00  0.00    +0.100 A 
ATOM     11  N   UNL     1      -0.226  -0.782  23.902  0.00  0.00    -0.228 NA
BRANCH   6   5
ATOM      5  N   UNL     1      -1.426  -0.621  24.664  0.00  0.00    -0.218 NA
BRANCH   5   4
ATOM      4  C   UNL     1      -1.587  -1.426  24.586  0.00  0.00    +0.146 C 
BRANCH   4   3
ATOM      3  C   UNL     1      -2.249  -1.752  24.956  0.00  0.00    +0.166 C 
BRANCH   3   2
ATOM      1  C   UNL     1      -3.379  -2.624  24.878  0.00  0.00    +0.174 C 
ATOM      2  O   UNL     1      -2.620  -2.413  24.630  0.00  0.00    -0.349 OA
ENDBRANCH   3   2
ENDBRANCH   4   3
ENDBRANCH   5   4
ENDBRANCH   6   5
ENDBRANCH  12   7
TORSDOF 6
ENDMDL
MODEL 8
REMARK VINA RESULT:      -9.0      1.280      4.214
REMARK  Name = 
REMARK  6 active torsions:
REMARK  status: ('A' for Active; 'I' for Inactive)
REMARK    1  A    between atoms: O_2  and  C_3
REMARK    2  A    between atoms: C_3  and  C_4
REMARK    3  A    between atoms: C_4  and  N_5
REMARK    4  A    between atoms: N_5  and  C_6
REMARK    5  A    between atoms: C_7  and  C_12
REMARK    6  A    between atoms: C_15  and  C_17
REMARK                            x       y       z     vdW  Elec       q    Type
REMARK                         _______ _______ _______ _____ _____    ______ ____
ROOT
ATOM     12  C   UNL     1      -3.937  -0.212  24.494  0.00  0.00    +0.206 A 
ATOM     13  N   UNL     1      -3.957   0.253  23.813  0.00  0.00    -0.056 NA
ATOM     14  O   UNL     1      -4.380   0.939  23.985  0.00  0.00    -0.335 OA
ATOM     15  C   UNL     1      -4.622   0.899  24.773  0.00  0.00    +0.255 A 
ATOM     16  N   UNL     1      -4.348   0.187  25.087  0.00  0.00    -0.189 NA
ENDROOT
BRANCH  15  17
ATOM     17  C   UNL     1      -5.061   1.470  25.175  0.00  0.00    +0.155 C 
ATOM     18  C   UNL     1      -5.710   1.329  25.663  0.00  0.00    +0.031 C 
ATOM     19  C   UNL     1      -5.977   2.057  25.948  0.00  0.00    +0.024 C 
ATOM     20  C   UNL     1      -5.492   2.646  25.636  0.00  0.00    +0.094 C 
ATOM     21  N   UNL     1      -4.925   2.285  25.159  0.00  0.00    -0.271 N 
ATOM     22  C   UNL     1      -4.328   2.668  24.738  0.00  0.00    +0.221 A 
ATOM     23  N   UNL     1      -4.261   3.490  24.776  0.00  0.00    -0.212 NA
ATOM     24  C   UNL     1      -3.664   3.874  24.355  0.00  0.00    +0.103 A 
ATOM     25  C   UNL     1      -3.134   3.436  23.897  0.00  0.00    +0.041 A 
ATOM     26  C   UNL     1      -3.202   2.615  23.861  0.00  0.00    +0.103 A 
ATOM     27  N   UNL     1      -3.799   2.231  24.281  0.00  0.00    -0.212 NA
ENDBRANCH  15  17
BRANCH  12   7
ATOM      6  C   UNL     1      -2.799  -0.997  24.857  0.00  0.00    +0.151 A 
ATOM      7  C   UNL     1      -3.570  -0.947  24.569  0.00  0.00    +0.072 A 
ATOM      8  C   UNL     1      -3.976  -1.635  24.355  0.00  0.00    +0.008 A 
ATOM      9  C   UNL     1      -3.609  -2.370  24.430  0.00  0.00    +0.021 A 
ATOM     10  C   UNL     1      -2.837  -2.418  24.718  0.00  0.00    +0.100 A 
ATOM     11  N   UNL     1      -2.432  -1.732  24.931  0.00  0.00    -0.228 NA
BRANCH   6   5
ATOM      5  N   UNL     1      -2.394  -0.310  25.070  0.00  0.00    -0.218 NA
BRANCH   5   4
ATOM      4  C   UNL     1      -1.587  -0.343  25.236  0.00  0.00    +0.146 C 
BRANCH   4   3
ATOM      3  C   UNL     1      -1.224   0.278  25.643  0.00  0.00    +0.166 C 
BRANCH   3   2
ATOM      1  C   UNL     1      -0.390   1.436  25.580  0.00  0.00    +0.174 C 
ATOM      2  O   UNL     1      -0.604   0.693  25.292  0.00  0.00    -0.349 OA
ENDBRANCH   3   2
ENDBRANCH   4   3
ENDBRANCH   5   4
ENDBRANCH   6   5
ENDBRANCH  12   7
TORSDOF 6
ENDMDL
