MODEL 1
REMARK VINA RESULT:     -11.3      0.000      0.000
REMARK  Name = 
REMARK  6 active torsions:
REMARK  status: ('A' for Active; 'I' for Inactive)
REMARK    1  A    between atoms: N_2  and  C_3
REMARK    2  A    between atoms: C_3  and  C_4
REMARK    3  A    between atoms: C_6  and  C_8
REMARK    4  A    between atoms: C_15  and  C_16
REMARK    5  A    between atoms: C_16  and  N_17
REMARK    6  A    between atoms: C_19  and  C_22
REMARK                            x       y       z     vdW  Elec       q    Type
REMARK                         _______ _______ _______ _____ _____    ______ ____
ROOT
ATOM      8  C   UNL     1      -3.540   3.003  24.918  0.00  0.00    +0.093 C 
ATOM      9  C   UNL     1      -3.361   2.613  25.567  0.00  0.00    +0.081 C 
ATOM     10  N   UNL     1      -3.890   2.369  24.982  0.00  0.00    -0.272 NA
ATOM     11  C   UNL     1      -3.904   3.116  24.247  0.00  0.00    +0.072 C 
ATOM     12  C   UNL     1      -4.127   3.350  23.679  0.00  0.00    +0.018 C 
ATOM     13  C   UNL     1      -4.060   2.757  24.348  0.00  0.00    +0.013 C 
ATOM     14  C   UNL     1      -4.553   2.035  24.275  0.00  0.00    +0.019 C 
ATOM     15  C   UNL     1      -4.405   1.621  24.899  0.00  0.00    +0.082 C 
ENDROOT
BRANCH   8   6
ATOM      1  C   UNL     1      -2.020   3.258  25.509  0.00  0.00    +0.115 C 
ATOM      2  N   UNL     1      -2.408   3.858  25.095  0.00  0.00    -0.274 N 
ATOM      6  C   UNL     1      -3.167   3.731  24.800  0.00  0.00    +0.227 C 
ATOM      7  O   UNL     1      -3.555   4.330  24.386  0.00  0.00    -0.275 OA
BRANCH   2   3
ATOM      3  C   UNL     1      -2.036   4.584  24.977  0.00  0.00    +0.120 C 
BRANCH   3   4
ATOM      4  C   UNL     1      -1.239   4.676  25.168  0.00  0.00    -0.005 C 
ATOM      5  C   UNL     1      -0.825   5.339  24.904  0.00  0.00    -0.003 C 
ENDBRANCH   3   4
ENDBRANCH   2   3
ENDBRANCH   8   6
BRANCH  15  16
ATOM     16  C   UNL     1      -4.598   0.913  25.275  0.00  0.00    +0.145 C 
BRANCH  16  17
ATOM     17  N   UNL     1      -4.440   0.193  24.907  0.00  0.00    -0.229 N 
ATOM     18  C   UNL     1      -3.835  -0.331  25.107  0.00  0.00    +0.118 A 
ATOM     19  C   UNL     1      -3.880  -0.979  24.596  0.00  0.00    +0.123 A 
ATOM     20  N   UNL     1      -4.514  -0.854  24.083  0.00  0.00    -0.129 NA
ATOM     21  N   UNL     1      -4.859  -0.131  24.274  0.00  0.00    -0.064 NA
BRANCH  19  22
ATOM     22  C   UNL     1      -3.380  -1.635  24.600  0.00  0.00    +0.024 A 
ATOM     23  C   UNL     1      -2.562  -1.530  24.596  0.00  0.00    +0.044 A 
ATOM     24  C   UNL     1      -2.062  -2.186  24.600  0.00  0.00    +0.196 A 
ATOM     25  O   UNL     1      -1.244  -2.081  24.596  0.00  0.00    -0.287 OA
ATOM     26  C   UNL     1      -2.380  -2.947  24.608  0.00  0.00    +0.042 A 
ATOM     27  C   UNL     1      -3.198  -3.052  24.612  0.00  0.00    +0.003 A 
ATOM     28  C   UNL     1      -3.698  -2.396  24.608  0.00  0.00    +0.002 A 
ENDBRANCH  19  22
ENDBRANCH  16  17
ENDBRANCH  15  16
TORSDOF 6
ENDMDL
MODEL 2
REMARK VINA RESULT:     -10.8      2.313      2.832
REMARK  Name = 
REMARK  6 active torsions:
REMARK  status: ('A' for Active; 'I' for Inactive)
REMARK    1  A    between atoms: N_2  and  C_3
REMARK    2  A    between atoms: C_3  and  C_4
REMARK    3  A    between atoms: C_6  and  C_8
REMARK    4  A    between atoms: C_15  and  C_16
REMARK    5  A    between atoms: C_16  and  N_17
REMARK    6  A    between atoms: C_19  and  C_22
REMARK                            x       y       z     vdW  Elec       q    Type
REMARK                         _______ _______ _______ _____ _____    ______ ____
ROOT
ATOM      8  C   UNL     1      -0.642   2.242  25.140  0.00  0.00    +0.093 C 
ATOM      9  C   UNL     1      -1.087   2.109  25.764  0.00  0.00    +0.081 C 
ATOM     10  N   UNL     1      -0.703   1.538  25.308  0.00  0.00    -0.272 NA
ATOM     11  C   UNL     1      -0.190   2.044  24.547  0.00  0.00    +0.072 C 
ATOM     12  C   UNL     1       0.197   2.036  24.020  0.00  0.00    +0.018 C 
ATOM     13  C   UNL     1      -0.268   1.677  24.698  0.00  0.00    +0.013 C 
ATOM     14  C   UNL     1      -0.240   0.802  24.764  0.00  0.00    +0.019 C 
ATOM     15  C   UNL     1      -0.670   0.628  25.371  0.00  0.00    +0.082 C 
ENDROOT
BRANCH   8   6
ATOM      1  C   UNL     1      -1.650   3.411  25.726  0.00  0.00    +0.115 C 
ATOM      2  N   UNL     1      -1.045   3.612  25.202  0.00  0.00    -0.274 N 
ATOM      6  C   UNL     1      -0.541   3.029  24.909  0.00  0.00    +0.227 C 
ATOM      7  O   UNL     1       0.064   3.231  24.385  0.00  0.00    -0.275 OA
BRANCH   2   3
ATOM      3  C   UNL     1      -0.944   4.398  24.971  0.00  0.00    +0.120 C 
BRANCH   3   4
ATOM      4  C   UNL     1      -1.482   4.973  25.218  0.00  0.00    -0.005 C 
ATOM      5  C   UNL     1      -1.423   5.743  24.929  0.00  0.00    -0.003 C 
ENDBRANCH   3   4
ENDBRANCH   2   3
ENDBRANCH   8   6
BRANCH  15  16
ATOM     16  C   UNL     1      -0.943  -0.008  25.819  0.00  0.00    +0.145 C 
BRANCH  16  17
ATOM     17  N   UNL     1      -1.260  -0.671  25.444  0.00  0.00    -0.229 N 
ATOM     18  C   UNL     1      -2.057  -0.794  25.271  0.00  0.00    +0.118 A 
ATOM     19  C   UNL     1      -2.126  -1.527  24.896  0.00  0.00    +0.123 A 
ATOM     20  N   UNL     1      -1.371  -1.855  24.840  0.00  0.00    -0.129 NA
ATOM     21  N   UNL     1      -0.837  -1.327  25.178  0.00  0.00    -0.064 NA
BRANCH  19  22
ATOM     22  C   UNL     1      -2.826  -1.869  24.627  0.00  0.00    +0.024 A 
ATOM     23  C   UNL     1      -3.429  -1.394  24.325  0.00  0.00    +0.044 A 
ATOM     24  C   UNL     1      -4.129  -1.736  24.055  0.00  0.00    +0.196 A 
ATOM     25  O   UNL     1      -4.732  -1.261  23.753  0.00  0.00    -0.287 OA
ATOM     26  C   UNL     1      -4.227  -2.555  24.089  0.00  0.00    +0.042 A 
ATOM     27  C   UNL     1      -3.624  -3.030  24.391  0.00  0.00    +0.003 A 
ATOM     28  C   UNL     1      -2.924  -2.688  24.660  0.00  0.00    +0.002 A 
ENDBRANCH  19  22
ENDBRANCH  16  17
ENDBRANCH  15  16
TORSDOF 6
ENDMDL
MODEL 3
REMARK VINA RESULT:     -10.6      1.920      5.909
REMARK  Name = 
REMARK  6 active torsions:
REMARK  status: ('A' for Active; 'I' for Inactive)
REMARK    1  A    between atoms: N_2  and  C_3
REMARK    2  A    between atoms: C_3  and  C_4
REMARK    3  A    between atoms: C_6  and  C_8
REMARK    4  A    between atoms: C_15  and  C_16
REMARK    5  A    between atoms: C_16  and  N_17
REMARK    6  A    between atoms: C_19  and  C_22
REMARK                            x       y       z     vdW  Elec       q    Type
REMARK                         _______ _______ _______ _____ _____    ______ ____
ROOT
ATOM      8  C   UNL     1      -1.472  -0.822  24.451  0.00  0.00    +0.093 C 
ATOM      9  C   UNL     1      -1.712  -0.302  23.924  0.00  0.00    +0.081 C 
ATOM     10  N   UNL     1      -1.053  -0.229  24.416  0.00  0.00    -0.272 NA
ATOM     11  C   UNL     1      -1.009  -1.096  25.004  0.00  0.00    +0.072 C 
ATOM     12  C   UNL     1      -0.719  -1.453  25.468  0.00  0.00    +0.018 C 
ATOM     13  C   UNL     1      -0.824  -0.743  24.930  0.00  0.00    +0.013 C 
ATOM     14  C   UNL     1      -0.227  -0.105  25.012  0.00  0.00    +0.019 C 
ATOM     15  C   UNL     1      -0.429   0.430  24.506  0.00  0.00    +0.082 C 
ENDROOT
BRANCH   8   6
ATOM      1  C   UNL     1      -3.100  -0.793  24.177  0.00  0.00    +0.115 C 
ATOM      2  N   UNL     1      -2.730  -1.499  24.391  0.00  0.00    -0.274 N 
ATOM      6  C   UNL     1      -1.917  -1.514  24.528  0.00  0.00    +0.227 C 
ATOM      7  O   UNL     1      -1.547  -2.220  24.742  0.00  0.00    -0.275 OA
BRANCH   2   3
ATOM      3  C   UNL     1      -3.173  -2.189  24.469  0.00  0.00    +0.120 C 
BRANCH   3   4
ATOM      4  C   UNL     1      -3.961  -2.204  24.222  0.00  0.00    -0.005 C 
ATOM      5  C   UNL     1      -4.300  -2.911  23.966  0.00  0.00    -0.003 C 
ENDBRANCH   3   4
ENDBRANCH   2   3
ENDBRANCH   8   6
BRANCH  15  16
ATOM     16  C   UNL     1      -0.210   1.170  24.214  0.00  0.00    +0.145 C 
BRANCH  16  17
ATOM     17  N   UNL     1      -0.296   1.842  24.685  0.00  0.00    -0.229 N 
ATOM     18  C   UNL     1      -0.857   2.437  24.580  0.00  0.00    +0.118 A 
ATOM     19  C   UNL     1      -0.744   3.000  25.174  0.00  0.00    +0.123 A 
ATOM     20  N   UNL     1      -0.113   2.751  25.644  0.00  0.00    -0.129 NA
ATOM     21  N   UNL     1       0.163   2.035  25.342  0.00  0.00    -0.064 NA
BRANCH  19  22
ATOM     22  C   UNL     1      -1.184   3.690  25.278  0.00  0.00    +0.024 A 
ATOM     23  C   UNL     1      -1.897   3.666  25.692  0.00  0.00    +0.044 A 
ATOM     24  C   UNL     1      -2.338   4.355  25.797  0.00  0.00    +0.196 A 
ATOM     25  O   UNL     1      -3.050   4.331  26.210  0.00  0.00    -0.287 OA
ATOM     26  C   UNL     1      -2.064   5.069  25.487  0.00  0.00    +0.042 A 
ATOM     27  C   UNL     1      -1.351   5.094  25.073  0.00  0.00    +0.003 A 
ATOM     28  C   UNL     1      -0.911   4.404  24.969  0.00  0.00    +0.002 A 
ENDBRANCH  19  22
ENDBRANCH  16  17
ENDBRANCH  15  16
TORSDOF 6
ENDMDL
MODEL 4
REMARK VINA RESULT:     -10.4      1.214      5.086
REMARK  Name = 
REMARK  6 active torsions:
REMARK  status: ('A' for Active; 'I' for Inactive)
REMARK    1  A    between atoms: N_2  and  C_3
REMARK    2  A    between atoms: C_3  and  C_4
REMARK    3  A    between atoms: C_6  and  C_8
REMARK    4  A    between atoms: C_15  and  C_16
REMARK    5  A    between atoms: C_16  and  N_17
REMARK    6  A    between atoms: C_19  and  C_22
REMARK                            x       y       z     vdW  Elec       q    Type
REMARK                         _______ _______ _______ _____ _____    ______ ____
ROOT
ATOM      8  C   UNL     1      -3.842   0.105  24.412  0.00  0.00    +0.093 C 
ATOM      9  C   UNL     1      -3.477   0.530  23.872  0.00  0.00    +0.081 C 
ATOM     10  N   UNL     1      -4.037   0.805  24.413  0.00  0.00    -0.272 NA
ATOM     11  C   UNL     1      -4.332  -0.015  24.997  0.00  0.00    +0.072 C 
ATOM     12  C   UNL     1      -4.693  -0.268  25.479  0.00  0.00    +0.018 C 
ATOM     13  C   UNL     1      -4.390   0.381  24.940  0.00  0.00    +0.013 C 
ATOM     14  C   UNL     1      -4.729   1.180  25.071  0.00  0.00    +0.019 C 
ATOM     15  C   UNL     1      -4.393   1.633  24.556  0.00  0.00    +0.082 C 
ENDROOT
BRANCH   8   6
ATOM      1  C   UNL     1      -2.265  -0.378  24.356  0.00  0.00    +0.115 C 
ATOM      2  N   UNL     1      -2.866  -0.939  24.423  0.00  0.00    -0.274 N 
ATOM      6  C   UNL     1      -3.654  -0.699  24.450  0.00  0.00    +0.227 C 
ATOM      7  O   UNL     1      -4.255  -1.260  24.517  0.00  0.00    -0.275 OA
BRANCH   2   3
ATOM      3  C   UNL     1      -2.679  -1.742  24.461  0.00  0.00    +0.120 C 
BRANCH   3   4
ATOM      4  C   UNL     1      -1.889  -1.981  24.469  0.00  0.00    -0.005 C 
ATOM      5  C   UNL     1      -1.701  -2.784  24.442  0.00  0.00    -0.003 C 
ENDBRANCH   3   4
ENDBRANCH   2   3
ENDBRANCH   8   6
BRANCH  15  16
ATOM     16  C   UNL     1      -4.368   2.412  24.286  0.00  0.00    +0.145 C 
BRANCH  16  17
ATOM     17  N   UNL     1      -3.925   2.976  24.694  0.00  0.00    -0.229 N 
ATOM     18  C   UNL     1      -3.160   3.219  24.505  0.00  0.00    +0.118 A 
ATOM     19  C   UNL     1      -2.931   3.789  25.057  0.00  0.00    +0.123 A 
ATOM     20  N   UNL     1      -3.556   3.897  25.585  0.00  0.00    -0.129 NA
ATOM     21  N   UNL     1      -4.169   3.395  25.361  0.00  0.00    -0.064 NA
BRANCH  19  22
ATOM     22  C   UNL     1      -2.206   4.182  25.076  0.00  0.00    +0.024 A 
ATOM     23  C   UNL     1      -1.504   3.750  25.134  0.00  0.00    +0.044 A 
ATOM     24  C   UNL     1      -0.779   4.143  25.154  0.00  0.00    +0.196 A 
ATOM     25  O   UNL     1      -0.079   3.712  25.212  0.00  0.00    -0.287 OA
ATOM     26  C   UNL     1      -0.755   4.966  25.115  0.00  0.00    +0.042 A 
ATOM     27  C   UNL     1      -1.456   5.397  25.057  0.00  0.00    +0.003 A 
ATOM     28  C   UNL     1      -2.181   5.005  25.038  0.00  0.00    +0.002 A 
ENDBRANCH  19  22
ENDBRANCH  16  17
ENDBRANCH  15  16
TORSDOF 6
ENDMDL
MODEL 5
REMARK VINA RESULT:      -9.9      1.467      1.909
REMARK  Name = 
REMARK  6 active torsions:
REMARK  status: ('A' for Active; 'I' for Inactive)
REMARK    1  A    between atoms: N_2  and  C_3
REMARK    2  A    between atoms: C_3  and  C_4
REMARK    3  A    between atoms: C_6  and  C_8
REMARK    4  A    between atoms: C_15  and  C_16
REMARK    5  A    between atoms: C_16  and  N_17
REMARK    6  A    between atoms: C_19  and  C_22
REMARK                            x       y       z     vdW  Elec       q    Type
REMARK                         _______ _______ _______ _____ _____    ______ ____
ROOT
ATOM      8  C   UNL     1      -1.962   2.697  25.097  0.00  0.00    +0.093 C 
ATOM      9  C   UNL     1      -1.776   2.103  24.630  0.00  0.00    +0.081 C 
ATOM     10  N   UNL     1      -2.530   2.422  24.735  0.00  0.00    -0.272 NA
ATOM     11  C   UNL     1      -2.441   3.206  25.426  0.00  0.00    +0.072 C 
ATOM     12  C   UNL     1      -2.710   3.686  25.777  0.00  0.00    +0.018 C 
ATOM     13  C   UNL     1      -2.705   3.005  25.195  0.00  0.00    +0.013 C 
ATOM     14  C   UNL     1      -3.480   2.793  24.841  0.00  0.00    +0.019 C 
ATOM     15  C   UNL     1      -3.339   2.208  24.372  0.00  0.00    +0.082 C 
ENDROOT
BRANCH   8   6
ATOM      1  C   UNL     1      -0.729   1.766  25.676  0.00  0.00    +0.115 C 
ATOM      2  N   UNL     1      -0.735   2.579  25.819  0.00  0.00    -0.274 N 
ATOM      6  C   UNL     1      -1.350   3.044  25.530  0.00  0.00    +0.227 C 
ATOM      7  O   UNL     1      -1.356   3.857  25.672  0.00  0.00    -0.275 OA
BRANCH   2   3
ATOM      3  C   UNL     1      -0.124   2.926  26.251  0.00  0.00    +0.120 C 
BRANCH   3   4
ATOM      4  C   UNL     1       0.442   2.452  26.620  0.00  0.00    -0.005 C 
ATOM      5  C   UNL     1       0.847   2.732  27.282  0.00  0.00    -0.003 C 
ENDBRANCH   3   4
ENDBRANCH   2   3
ENDBRANCH   8   6
BRANCH  15  16
ATOM     16  C   UNL     1      -3.704   1.688  23.846  0.00  0.00    +0.145 C 
BRANCH  16  17
ATOM     17  N   UNL     1      -4.007   0.971  24.118  0.00  0.00    -0.229 N 
ATOM     18  C   UNL     1      -3.670   0.227  24.000  0.00  0.00    +0.118 A 
ATOM     19  C   UNL     1      -4.156  -0.333  24.365  0.00  0.00    +0.123 A 
ATOM     20  N   UNL     1      -4.791   0.067  24.708  0.00  0.00    -0.129 NA
ATOM     21  N   UNL     1      -4.699   0.871  24.555  0.00  0.00    -0.064 NA
BRANCH  19  22
ATOM     22  C   UNL     1      -4.027  -1.147  24.383  0.00  0.00    +0.024 A 
ATOM     23  C   UNL     1      -3.632  -1.489  25.022  0.00  0.00    +0.044 A 
ATOM     24  C   UNL     1      -3.503  -2.303  25.040  0.00  0.00    +0.196 A 
ATOM     25  O   UNL     1      -3.108  -2.644  25.678  0.00  0.00    -0.287 OA
ATOM     26  C   UNL     1      -3.771  -2.776  24.420  0.00  0.00    +0.042 A 
ATOM     27  C   UNL     1      -4.166  -2.436  23.781  0.00  0.00    +0.003 A 
ATOM     28  C   UNL     1      -4.294  -1.621  23.763  0.00  0.00    +0.002 A 
ENDBRANCH  19  22
ENDBRANCH  16  17
ENDBRANCH  15  16
TORSDOF 6
ENDMDL
MODEL 6
REMARK VINA RESULT:      -9.8      1.770      2.685
REMARK  Name = 
REMARK  6 active torsions:
REMARK  status: ('A' for Active; 'I' for Inactive)
REMARK    1  A    between atoms: N_2  and  C_3
REMARK    2  A    between atoms: C_3  and  C_4
REMARK    3  A    between atoms: C_6  and  C_8
REMARK    4  A    between atoms: C_15  and  C_16
REMARK    5  A    between atoms: C_16  and  N_17
REMARK    6  A    between atoms: C_19  and  C_22
REMARK                            x       y       z     vdW  Elec       q    Type
REMARK                         _______ _______ _______ _____ _____    ______ ____
ROOT
ATOM      8  C   UNL     1      -2.545   2.932  24.894  0.00  0.00    +0.093 C 
ATOM      9  C   UNL     1      -2.755   2.448  24.321  0.00  0.00    +0.081 C 
ATOM     10  N   UNL     1      -2.028   2.454  24.713  0.00  0.00    -0.272 NA
ATOM     11  C   UNL     1      -2.066   3.222  25.425  0.00  0.00    +0.072 C 
ATOM     12  C   UNL     1      -1.786   3.568  25.903  0.00  0.00    +0.018 C 
ATOM     13  C   UNL     1      -1.830   2.931  25.273  0.00  0.00    +0.013 C 
ATOM     14  C   UNL     1      -1.114   2.432  25.179  0.00  0.00    +0.019 C 
ATOM     15  C   UNL     1      -1.280   1.939  24.620  0.00  0.00    +0.082 C 
ENDROOT
BRANCH   8   6
ATOM      1  C   UNL     1      -4.156   2.576  24.850  0.00  0.00    +0.115 C 
ATOM      2  N   UNL     1      -3.904   3.316  25.113  0.00  0.00    -0.274 N 
ATOM      6  C   UNL     1      -3.099   3.495  25.135  0.00  0.00    +0.227 C 
ATOM      7  O   UNL     1      -2.847   4.235  25.398  0.00  0.00    -0.275 OA
BRANCH   2   3
ATOM      3  C   UNL     1      -4.457   3.878  25.354  0.00  0.00    +0.120 C 
BRANCH   3   4
ATOM      4  C   UNL     1      -5.260   3.687  25.370  0.00  0.00    -0.005 C 
ATOM      5  C   UNL     1      -5.810   4.238  25.642  0.00  0.00    -0.003 C 
ENDBRANCH   3   4
ENDBRANCH   2   3
ENDBRANCH   8   6
BRANCH  15  16
ATOM     16  C   UNL     1      -0.968   1.310  24.188  0.00  0.00    +0.145 C 
BRANCH  16  17
ATOM     17  N   UNL     1      -1.009   0.542  24.486  0.00  0.00    -0.229 N 
ATOM     18  C   UNL     1      -1.596  -0.012  24.316  0.00  0.00    +0.118 A 
ATOM     19  C   UNL     1      -1.420  -0.703  24.732  0.00  0.00    +0.123 A 
ATOM     20  N   UNL     1      -0.726  -0.575  25.158  0.00  0.00    -0.129 NA
ATOM     21  N   UNL     1      -0.472   0.195  25.006  0.00  0.00    -0.064 NA
BRANCH  19  22
ATOM     22  C   UNL     1      -1.862  -1.400  24.723  0.00  0.00    +0.024 A 
ATOM     23  C   UNL     1      -2.609  -1.420  25.075  0.00  0.00    +0.044 A 
ATOM     24  C   UNL     1      -3.051  -2.116  25.066  0.00  0.00    +0.196 A 
ATOM     25  O   UNL     1      -3.797  -2.136  25.417  0.00  0.00    -0.287 OA
ATOM     26  C   UNL     1      -2.746  -2.793  24.705  0.00  0.00    +0.042 A 
ATOM     27  C   UNL     1      -2.000  -2.773  24.355  0.00  0.00    +0.003 A 
ATOM     28  C   UNL     1      -1.558  -2.077  24.364  0.00  0.00    +0.002 A 
ENDBRANCH  19  22
ENDBRANCH  16  17
ENDBRANCH  15  16
TORSDOF 6
ENDMDL
MODEL 7
REMARK VINA RESULT:      -9.6      2.894      4.598
REMARK  Name = 
REMARK  6 active torsions:
REMARK  status: ('A' for Active; 'I' for Inactive)
REMARK    1  A    between atoms: N_2  and  C_3
REMARK    2  A    between atoms: C_3  and  C_4
REMARK    3  A    between atoms: C_6  and  C_8
REMARK    4  A    between atoms: C_15  and  C_16
REMARK    5  A    between atoms: C_16  and  N_17
REMARK    6  A    between atoms: C_19  and  C_22
REMARK                            x       y       z     vdW  Elec       q    Type
REMARK                         _______ _______ _______ _____ _____    ______ ____
ROOT
ATOM      8  C   UNL     1      -0.430   2.455  24.652  0.00  0.00    +0.093 C 
ATOM      9  C   UNL     1      -0.903   2.656  24.068  0.00  0.00    +0.081 C 
ATOM     10  N   UNL     1      -0.932   2.946  24.840  0.00  0.00    -0.272 NA
ATOM     11  C   UNL     1      -0.163   2.475  25.376  0.00  0.00    +0.072 C 
ATOM     12  C   UNL     1       0.168   2.384  25.932  0.00  0.00    +0.018 C 
ATOM     13  C   UNL     1      -0.465   2.743  25.408  0.00  0.00    +0.013 C 
ATOM     14  C   UNL     1      -0.998   3.326  25.791  0.00  0.00    +0.019 C 
ATOM     15  C   UNL     1      -1.482   3.551  25.245  0.00  0.00    +0.082 C 
ENDROOT
BRANCH   8   6
ATOM      1  C   UNL     1      -0.739   1.210  23.614  0.00  0.00    +0.115 C 
ATOM      2  N   UNL     1       0.003   1.277  23.969  0.00  0.00    -0.274 N 
ATOM      6  C   UNL     1       0.158   1.898  24.488  0.00  0.00    +0.227 C 
ATOM      7  O   UNL     1       0.900   1.965  24.843  0.00  0.00    -0.275 OA
BRANCH   2   3
ATOM      3  C   UNL     1       0.590   0.721  23.805  0.00  0.00    +0.120 C 
BRANCH   3   4
ATOM      4  C   UNL     1       0.447   0.117  23.261  0.00  0.00    -0.005 C 
ATOM      5  C   UNL     1       1.077  -0.310  22.944  0.00  0.00    -0.003 C 
ENDBRANCH   3   4
ENDBRANCH   2   3
ENDBRANCH   8   6
BRANCH  15  16
ATOM     16  C   UNL     1      -2.124   4.049  25.105  0.00  0.00    +0.145 C 
BRANCH  16  17
ATOM     17  N   UNL     1      -2.865   3.865  25.417  0.00  0.00    -0.229 N 
ATOM     18  C   UNL     1      -3.416   3.350  25.085  0.00  0.00    +0.118 A 
ATOM     19  C   UNL     1      -4.077   3.331  25.579  0.00  0.00    +0.123 A 
ATOM     20  N   UNL     1      -3.933   3.835  26.216  0.00  0.00    -0.129 NA
ATOM     21  N   UNL     1      -3.184   4.165  26.116  0.00  0.00    -0.064 NA
BRANCH  19  22
ATOM     22  C   UNL     1      -4.761   2.886  25.457  0.00  0.00    +0.024 A 
ATOM     23  C   UNL     1      -4.707   2.118  25.161  0.00  0.00    +0.044 A 
ATOM     24  C   UNL     1      -5.391   1.673  25.039  0.00  0.00    +0.196 A 
ATOM     25  O   UNL     1      -5.336   0.905  24.744  0.00  0.00    -0.287 OA
ATOM     26  C   UNL     1      -6.129   1.997  25.214  0.00  0.00    +0.042 A 
ATOM     27  C   UNL     1      -6.184   2.765  25.509  0.00  0.00    +0.003 A 
ATOM     28  C   UNL     1      -5.500   3.209  25.631  0.00  0.00    +0.002 A 
ENDBRANCH  19  22
ENDBRANCH  16  17
ENDBRANCH  15  16
TORSDOF 6
ENDMDL
MODEL 8
REMARK VINA RESULT:      -9.6      2.263      3.806
REMARK  Name = 
REMARK  6 active torsions:
REMARK  status: ('A' for Active; 'I' for Inactive)
REMARK    1  A    between atoms: N_2  and  C_3
REMARK    2  A    between atoms: C_3  and  C_4
REMARK    3  A    between atoms: C_6  and  C_8
REMARK    4  A    between atoms: C_15  and  C_16
REMARK    5  A    between atoms: C_16  and  N_17
REMARK    6  A    between atoms: C_19  and  C_22
REMARK                            x       y       z     vdW  Elec       q    Type
REMARK                         _______ _______ _______ _____ _____    ______ ____
ROOT
ATOM      8  C   UNL     1      -3.314   3.452  25.103  0.00  0.00    +0.093 C 
ATOM      9  C   UNL     1      -3.115   3.161  24.410  0.00  0.00    +0.081 C 
ATOM     10  N   UNL     1      -2.603   3.503  24.960  0.00  0.00    -0.272 NA
ATOM     11  C   UNL     1      -3.182   3.792  25.784  0.00  0.00    +0.072 C 
ATOM     12  C   UNL     1      -3.232   4.062  26.377  0.00  0.00    +0.018 C 
ATOM     13  C   UNL     1      -2.805   3.787  25.638  0.00  0.00    +0.013 C 
ATOM     14  C   UNL     1      -1.938   3.922  25.619  0.00  0.00    +0.019 C 
ATOM     15  C   UNL     1      -1.702   3.647  24.947  0.00  0.00    +0.082 C 
ENDROOT
BRANCH   8   6
ATOM      1  C   UNL     1      -4.246   2.186  24.601  0.00  0.00    +0.115 C 
ATOM      2  N   UNL     1      -4.577   2.786  25.062  0.00  0.00    -0.274 N 
ATOM      6  C   UNL     1      -4.112   3.418  25.313  0.00  0.00    +0.227 C 
ATOM      7  O   UNL     1      -4.443   4.017  25.774  0.00  0.00    -0.275 OA
BRANCH   2   3
ATOM      3  C   UNL     1      -5.374   2.752  25.271  0.00  0.00    +0.120 C 
BRANCH   3   4
ATOM      4  C   UNL     1      -5.833   2.105  25.045  0.00  0.00    -0.005 C 
ATOM      5  C   UNL     1      -6.529   1.929  25.452  0.00  0.00    -0.003 C 
ENDBRANCH   3   4
ENDBRANCH   2   3
ENDBRANCH   8   6
BRANCH  15  16
ATOM     16  C   UNL     1      -1.028   3.541  24.484  0.00  0.00    +0.145 C 
BRANCH  16  17
ATOM     17  N   UNL     1      -0.565   2.864  24.575  0.00  0.00    -0.229 N 
ATOM     18  C   UNL     1      -0.636   2.167  24.140  0.00  0.00    +0.118 A 
ATOM     19  C   UNL     1      -0.065   1.638  24.414  0.00  0.00    +0.123 A 
ATOM     20  N   UNL     1       0.358   2.009  25.018  0.00  0.00    -0.129 NA
ATOM     21  N   UNL     1       0.049   2.766  25.117  0.00  0.00    -0.064 NA
BRANCH  19  22
ATOM     22  C   UNL     1       0.061   0.872  24.133  0.00  0.00    +0.024 A 
ATOM     23  C   UNL     1       0.609   0.738  23.531  0.00  0.00    +0.044 A 
ATOM     24  C   UNL     1       0.734  -0.027  23.250  0.00  0.00    +0.196 A 
ATOM     25  O   UNL     1       1.282  -0.161  22.649  0.00  0.00    -0.287 OA
ATOM     26  C   UNL     1       0.312  -0.658  23.572  0.00  0.00    +0.042 A 
ATOM     27  C   UNL     1      -0.236  -0.525  24.173  0.00  0.00    +0.003 A 
ATOM     28  C   UNL     1      -0.362   0.241  24.454  0.00  0.00    +0.002 A 
ENDBRANCH  19  22
ENDBRANCH  16  17
ENDBRANCH  15  16
TORSDOF 6
ENDMDL
