REMARK  Name = 
REMARK  9 active torsions:
REMARK  status: ('A' for Active; 'I' for Inactive)
REMARK    1  A    between atoms: O_2  and  C_3
REMARK    2  A    between atoms: C_3  and  C_5
REMARK    3  A    between atoms: C_5  and  N_6
REMARK    4  A    between atoms: C_5  and  C_31
REMARK    5  A    between atoms: C_7  and  C_9
REMARK    6  A    between atoms: C_11  and  N_19
REMARK    7  A    between atoms: C_14  and  C_16
REMARK    8  A    between atoms: C_16  and  S_17
REMARK    9  A    between atoms: N_22  and  C_23
REMARK                            x       y       z     vdW  Elec       q    Type
REMARK                         _______ _______ _______ _____ _____    ______ ____
ROOT
ATOM      9  C   UNL     1       9.257  -6.726   0.000  0.00  0.00    +0.155 C 
ATOM     10  C   UNL     1      10.010  -6.390   0.000  0.00  0.00    +0.053 C 
ATOM     11  C   UNL     1      10.562  -7.003   0.000  0.00  0.00    +0.119 C 
ATOM     12  C   UNL     1      10.150  -7.718   0.000  0.00  0.00    +0.116 C 
ATOM     13  N   UNL     1       9.343  -7.546   0.000  0.00  0.00    -0.270 N 
ATOM     14  C   UNL     1       8.730  -8.098   0.000  0.00  0.00    +0.237 C 
ATOM     15  O   UNL     1       7.945  -7.843   0.000  0.00  0.00    -0.274 OA
ENDROOT
BRANCH  11  19
ATOM     19  N   UNL     1      11.383  -6.917   0.000  0.00  0.00    -0.187 NA
ATOM     20  C   UNL     1      11.868  -7.584   0.000  0.00  0.00    +0.344 C 
ATOM     21  O   UNL     1      11.532  -8.338   0.000  0.00  0.00    -0.249 OA
ATOM     22  N   UNL     1      12.688  -7.498   0.000  0.00  0.00    -0.159 NA
BRANCH  22  23
ATOM     23  C   UNL     1      13.173  -8.165   0.000  0.00  0.00    +0.102 A 
ATOM     24  C   UNL     1      13.994  -8.079   0.000  0.00  0.00    +0.158 A 
ATOM     25  F   UNL     1      14.329  -7.325   0.000  0.00  0.00    -0.203 F 
ATOM     26  C   UNL     1      14.479  -8.747   0.000  0.00  0.00    +0.061 A 
ATOM     27  C   UNL     1      14.143  -9.500   0.000  0.00  0.00    +0.142 A 
ATOM     28  F   UNL     1      14.628 -10.168   0.000  0.00  0.00    -0.204 F 
ATOM     29  C   UNL     1      13.322  -9.587   0.000  0.00  0.00    +0.031 A 
ATOM     30  C   UNL     1      12.838  -8.919   0.000  0.00  0.00    +0.021 A 
ENDBRANCH  22  23
ENDBRANCH  11  19
BRANCH   9   7
ATOM      6  N   UNL     1       7.828  -6.726   0.000  0.00  0.00    -0.194 NA
ATOM      7  C   UNL     1       8.542  -6.313   0.000  0.00  0.00    +0.260 C 
ATOM      8  O   UNL     1       8.542  -5.488   0.000  0.00  0.00    -0.272 OA
BRANCH   6   5
ATOM      5  C   UNL     1       7.113  -6.313   0.000  0.00  0.00    +0.193 C 
BRANCH   5  31
ATOM     31  C   UNL     1       7.113  -5.488   0.000  0.00  0.00    +0.031 C 
ATOM     32  C   UNL     1       7.828  -5.075   0.000  0.00  0.00    +0.002 C 
ATOM     33  C   UNL     1       6.399  -5.075   0.000  0.00  0.00    +0.002 C 
ENDBRANCH   5  31
BRANCH   5   3
ATOM      3  C   UNL     1       6.399  -6.726   0.000  0.00  0.00    +0.337 C 
ATOM      4  O   UNL     1       6.399  -7.551   0.000  0.00  0.00    -0.248 OA
BRANCH   3   2
ATOM      1  C   UNL     1       4.970  -6.726   0.000  0.00  0.00    +0.256 C 
ATOM      2  O   UNL     1       5.684  -6.313   0.000  0.00  0.00    -0.443 OA
ENDBRANCH   3   2
ENDBRANCH   5   3
ENDBRANCH   6   5
ENDBRANCH   9   7
BRANCH  14  16
ATOM     16  C   UNL     1       8.901  -8.905   0.000  0.00  0.00    +0.143 C 
BRANCH  16  17
ATOM     17  S   UNL     1       9.686  -9.160   0.000  0.00  0.00    -0.130 S 
ATOM     18  C   UNL     1       9.857  -9.967   0.000  0.00  0.00    +0.070 C 
ENDBRANCH  16  17
ENDBRANCH  14  16
TORSDOF 9
