MODEL 1
REMARK VINA RESULT:     -12.0      0.000      0.000
REMARK  Name = 
REMARK  5 active torsions:
REMARK  status: ('A' for Active; 'I' for Inactive)
REMARK    1  A    between atoms: C_2  and  C_4
REMARK    2  A    between atoms: C_6  and  C_7
REMARK    3  A    between atoms: C_7  and  C_8
REMARK    4  A    between atoms: C_21  and  C_22
REMARK    5  A    between atoms: C_22  and  N_23
REMARK                            x       y       z     vdW  Elec       q    Type
REMARK                         _______ _______ _______ _____ _____    ______ ____
ROOT
ATOM      4  C   UNL     1      -3.143   1.914  23.973  0.00  0.00    +0.006 C 
ATOM      5  C   UNL     1      -3.639   1.257  24.022  0.00  0.00    +0.005 C 
ATOM      6  C   UNL     1      -4.293   1.271  24.524  0.00  0.00    +0.026 C 
ATOM     18  C   UNL     1      -4.451   1.942  24.978  0.00  0.00    -0.048 C 
ATOM     19  C   UNL     1      -5.105   1.956  25.481  0.00  0.00    +0.026 C 
ATOM     20  C   UNL     1      -3.954   2.599  24.929  0.00  0.00    -0.034 C 
ATOM     21  C   UNL     1      -3.300   2.585  24.426  0.00  0.00    +0.037 C 
ENDROOT
BRANCH   4   2
ATOM      1  C   UNL     1      -1.750   1.675  23.760  0.00  0.00    +0.000 C 
ATOM      2  C   UNL     1      -2.489   1.900  23.470  0.00  0.00    +0.000 C 
ATOM      3  C   UNL     1      -2.573   2.112  22.677  0.00  0.00    +0.000 C 
ENDBRANCH   4   2
BRANCH   6   7
ATOM      7  C   UNL     1      -4.790   0.614  24.574  0.00  0.00    +0.070 C 
BRANCH   7   8
ATOM      8  C   UNL     1      -4.469  -0.145  24.611  0.00  0.00    +0.139 A 
ATOM      9  N   UNL     1      -4.503  -0.716  24.017  0.00  0.00    -0.229 NA
ATOM     10  C   UNL     1      -4.113  -1.389  24.288  0.00  0.00    +0.100 A 
ATOM     11  C   UNL     1      -3.837  -1.235  25.051  0.00  0.00    +0.096 A 
ATOM     12  N   UNL     1      -4.057  -0.466  25.251  0.00  0.00    -0.230 NA
ATOM     13  C   UNL     1      -3.421  -1.816  25.464  0.00  0.00    -0.003 A 
ATOM     14  C   UNL     1      -3.146  -1.662  26.226  0.00  0.00    +0.033 C 
ATOM     15  C   UNL     1      -3.281  -2.550  25.115  0.00  0.00    -0.003 A 
ATOM     16  C   UNL     1      -3.557  -2.704  24.353  0.00  0.00    +0.001 A 
ATOM     17  C   UNL     1      -3.972  -2.124  23.939  0.00  0.00    +0.021 A 
ENDBRANCH   7   8
ENDBRANCH   6   7
BRANCH  21  22
ATOM     22  C   UNL     1      -2.804   3.242  24.377  0.00  0.00    +0.076 C 
BRANCH  22  23
ATOM     23  N   UNL     1      -2.949   3.905  24.846  0.00  0.00    -0.270 NA
ATOM     24  C   UNL     1      -2.567   3.986  25.573  0.00  0.00    +0.090 C 
ATOM     25  C   UNL     1      -3.475   4.486  24.590  0.00  0.00    +0.090 C 
ENDBRANCH  22  23
ENDBRANCH  21  22
TORSDOF 5
ENDMDL
MODEL 2
REMARK VINA RESULT:     -11.3      0.786      2.059
REMARK  Name = 
REMARK  5 active torsions:
REMARK  status: ('A' for Active; 'I' for Inactive)
REMARK    1  A    between atoms: C_2  and  C_4
REMARK    2  A    between atoms: C_6  and  C_7
REMARK    3  A    between atoms: C_7  and  C_8
REMARK    4  A    between atoms: C_21  and  C_22
REMARK    5  A    between atoms: C_22  and  N_23
REMARK                            x       y       z     vdW  Elec       q    Type
REMARK                         _______ _______ _______ _____ _____    ______ ____
ROOT
ATOM      4  C   UNL     1      -4.706   1.844  24.854  0.00  0.00    +0.006 C 
ATOM      5  C   UNL     1      -4.405   1.214  24.414  0.00  0.00    +0.005 C 
ATOM      6  C   UNL     1      -3.661   1.275  24.063  0.00  0.00    +0.026 C 
ATOM     18  C   UNL     1      -3.218   1.965  24.152  0.00  0.00    -0.048 C 
ATOM     19  C   UNL     1      -2.473   2.026  23.801  0.00  0.00    +0.026 C 
ATOM     20  C   UNL     1      -3.519   2.594  24.592  0.00  0.00    -0.034 C 
ATOM     21  C   UNL     1      -4.263   2.534  24.943  0.00  0.00    +0.037 C 
ENDROOT
BRANCH   4   2
ATOM      1  C   UNL     1      -5.519   1.520  25.984  0.00  0.00    +0.000 C 
ATOM      2  C   UNL     1      -5.450   1.783  25.205  0.00  0.00    +0.000 C 
ATOM      3  C   UNL     1      -6.126   1.986  24.777  0.00  0.00    +0.000 C 
ENDBRANCH   4   2
BRANCH   6   7
ATOM      7  C   UNL     1      -3.360   0.646  23.623  0.00  0.00    +0.070 C 
BRANCH   7   8
ATOM      8  C   UNL     1      -3.339  -0.113  23.947  0.00  0.00    +0.139 A 
ATOM      9  N   UNL     1      -2.836  -0.370  24.547  0.00  0.00    -0.229 NA
ATOM     10  C   UNL     1      -3.004  -1.163  24.698  0.00  0.00    +0.100 A 
ATOM     11  C   UNL     1      -3.611  -1.396  24.191  0.00  0.00    +0.096 A 
ATOM     12  N   UNL     1      -3.818  -0.748  23.726  0.00  0.00    -0.230 NA
ATOM     13  C   UNL     1      -3.896  -2.170  24.218  0.00  0.00    -0.003 A 
ATOM     14  C   UNL     1      -4.504  -2.403  23.711  0.00  0.00    +0.033 C 
ATOM     15  C   UNL     1      -3.575  -2.710  24.752  0.00  0.00    -0.003 A 
ATOM     16  C   UNL     1      -2.968  -2.477  25.260  0.00  0.00    +0.001 A 
ATOM     17  C   UNL     1      -2.682  -1.704  25.233  0.00  0.00    +0.021 A 
ENDBRANCH   7   8
ENDBRANCH   6   7
BRANCH  21  22
ATOM     22  C   UNL     1      -4.564   3.164  25.383  0.00  0.00    +0.076 C 
BRANCH  22  23
ATOM     23  N   UNL     1      -4.117   3.850  25.481  0.00  0.00    -0.270 NA
ATOM     24  C   UNL     1      -4.177   4.463  24.932  0.00  0.00    +0.090 C 
ATOM     25  C   UNL     1      -3.609   3.923  26.127  0.00  0.00    +0.090 C 
ENDBRANCH  22  23
ENDBRANCH  21  22
TORSDOF 5
ENDMDL
MODEL 3
REMARK VINA RESULT:     -11.1      1.517      4.313
REMARK  Name = 
REMARK  5 active torsions:
REMARK  status: ('A' for Active; 'I' for Inactive)
REMARK    1  A    between atoms: C_2  and  C_4
REMARK    2  A    between atoms: C_6  and  C_7
REMARK    3  A    between atoms: C_7  and  C_8
REMARK    4  A    between atoms: C_21  and  C_22
REMARK    5  A    between atoms: C_22  and  N_23
REMARK                            x       y       z     vdW  Elec       q    Type
REMARK                         _______ _______ _______ _____ _____    ______ ____
ROOT
ATOM      4  C   UNL     1      -3.071  -0.521  24.650  0.00  0.00    +0.006 C 
ATOM      5  C   UNL     1      -3.406   0.167  24.341  0.00  0.00    +0.005 C 
ATOM      6  C   UNL     1      -2.922   0.757  24.028  0.00  0.00    +0.026 C 
ATOM     18  C   UNL     1      -2.102   0.659  24.024  0.00  0.00    -0.048 C 
ATOM     19  C   UNL     1      -1.617   1.249  23.711  0.00  0.00    +0.026 C 
ATOM     20  C   UNL     1      -1.768  -0.029  24.333  0.00  0.00    -0.034 C 
ATOM     21  C   UNL     1      -2.252  -0.619  24.646  0.00  0.00    +0.037 C 
ENDROOT
BRANCH   4   2
ATOM      1  C   UNL     1      -3.696  -1.142  25.775  0.00  0.00    +0.000 C 
ATOM      2  C   UNL     1      -3.555  -1.111  24.963  0.00  0.00    +0.000 C 
ATOM      3  C   UNL     1      -3.900  -1.671  24.463  0.00  0.00    +0.000 C 
ENDBRANCH   4   2
BRANCH   6   7
ATOM      7  C   UNL     1      -3.256   1.445  23.719  0.00  0.00    +0.070 C 
BRANCH   7   8
ATOM      8  C   UNL     1      -3.728   1.925  24.196  0.00  0.00    +0.139 A 
ATOM      9  N   UNL     1      -4.550   1.890  24.256  0.00  0.00    -0.229 NA
ATOM     10  C   UNL     1      -4.790   2.467  24.793  0.00  0.00    +0.100 A 
ATOM     11  C   UNL     1      -4.117   2.860  25.065  0.00  0.00    +0.096 A 
ATOM     12  N   UNL     1      -3.461   2.525  24.696  0.00  0.00    -0.230 NA
ATOM     13  C   UNL     1      -4.190   3.472  25.613  0.00  0.00    -0.003 A 
ATOM     14  C   UNL     1      -3.517   3.864  25.885  0.00  0.00    +0.033 C 
ATOM     15  C   UNL     1      -4.935   3.691  25.890  0.00  0.00    -0.003 A 
ATOM     16  C   UNL     1      -5.608   3.299  25.619  0.00  0.00    +0.001 A 
ATOM     17  C   UNL     1      -5.536   2.687  25.070  0.00  0.00    +0.021 A 
ENDBRANCH   7   8
ENDBRANCH   6   7
BRANCH  21  22
ATOM     22  C   UNL     1      -1.917  -1.307  24.955  0.00  0.00    +0.076 C 
BRANCH  22  23
ATOM     23  N   UNL     1      -1.098  -1.402  24.956  0.00  0.00    -0.270 NA
ATOM     24  C   UNL     1      -0.723  -1.751  24.309  0.00  0.00    +0.090 C 
ATOM     25  C   UNL     1      -0.653  -1.150  25.604  0.00  0.00    +0.090 C 
ENDBRANCH  22  23
ENDBRANCH  21  22
TORSDOF 5
ENDMDL
MODEL 4
REMARK VINA RESULT:     -10.7      1.478      4.632
REMARK  Name = 
REMARK  5 active torsions:
REMARK  status: ('A' for Active; 'I' for Inactive)
REMARK    1  A    between atoms: C_2  and  C_4
REMARK    2  A    between atoms: C_6  and  C_7
REMARK    3  A    between atoms: C_7  and  C_8
REMARK    4  A    between atoms: C_21  and  C_22
REMARK    5  A    between atoms: C_22  and  N_23
REMARK                            x       y       z     vdW  Elec       q    Type
REMARK                         _______ _______ _______ _____ _____    ______ ____
ROOT
ATOM      4  C   UNL     1      -1.841  -0.142  24.692  0.00  0.00    +0.006 C 
ATOM      5  C   UNL     1      -1.905   0.605  24.349  0.00  0.00    +0.005 C 
ATOM      6  C   UNL     1      -2.636   0.872  24.075  0.00  0.00    +0.026 C 
ATOM     18  C   UNL     1      -3.304   0.391  24.145  0.00  0.00    -0.048 C 
ATOM     19  C   UNL     1      -4.035   0.657  23.872  0.00  0.00    +0.026 C 
ATOM     20  C   UNL     1      -3.239  -0.356  24.489  0.00  0.00    -0.034 C 
ATOM     21  C   UNL     1      -2.508  -0.623  24.763  0.00  0.00    +0.037 C 
ENDROOT
BRANCH   4   2
ATOM      1  C   UNL     1      -0.589  -0.786  24.450  0.00  0.00    +0.000 C 
ATOM      2  C   UNL     1      -1.110  -0.409  24.966  0.00  0.00    +0.000 C 
ATOM      3  C   UNL     1      -0.900  -0.297  25.757  0.00  0.00    +0.000 C 
ENDBRANCH   4   2
BRANCH   6   7
ATOM      7  C   UNL     1      -2.702   1.619  23.731  0.00  0.00    +0.070 C 
BRANCH   7   8
ATOM      8  C   UNL     1      -2.374   2.276  24.107  0.00  0.00    +0.139 A 
ATOM      9  N   UNL     1      -1.637   2.609  23.948  0.00  0.00    -0.229 NA
ATOM     10  C   UNL     1      -1.534   3.254  24.450  0.00  0.00    +0.100 A 
ATOM     11  C   UNL     1      -2.209   3.322  24.920  0.00  0.00    +0.096 A 
ATOM     12  N   UNL     1      -2.729   2.718  24.708  0.00  0.00    -0.230 NA
ATOM     13  C   UNL     1      -2.263   3.925  25.480  0.00  0.00    -0.003 A 
ATOM     14  C   UNL     1      -2.937   3.993  25.950  0.00  0.00    +0.033 C 
ATOM     15  C   UNL     1      -1.642   4.461  25.571  0.00  0.00    -0.003 A 
ATOM     16  C   UNL     1      -0.968   4.393  25.101  0.00  0.00    +0.001 A 
ATOM     17  C   UNL     1      -0.913   3.791  24.541  0.00  0.00    +0.021 A 
ENDBRANCH   7   8
ENDBRANCH   6   7
BRANCH  21  22
ATOM     22  C   UNL     1      -2.444  -1.370  25.106  0.00  0.00    +0.076 C 
BRANCH  22  23
ATOM     23  N   UNL     1      -3.111  -1.848  25.181  0.00  0.00    -0.270 NA
ATOM     24  C   UNL     1      -3.597  -1.777  25.844  0.00  0.00    +0.090 C 
ATOM     25  C   UNL     1      -3.293  -2.399  24.594  0.00  0.00    +0.090 C 
ENDBRANCH  22  23
ENDBRANCH  21  22
TORSDOF 5
ENDMDL
