REMARK  Name = 
REMARK  11 active torsions:
REMARK  status: ('A' for Active; 'I' for Inactive)
REMARK    1  A    between atoms: O_2  and  C_3
REMARK    2  A    between atoms: C_3  and  C_5
REMARK    3  A    between atoms: C_5  and  C_6
REMARK    4  A    between atoms: C_5  and  N_15
REMARK    5  A    between atoms: C_6  and  C_7
REMARK    6  A    between atoms: C_10  and  O_11
REMARK    7  A    between atoms: C_16  and  C_18
REMARK    8  A    between atoms: N_23  and  S_24
REMARK    9  A    between atoms: S_24  and  C_27
REMARK   10  A    between atoms: C_33  and  C_35
REMARK   11  A    between atoms: C_38  and  N_41
REMARK                            x       y       z     vdW  Elec       q    Type
REMARK                         _______ _______ _______ _____ _____    ______ ____
ROOT
ATOM     18  C   UNL     1       5.443  -6.188   0.000  0.00  0.00    +0.177 C 
ATOM     19  C   UNL     1       5.856  -5.473   0.000  0.00  0.00    +0.121 C 
ATOM     20  N   UNL     1       6.681  -5.473   0.000  0.00  0.00    -0.273 N 
ATOM     21  C   UNL     1       7.093  -6.188   0.000  0.00  0.00    +0.113 C 
ATOM     22  C   UNL     1       6.681  -6.902   0.000  0.00  0.00    +0.118 C 
ATOM     23  N   UNL     1       5.856  -6.902   0.000  0.00  0.00    -0.145 NA
ATOM     33  C   UNL     1       7.093  -4.759   0.000  0.00  0.00    +0.249 C 
ATOM     34  O   UNL     1       6.681  -4.044   0.000  0.00  0.00    -0.270 OA
ENDROOT
BRANCH  33  35
ATOM     35  C   UNL     1       7.918  -4.759   0.000  0.00  0.00    +0.054 A 
ATOM     36  C   UNL     1       8.331  -4.044   0.000  0.00  0.00    +0.006 A 
ATOM     37  C   UNL     1       9.156  -4.044   0.000  0.00  0.00    +0.015 A 
ATOM     38  C   UNL     1       9.568  -4.759   0.000  0.00  0.00    +0.048 A 
ATOM     39  C   UNL     1       9.156  -5.473   0.000  0.00  0.00    +0.015 A 
ATOM     40  C   UNL     1       8.331  -5.473   0.000  0.00  0.00    +0.006 A 
BRANCH  38  41
ATOM     41  N   UNL     1      10.393  -4.759   0.000  0.00  0.00    -0.304 N 
ATOM     42  C   UNL     1      10.806  -4.044   0.000  0.00  0.00    +0.112 C 
ATOM     43  C   UNL     1      10.806  -5.473   0.000  0.00  0.00    +0.112 C 
ENDBRANCH  38  41
ENDBRANCH  33  35
BRANCH  18  16
ATOM     15  N   UNL     1       4.206  -6.902   0.000  0.00  0.00    -0.194 NA
ATOM     16  C   UNL     1       4.618  -6.188   0.000  0.00  0.00    +0.260 C 
ATOM     17  O   UNL     1       4.206  -5.473   0.000  0.00  0.00    -0.272 OA
BRANCH  15   5
ATOM      5  C   UNL     1       3.381  -6.902   0.000  0.00  0.00    +0.198 C 
BRANCH   5   3
ATOM      3  C   UNL     1       2.968  -6.188   0.000  0.00  0.00    +0.337 C 
ATOM      4  O   UNL     1       3.381  -5.473   0.000  0.00  0.00    -0.248 OA
BRANCH   3   2
ATOM      1  C   UNL     1       1.731  -5.473   0.000  0.00  0.00    +0.256 C 
ATOM      2  O   UNL     1       2.143  -6.188   0.000  0.00  0.00    -0.443 OA
ENDBRANCH   3   2
ENDBRANCH   5   3
BRANCH   5   6
ATOM      6  C   UNL     1       2.968  -7.616   0.000  0.00  0.00    +0.059 C 
BRANCH   6   7
ATOM      7  C   UNL     1       2.143  -7.616   0.000  0.00  0.00    -0.020 A 
ATOM      8  C   UNL     1       1.731  -8.331   0.000  0.00  0.00    -0.001 A 
ATOM      9  C   UNL     1       0.906  -8.331   0.000  0.00  0.00    +0.037 A 
ATOM     10  C   UNL     1       0.493  -7.616   0.000  0.00  0.00    +0.139 A 
ATOM     13  C   UNL     1       0.906  -6.902   0.000  0.00  0.00    +0.037 A 
ATOM     14  C   UNL     1       1.731  -6.902   0.000  0.00  0.00    -0.001 A 
BRANCH  10  11
ATOM     11  O   UNL     1      -0.332  -7.616   0.000  0.00  0.00    -0.471 OA
ATOM     12  C   UNL     1      -0.744  -6.902   0.000  0.00  0.00    +0.252 C 
ENDBRANCH  10  11
ENDBRANCH   6   7
ENDBRANCH   5   6
ENDBRANCH  15   5
ENDBRANCH  18  16
BRANCH  23  24
ATOM     24  S   UNL     1       5.443  -7.616   0.000  0.00  0.00    +0.064 S 
ATOM     25  O   UNL     1       5.031  -8.331   0.000  0.00  0.00    -0.153 OA
ATOM     26  O   UNL     1       4.729  -7.204   0.000  0.00  0.00    -0.153 OA
BRANCH  24  27
ATOM     27  C   UNL     1       6.158  -8.029   0.000  0.00  0.00    +0.122 A 
ATOM     28  C   UNL     1       6.872  -7.616   0.000  0.00  0.00    +0.020 A 
ATOM     29  C   UNL     1       7.587  -8.029   0.000  0.00  0.00    +0.001 A 
ATOM     30  C   UNL     1       7.587  -8.854   0.000  0.00  0.00    +0.000 A 
ATOM     31  C   UNL     1       6.872  -9.266   0.000  0.00  0.00    +0.001 A 
ATOM     32  C   UNL     1       6.158  -8.854   0.000  0.00  0.00    +0.020 A 
ENDBRANCH  24  27
ENDBRANCH  23  24
TORSDOF 11
