MODEL 1
REMARK VINA RESULT:     -10.8      0.000      0.000
REMARK  Name = 
REMARK  5 active torsions:
REMARK  status: ('A' for Active; 'I' for Inactive)
REMARK    1  A    between atoms: C_1  and  N_2
REMARK    2  A    between atoms: C_1  and  C_24
REMARK    3  A    between atoms: C_6  and  C_7
REMARK    4  A    between atoms: C_9  and  C_12
REMARK    5  A    between atoms: C_15  and  N_18
REMARK                            x       y       z     vdW  Elec       q    Type
REMARK                         _______ _______ _______ _____ _____    ______ ____
ROOT
ATOM      7  C   UNL     1      -2.436  -0.278  24.757  0.00  0.00    +0.251 A 
ATOM      8  N   UNL     1      -1.868  -0.235  24.161  0.00  0.00    -0.190 NA
ATOM      9  C   UNL     1      -1.138  -0.078  24.514  0.00  0.00    +0.205 A 
ATOM     10  N   UNL     1      -1.256  -0.023  25.328  0.00  0.00    -0.056 NA
ATOM     11  O   UNL     1      -2.058  -0.147  25.479  0.00  0.00    -0.336 OA
ENDROOT
BRANCH   9  12
ATOM     12  C   UNL     1      -0.418   0.009  24.121  0.00  0.00    +0.058 A 
ATOM     13  C   UNL     1      -0.134   0.764  23.944  0.00  0.00    +0.008 A 
ATOM     14  C   UNL     1       0.586   0.851  23.551  0.00  0.00    +0.034 A 
ATOM     15  C   UNL     1       1.022   0.185  23.336  0.00  0.00    +0.132 A 
ATOM     16  N   UNL     1       0.738  -0.569  23.514  0.00  0.00    -0.229 NA
ATOM     17  C   UNL     1       0.018  -0.656  23.906  0.00  0.00    +0.103 A 
BRANCH  15  18
ATOM     18  N   UNL     1       1.742   0.272  22.944  0.00  0.00    -0.288 N 
ATOM     19  C   UNL     1       1.870  -0.114  22.225  0.00  0.00    +0.124 C 
ATOM     20  C   UNL     1       2.590  -0.026  21.833  0.00  0.00    +0.164 C 
ATOM     21  O   UNL     1       3.183   0.447  22.159  0.00  0.00    -0.350 OA
ATOM     22  C   UNL     1       3.056   0.833  22.876  0.00  0.00    +0.164 C 
ATOM     23  C   UNL     1       2.335   0.746  23.269  0.00  0.00    +0.124 C 
ENDBRANCH  15  18
ENDBRANCH   9  12
BRANCH   7   6
ATOM      2  N   UNL     1      -3.837   0.143  24.618  0.00  0.00    -0.263 NA
ATOM      3  C   UNL     1      -4.555  -0.249  24.506  0.00  0.00    +0.073 C 
ATOM      4  C   UNL     1      -4.402  -1.058  24.470  0.00  0.00    +0.019 C 
ATOM      5  C   UNL     1      -3.589  -1.167  24.560  0.00  0.00    +0.027 C 
ATOM      6  C   UNL     1      -3.241  -0.425  24.651  0.00  0.00    +0.138 C 
BRANCH   2   1
ATOM      1  C   UNL     1      -3.735   0.959  24.685  0.00  0.00    +0.101 C 
BRANCH   1  24
ATOM     24  C   UNL     1      -4.376   1.440  24.878  0.00  0.00    +0.014 A 
ATOM     25  C   UNL     1      -5.160   1.194  24.964  0.00  0.00    +0.096 A 
ATOM     26  N   UNL     1      -5.614   1.855  25.157  0.00  0.00    -0.244 NA
ATOM     27  C   UNL     1      -5.113   2.508  25.191  0.00  0.00    +0.081 A 
ATOM     28  C   UNL     1      -4.348   2.252  25.018  0.00  0.00    +0.016 A 
ATOM     29  C   UNL     1      -3.725   2.793  25.010  0.00  0.00    +0.001 A 
ATOM     30  C   UNL     1      -3.865   3.588  25.175  0.00  0.00    +0.000 A 
ATOM     31  C   UNL     1      -4.630   3.844  25.348  0.00  0.00    +0.002 A 
ATOM     32  C   UNL     1      -5.255   3.305  25.356  0.00  0.00    +0.019 A 
ENDBRANCH   1  24
ENDBRANCH   2   1
ENDBRANCH   7   6
TORSDOF 5
ENDMDL
MODEL 2
REMARK VINA RESULT:     -10.4      1.093      2.842
REMARK  Name = 
REMARK  5 active torsions:
REMARK  status: ('A' for Active; 'I' for Inactive)
REMARK    1  A    between atoms: C_1  and  N_2
REMARK    2  A    between atoms: C_1  and  C_24
REMARK    3  A    between atoms: C_6  and  C_7
REMARK    4  A    between atoms: C_9  and  C_12
REMARK    5  A    between atoms: C_15  and  N_18
REMARK                            x       y       z     vdW  Elec       q    Type
REMARK                         _______ _______ _______ _____ _____    ______ ____
ROOT
ATOM      7  C   UNL     1      -2.056   1.423  24.866  0.00  0.00    +0.251 A 
ATOM      8  N   UNL     1      -1.519   1.257  24.263  0.00  0.00    -0.190 NA
ATOM      9  C   UNL     1      -0.764   1.218  24.595  0.00  0.00    +0.205 A 
ATOM     10  N   UNL     1      -0.836   1.361  25.405  0.00  0.00    -0.056 NA
ATOM     11  O   UNL     1      -1.633   1.488  25.573  0.00  0.00    -0.336 OA
ENDROOT
BRANCH   9  12
ATOM     12  C   UNL     1      -0.063   1.064  24.190  0.00  0.00    +0.058 A 
ATOM     13  C   UNL     1       0.034   0.348  23.791  0.00  0.00    +0.008 A 
ATOM     14  C   UNL     1       0.736   0.194  23.386  0.00  0.00    +0.034 A 
ATOM     15  C   UNL     1       1.341   0.755  23.380  0.00  0.00    +0.132 A 
ATOM     16  N   UNL     1       1.243   1.470  23.779  0.00  0.00    -0.229 NA
ATOM     17  C   UNL     1       0.542   1.625  24.184  0.00  0.00    +0.103 A 
BRANCH  15  18
ATOM     18  N   UNL     1       2.042   0.600  22.974  0.00  0.00    -0.288 N 
ATOM     19  C   UNL     1       2.734   1.000  23.180  0.00  0.00    +0.124 C 
ATOM     20  C   UNL     1       3.435   0.846  22.775  0.00  0.00    +0.164 C 
ATOM     21  O   UNL     1       3.446   0.292  22.164  0.00  0.00    -0.350 OA
ATOM     22  C   UNL     1       2.755  -0.108  21.958  0.00  0.00    +0.164 C 
ATOM     23  C   UNL     1       2.052   0.046  22.363  0.00  0.00    +0.124 C 
ENDBRANCH  15  18
ENDBRANCH   9  12
BRANCH   7   6
ATOM      2  N   UNL     1      -3.432   0.908  24.834  0.00  0.00    -0.263 NA
ATOM      3  C   UNL     1      -4.177   1.242  24.712  0.00  0.00    +0.073 C 
ATOM      4  C   UNL     1      -4.076   2.050  24.582  0.00  0.00    +0.019 C 
ATOM      5  C   UNL     1      -3.269   2.216  24.624  0.00  0.00    +0.027 C 
ATOM      6  C   UNL     1      -2.872   1.511  24.780  0.00  0.00    +0.138 C 
BRANCH   2   1
ATOM      1  C   UNL     1      -3.276   0.112  24.984  0.00  0.00    +0.101 C 
BRANCH   1  24
ATOM     24  C   UNL     1      -3.710  -0.473  24.598  0.00  0.00    +0.014 A 
ATOM     25  C   UNL     1      -4.361  -0.350  24.107  0.00  0.00    +0.096 A 
ATOM     26  N   UNL     1      -4.622  -1.086  23.840  0.00  0.00    -0.244 NA
ATOM     27  C   UNL     1      -4.133  -1.663  24.166  0.00  0.00    +0.081 A 
ATOM     28  C   UNL     1      -3.569  -1.285  24.635  0.00  0.00    +0.016 A 
ATOM     29  C   UNL     1      -3.000  -1.729  25.034  0.00  0.00    +0.001 A 
ATOM     30  C   UNL     1      -2.995  -2.551  24.966  0.00  0.00    +0.000 A 
ATOM     31  C   UNL     1      -3.559  -2.929  24.497  0.00  0.00    +0.002 A 
ATOM     32  C   UNL     1      -4.128  -2.486  24.097  0.00  0.00    +0.019 A 
ENDBRANCH   1  24
ENDBRANCH   2   1
ENDBRANCH   7   6
TORSDOF 5
ENDMDL
MODEL 3
REMARK VINA RESULT:     -10.1      2.446      4.472
REMARK  Name = 
REMARK  5 active torsions:
REMARK  status: ('A' for Active; 'I' for Inactive)
REMARK    1  A    between atoms: C_1  and  N_2
REMARK    2  A    between atoms: C_1  and  C_24
REMARK    3  A    between atoms: C_6  and  C_7
REMARK    4  A    between atoms: C_9  and  C_12
REMARK    5  A    between atoms: C_15  and  N_18
REMARK                            x       y       z     vdW  Elec       q    Type
REMARK                         _______ _______ _______ _____ _____    ______ ____
ROOT
ATOM      7  C   UNL     1      -0.383  -0.414  24.537  0.00  0.00    +0.251 A 
ATOM      8  N   UNL     1      -0.659   0.273  24.899  0.00  0.00    -0.190 NA
ATOM      9  C   UNL     1      -0.501   0.908  24.396  0.00  0.00    +0.205 A 
ATOM     10  N   UNL     1      -0.127   0.612  23.723  0.00  0.00    -0.056 NA
ATOM     11  O   UNL     1      -0.054  -0.205  23.809  0.00  0.00    -0.336 OA
ENDROOT
BRANCH   9  12
ATOM     12  C   UNL     1      -0.684   1.699  24.541  0.00  0.00    +0.058 A 
ATOM     13  C   UNL     1      -0.358   2.085  25.194  0.00  0.00    +0.008 A 
ATOM     14  C   UNL     1      -0.541   2.876  25.338  0.00  0.00    +0.034 A 
ATOM     15  C   UNL     1      -1.050   3.281  24.832  0.00  0.00    +0.132 A 
ATOM     16  N   UNL     1      -1.376   2.895  24.179  0.00  0.00    -0.229 NA
ATOM     17  C   UNL     1      -1.193   2.104  24.034  0.00  0.00    +0.103 A 
BRANCH  15  18
ATOM     18  N   UNL     1      -1.234   4.072  24.977  0.00  0.00    -0.288 N 
ATOM     19  C   UNL     1      -1.932   4.269  25.370  0.00  0.00    +0.124 C 
ATOM     20  C   UNL     1      -2.116   5.059  25.515  0.00  0.00    +0.164 C 
ATOM     21  O   UNL     1      -1.600   5.654  25.267  0.00  0.00    -0.350 OA
ATOM     22  C   UNL     1      -0.903   5.459  24.874  0.00  0.00    +0.164 C 
ATOM     23  C   UNL     1      -0.718   4.667  24.728  0.00  0.00    +0.124 C 
ENDBRANCH  15  18
ENDBRANCH   9  12
BRANCH   7   6
ATOM      2  N   UNL     1      -1.118  -1.611  24.971  0.00  0.00    -0.263 NA
ATOM      3  C   UNL     1      -0.905  -2.343  25.287  0.00  0.00    +0.073 C 
ATOM      4  C   UNL     1      -0.084  -2.362  25.357  0.00  0.00    +0.019 C 
ATOM      5  C   UNL     1       0.211  -1.642  25.084  0.00  0.00    +0.027 C 
ATOM      6  C   UNL     1      -0.428  -1.178  24.846  0.00  0.00    +0.138 C 
BRANCH   2   1
ATOM      1  C   UNL     1      -1.886  -1.358  24.809  0.00  0.00    +0.101 C 
BRANCH   1  24
ATOM     24  C   UNL     1      -2.463  -1.904  24.588  0.00  0.00    +0.014 A 
ATOM     25  C   UNL     1      -2.371  -2.724  24.564  0.00  0.00    +0.096 A 
ATOM     26  N   UNL     1      -3.085  -3.053  24.314  0.00  0.00    -0.244 NA
ATOM     27  C   UNL     1      -3.617  -2.437  24.182  0.00  0.00    +0.081 A 
ATOM     28  C   UNL     1      -3.233  -1.727  24.352  0.00  0.00    +0.016 A 
ATOM     29  C   UNL     1      -3.635  -1.011  24.269  0.00  0.00    +0.001 A 
ATOM     30  C   UNL     1      -4.420  -1.005  24.017  0.00  0.00    +0.000 A 
ATOM     31  C   UNL     1      -4.804  -1.716  23.848  0.00  0.00    +0.002 A 
ATOM     32  C   UNL     1      -4.404  -2.432  23.930  0.00  0.00    +0.019 A 
ENDBRANCH   1  24
ENDBRANCH   2   1
ENDBRANCH   7   6
TORSDOF 5
ENDMDL
MODEL 4
REMARK VINA RESULT:     -10.1      2.887      4.605
REMARK  Name = 
REMARK  5 active torsions:
REMARK  status: ('A' for Active; 'I' for Inactive)
REMARK    1  A    between atoms: C_1  and  N_2
REMARK    2  A    between atoms: C_1  and  C_24
REMARK    3  A    between atoms: C_6  and  C_7
REMARK    4  A    between atoms: C_9  and  C_12
REMARK    5  A    between atoms: C_15  and  N_18
REMARK                            x       y       z     vdW  Elec       q    Type
REMARK                         _______ _______ _______ _____ _____    ______ ____
ROOT
ATOM      7  C   UNL     1      -4.945   2.290  25.041  0.00  0.00    +0.251 A 
ATOM      8  N   UNL     1      -4.384   1.693  25.134  0.00  0.00    -0.190 NA
ATOM      9  C   UNL     1      -4.668   1.014  24.760  0.00  0.00    +0.205 A 
ATOM     10  N   UNL     1      -5.406   1.193  24.436  0.00  0.00    -0.056 NA
ATOM     11  O   UNL     1      -5.577   1.981  24.609  0.00  0.00    -0.336 OA
ENDROOT
BRANCH   9  12
ATOM     12  C   UNL     1      -4.284   0.286  24.718  0.00  0.00    +0.058 A 
ATOM     13  C   UNL     1      -4.031  -0.006  23.989  0.00  0.00    +0.008 A 
ATOM     14  C   UNL     1      -3.646  -0.734  23.947  0.00  0.00    +0.034 A 
ATOM     15  C   UNL     1      -3.514  -1.171  24.634  0.00  0.00    +0.132 A 
ATOM     16  N   UNL     1      -3.767  -0.879  25.363  0.00  0.00    -0.229 NA
ATOM     17  C   UNL     1      -4.152  -0.151  25.405  0.00  0.00    +0.103 A 
BRANCH  15  18
ATOM     18  N   UNL     1      -3.129  -1.899  24.592  0.00  0.00    -0.288 N 
ATOM     19  C   UNL     1      -2.305  -1.930  24.569  0.00  0.00    +0.124 C 
ATOM     20  C   UNL     1      -1.920  -2.658  24.528  0.00  0.00    +0.164 C 
ATOM     21  O   UNL     1      -2.359  -3.356  24.508  0.00  0.00    -0.350 OA
ATOM     22  C   UNL     1      -3.183  -3.326  24.530  0.00  0.00    +0.164 C 
ATOM     23  C   UNL     1      -3.569  -2.598  24.572  0.00  0.00    +0.124 C 
ENDBRANCH  15  18
ENDBRANCH   9  12
BRANCH   7   6
ATOM      2  N   UNL     1      -4.212   3.536  25.307  0.00  0.00    -0.263 NA
ATOM      3  C   UNL     1      -4.401   4.261  25.653  0.00  0.00    +0.073 C 
ATOM      4  C   UNL     1      -5.191   4.234  25.887  0.00  0.00    +0.019 C 
ATOM      5  C   UNL     1      -5.491   3.492  25.686  0.00  0.00    +0.027 C 
ATOM      6  C   UNL     1      -4.886   3.061  25.328  0.00  0.00    +0.138 C 
BRANCH   2   1
ATOM      1  C   UNL     1      -3.478   3.324  24.996  0.00  0.00    +0.101 C 
BRANCH   1  24
ATOM     24  C   UNL     1      -2.812   3.781  25.160  0.00  0.00    +0.014 A 
ATOM     25  C   UNL     1      -2.795   4.465  25.622  0.00  0.00    +0.096 A 
ATOM     26  N   UNL     1      -2.018   4.742  25.639  0.00  0.00    -0.244 NA
ATOM     27  C   UNL     1      -1.555   4.230  25.188  0.00  0.00    +0.081 A 
ATOM     28  C   UNL     1      -2.046   3.637  24.892  0.00  0.00    +0.016 A 
ATOM     29  C   UNL     1      -1.730   3.041  24.416  0.00  0.00    +0.001 A 
ATOM     30  C   UNL     1      -0.926   3.038  24.237  0.00  0.00    +0.000 A 
ATOM     31  C   UNL     1      -0.435   3.632  24.533  0.00  0.00    +0.002 A 
ATOM     32  C   UNL     1      -0.750   4.228  25.009  0.00  0.00    +0.019 A 
ENDBRANCH   1  24
ENDBRANCH   2   1
ENDBRANCH   7   6
TORSDOF 5
ENDMDL
MODEL 5
REMARK VINA RESULT:     -10.0      1.580      2.736
REMARK  Name = 
REMARK  5 active torsions:
REMARK  status: ('A' for Active; 'I' for Inactive)
REMARK    1  A    between atoms: C_1  and  N_2
REMARK    2  A    between atoms: C_1  and  C_24
REMARK    3  A    between atoms: C_6  and  C_7
REMARK    4  A    between atoms: C_9  and  C_12
REMARK    5  A    between atoms: C_15  and  N_18
REMARK                            x       y       z     vdW  Elec       q    Type
REMARK                         _______ _______ _______ _____ _____    ______ ____
ROOT
ATOM      7  C   UNL     1      -1.468   3.127  25.477  0.00  0.00    +0.251 A 
ATOM      8  N   UNL     1      -1.064   2.859  24.811  0.00  0.00    -0.190 NA
ATOM      9  C   UNL     1      -0.584   2.227  25.039  0.00  0.00    +0.205 A 
ATOM     10  N   UNL     1      -0.693   2.105  25.847  0.00  0.00    -0.056 NA
ATOM     11  O   UNL     1      -1.239   2.661  26.119  0.00  0.00    -0.336 OA
ENDROOT
BRANCH   9  12
ATOM     12  C   UNL     1      -0.085   1.794  24.546  0.00  0.00    +0.058 A 
ATOM     13  C   UNL     1      -0.344   1.082  24.219  0.00  0.00    +0.008 A 
ATOM     14  C   UNL     1       0.156   0.649  23.727  0.00  0.00    +0.034 A 
ATOM     15  C   UNL     1       0.914   0.927  23.560  0.00  0.00    +0.132 A 
ATOM     16  N   UNL     1       1.173   1.640  23.886  0.00  0.00    -0.229 NA
ATOM     17  C   UNL     1       0.673   2.073  24.379  0.00  0.00    +0.103 A 
BRANCH  15  18
ATOM     18  N   UNL     1       1.413   0.494  23.067  0.00  0.00    -0.288 N 
ATOM     19  C   UNL     1       1.097  -0.051  22.534  0.00  0.00    +0.124 C 
ATOM     20  C   UNL     1       1.596  -0.484  22.041  0.00  0.00    +0.164 C 
ATOM     21  O   UNL     1       2.413  -0.373  22.081  0.00  0.00    -0.350 OA
ATOM     22  C   UNL     1       2.730   0.171  22.613  0.00  0.00    +0.164 C 
ATOM     23  C   UNL     1       2.230   0.605  23.106  0.00  0.00    +0.124 C 
ENDBRANCH  15  18
ENDBRANCH   9  12
BRANCH   7   6
ATOM      2  N   UNL     1      -2.828   3.685  25.454  0.00  0.00    -0.263 NA
ATOM      3  C   UNL     1      -3.147   4.446  25.498  0.00  0.00    +0.073 C 
ATOM      4  C   UNL     1      -2.524   4.980  25.572  0.00  0.00    +0.019 C 
ATOM      5  C   UNL     1      -1.819   4.551  25.573  0.00  0.00    +0.027 C 
ATOM      6  C   UNL     1      -2.007   3.752  25.500  0.00  0.00    +0.138 C 
BRANCH   2   1
ATOM      1  C   UNL     1      -3.255   2.984  25.377  0.00  0.00    +0.101 C 
BRANCH   1  24
ATOM     24  C   UNL     1      -4.079   2.998  25.398  0.00  0.00    +0.014 A 
ATOM     25  C   UNL     1      -4.548   3.641  25.617  0.00  0.00    +0.096 A 
ATOM     26  N   UNL     1      -5.338   3.412  25.559  0.00  0.00    -0.244 NA
ATOM     27  C   UNL     1      -5.358   2.628  25.305  0.00  0.00    +0.081 A 
ATOM     28  C   UNL     1      -4.580   2.372  25.206  0.00  0.00    +0.016 A 
ATOM     29  C   UNL     1      -4.429   1.601  24.953  0.00  0.00    +0.001 A 
ATOM     30  C   UNL     1      -5.055   1.087  24.799  0.00  0.00    +0.000 A 
ATOM     31  C   UNL     1      -5.833   1.343  24.898  0.00  0.00    +0.002 A 
ATOM     32  C   UNL     1      -5.985   2.113  25.151  0.00  0.00    +0.019 A 
ENDBRANCH   1  24
ENDBRANCH   2   1
ENDBRANCH   7   6
TORSDOF 5
ENDMDL
MODEL 6
REMARK VINA RESULT:      -9.8      2.214      3.656
REMARK  Name = 
REMARK  5 active torsions:
REMARK  status: ('A' for Active; 'I' for Inactive)
REMARK    1  A    between atoms: C_1  and  N_2
REMARK    2  A    between atoms: C_1  and  C_24
REMARK    3  A    between atoms: C_6  and  C_7
REMARK    4  A    between atoms: C_9  and  C_12
REMARK    5  A    between atoms: C_15  and  N_18
REMARK                            x       y       z     vdW  Elec       q    Type
REMARK                         _______ _______ _______ _____ _____    ______ ____
ROOT
ATOM      7  C   UNL     1      -1.131   3.288  24.645  0.00  0.00    +0.251 A 
ATOM      8  N   UNL     1      -1.348   2.533  24.893  0.00  0.00    -0.190 NA
ATOM      9  C   UNL     1      -0.866   1.987  24.504  0.00  0.00    +0.205 A 
ATOM     10  N   UNL     1      -0.351   2.407  24.015  0.00  0.00    -0.056 NA
ATOM     11  O   UNL     1      -0.515   3.211  24.102  0.00  0.00    -0.336 OA
ENDROOT
BRANCH   9  12
ATOM     12  C   UNL     1      -0.894   1.168  24.589  0.00  0.00    +0.058 A 
ATOM     13  C   UNL     1      -1.094   0.834  25.317  0.00  0.00    +0.008 A 
ATOM     14  C   UNL     1      -1.122   0.015  25.402  0.00  0.00    +0.034 A 
ATOM     15  C   UNL     1      -0.951  -0.473  24.759  0.00  0.00    +0.132 A 
ATOM     16  N   UNL     1      -0.752  -0.139  24.030  0.00  0.00    -0.229 NA
ATOM     17  C   UNL     1      -0.724   0.680  23.946  0.00  0.00    +0.103 A 
BRANCH  15  18
ATOM     18  N   UNL     1      -0.979  -1.292  24.843  0.00  0.00    -0.288 N 
ATOM     19  C   UNL     1      -1.631  -1.714  24.564  0.00  0.00    +0.124 C 
ATOM     20  C   UNL     1      -1.660  -2.534  24.648  0.00  0.00    +0.164 C 
ATOM     21  O   UNL     1      -1.035  -2.933  25.013  0.00  0.00    -0.350 OA
ATOM     22  C   UNL     1      -0.384  -2.512  25.292  0.00  0.00    +0.164 C 
ATOM     23  C   UNL     1      -0.355  -1.691  25.208  0.00  0.00    +0.124 C 
ENDBRANCH  15  18
ENDBRANCH   9  12
BRANCH   7   6
ATOM      2  N   UNL     1      -2.278   4.153  24.961  0.00  0.00    -0.263 NA
ATOM      3  C   UNL     1      -2.366   4.928  25.230  0.00  0.00    +0.073 C 
ATOM      4  C   UNL     1      -1.615   5.252  25.330  0.00  0.00    +0.019 C 
ATOM      5  C   UNL     1      -1.061   4.676  25.123  0.00  0.00    +0.027 C 
ATOM      6  C   UNL     1      -1.470   3.998  24.895  0.00  0.00    +0.138 C 
BRANCH   2   1
ATOM      1  C   UNL     1      -2.889   3.626  24.789  0.00  0.00    +0.101 C 
BRANCH   1  24
ATOM     24  C   UNL     1      -3.575   3.627  25.246  0.00  0.00    +0.014 A 
ATOM     25  C   UNL     1      -3.715   4.094  25.912  0.00  0.00    +0.096 A 
ATOM     26  N   UNL     1      -4.469   3.916  26.194  0.00  0.00    -0.244 NA
ATOM     27  C   UNL     1      -4.795   3.340  25.704  0.00  0.00    +0.081 A 
ATOM     28  C   UNL     1      -4.243   3.161  25.118  0.00  0.00    +0.016 A 
ATOM     29  C   UNL     1      -4.421   2.596  24.543  0.00  0.00    +0.001 A 
ATOM     30  C   UNL     1      -5.150   2.211  24.554  0.00  0.00    +0.000 A 
ATOM     31  C   UNL     1      -5.702   2.390  25.140  0.00  0.00    +0.002 A 
ATOM     32  C   UNL     1      -5.526   2.954  25.716  0.00  0.00    +0.019 A 
ENDBRANCH   1  24
ENDBRANCH   2   1
ENDBRANCH   7   6
TORSDOF 5
ENDMDL
MODEL 7
REMARK VINA RESULT:      -9.7      1.772      5.672
REMARK  Name = 
REMARK  5 active torsions:
REMARK  status: ('A' for Active; 'I' for Inactive)
REMARK    1  A    between atoms: C_1  and  N_2
REMARK    2  A    between atoms: C_1  and  C_24
REMARK    3  A    between atoms: C_6  and  C_7
REMARK    4  A    between atoms: C_9  and  C_12
REMARK    5  A    between atoms: C_15  and  N_18
REMARK                            x       y       z     vdW  Elec       q    Type
REMARK                         _______ _______ _______ _____ _____    ______ ____
ROOT
ATOM      7  C   UNL     1      -0.750   1.123  24.618  0.00  0.00    +0.251 A 
ATOM      8  N   UNL     1      -1.543   1.330  24.534  0.00  0.00    -0.190 NA
ATOM      9  C   UNL     1      -1.699   1.960  25.045  0.00  0.00    +0.205 A 
ATOM     10  N   UNL     1      -1.000   2.141  25.444  0.00  0.00    -0.056 NA
ATOM     11  O   UNL     1      -0.413   1.625  25.180  0.00  0.00    -0.336 OA
ENDROOT
BRANCH   9  12
ATOM     12  C   UNL     1      -2.424   2.340  25.140  0.00  0.00    +0.058 A 
ATOM     13  C   UNL     1      -3.083   2.084  24.713  0.00  0.00    +0.008 A 
ATOM     14  C   UNL     1      -3.809   2.464  24.808  0.00  0.00    +0.034 A 
ATOM     15  C   UNL     1      -3.877   3.100  25.329  0.00  0.00    +0.132 A 
ATOM     16  N   UNL     1      -3.218   3.355  25.756  0.00  0.00    -0.229 NA
ATOM     17  C   UNL     1      -2.492   2.975  25.661  0.00  0.00    +0.103 A 
BRANCH  15  18
ATOM     18  N   UNL     1      -4.602   3.480  25.424  0.00  0.00    -0.288 N 
ATOM     19  C   UNL     1      -5.258   3.057  25.692  0.00  0.00    +0.124 C 
ATOM     20  C   UNL     1      -5.984   3.437  25.787  0.00  0.00    +0.164 C 
ATOM     21  O   UNL     1      -6.054   4.241  25.614  0.00  0.00    -0.350 OA
ATOM     22  C   UNL     1      -5.399   4.664  25.346  0.00  0.00    +0.164 C 
ATOM     23  C   UNL     1      -4.673   4.284  25.251  0.00  0.00    +0.124 C 
ENDBRANCH  15  18
ENDBRANCH   9  12
BRANCH   7   6
ATOM      2  N   UNL     1      -0.492  -0.288  24.298  0.00  0.00    -0.263 NA
ATOM      3  C   UNL     1       0.018  -0.686  23.786  0.00  0.00    +0.073 C 
ATOM      4  C   UNL     1       0.466  -0.123  23.383  0.00  0.00    +0.019 C 
ATOM      5  C   UNL     1       0.232   0.623  23.646  0.00  0.00    +0.027 C 
ATOM      6  C   UNL     1      -0.359   0.521  24.211  0.00  0.00    +0.138 C 
BRANCH   2   1
ATOM      1  C   UNL     1      -1.039  -0.639  24.807  0.00  0.00    +0.101 C 
BRANCH   1  24
ATOM     24  C   UNL     1      -1.344  -1.385  24.635  0.00  0.00    +0.014 A 
ATOM     25  C   UNL     1      -0.949  -1.991  24.238  0.00  0.00    +0.096 A 
ATOM     26  N   UNL     1      -1.458  -2.637  24.187  0.00  0.00    -0.244 NA
ATOM     27  C   UNL     1      -2.168  -2.432  24.553  0.00  0.00    +0.081 A 
ATOM     28  C   UNL     1      -2.097  -1.658  24.830  0.00  0.00    +0.016 A 
ATOM     29  C   UNL     1      -2.729  -1.302  25.224  0.00  0.00    +0.001 A 
ATOM     30  C   UNL     1      -3.430  -1.719  25.341  0.00  0.00    +0.000 A 
ATOM     31  C   UNL     1      -3.501  -2.493  25.064  0.00  0.00    +0.002 A 
ATOM     32  C   UNL     1      -2.870  -2.850  24.670  0.00  0.00    +0.019 A 
ENDBRANCH   1  24
ENDBRANCH   2   1
ENDBRANCH   7   6
TORSDOF 5
ENDMDL
