MODEL 1
REMARK VINA RESULT:     -12.1      0.000      0.000
REMARK  Name = 
REMARK  8 active torsions:
REMARK  status: ('A' for Active; 'I' for Inactive)
REMARK    1  A    between atoms: C_2  and  N_4
REMARK    2  A    between atoms: N_10  and  S_27
REMARK    3  A    between atoms: C_11  and  C_13
REMARK    4  A    between atoms: N_15  and  C_16
REMARK    5  A    between atoms: C_16  and  C_17
REMARK    6  A    between atoms: C_16  and  C_24
REMARK    7  A    between atoms: C_17  and  C_18
REMARK    8  A    between atoms: S_27  and  C_30
REMARK                            x       y       z     vdW  Elec       q    Type
REMARK                         _______ _______ _______ _____ _____    ______ ____
ROOT
ATOM      4  N   UNL     1      -4.801   2.557  25.068  0.00  0.00    -0.190 NA
ATOM      5  C   UNL     1      -4.373   1.853  25.034  0.00  0.00    +0.323 C 
ATOM      6  O   UNL     1      -4.735   1.141  25.244  0.00  0.00    -0.251 OA
ATOM      7  N   UNL     1      -3.585   1.859  24.791  0.00  0.00    -0.259 N 
ATOM      8  C   UNL     1      -3.225   2.570  24.581  0.00  0.00    +0.114 C 
ATOM      9  C   UNL     1      -2.436   2.577  24.338  0.00  0.00    +0.118 C 
ATOM     10  N   UNL     1      -2.009   1.872  24.304  0.00  0.00    -0.145 NA
ATOM     11  C   UNL     1      -2.370   1.160  24.515  0.00  0.00    +0.177 C 
ATOM     12  C   UNL     1      -3.158   1.154  24.758  0.00  0.00    +0.122 C 
ENDROOT
BRANCH   4   2
ATOM      1  C   UNL     1      -6.166   2.211  24.830  0.00  0.00    +0.023 C 
ATOM      2  C   UNL     1      -5.590   2.551  25.311  0.00  0.00    +0.097 C 
ATOM      3  C   UNL     1      -5.800   2.884  26.035  0.00  0.00    +0.023 C 
ENDBRANCH   4   2
BRANCH  11  13
ATOM     13  C   UNL     1      -1.942   0.455  24.481  0.00  0.00    +0.260 C 
ATOM     14  O   UNL     1      -1.298   0.388  23.971  0.00  0.00    -0.272 OA
ATOM     15  N   UNL     1      -2.159  -0.182  24.958  0.00  0.00    -0.197 NA
BRANCH  15  16
ATOM     16  C   UNL     1      -1.732  -0.886  24.924  0.00  0.00    +0.174 C 
BRANCH  16  24
ATOM     24  C   UNL     1      -1.130  -1.030  25.469  0.00  0.00    +0.281 C 
ATOM     25  N   UNL     1      -0.410  -1.345  25.216  0.00  0.00    -0.086 NA
ATOM     26  O   UNL     1      -1.247  -0.859  26.267  0.00  0.00    -0.270 OA
ENDBRANCH  16  24
BRANCH  16  17
ATOM     17  C   UNL     1      -1.907  -1.448  24.345  0.00  0.00    +0.031 C 
BRANCH  17  18
ATOM     18  C   UNL     1      -2.579  -1.921  24.418  0.00  0.00    +0.002 C 
ATOM     19  C   UNL     1      -2.609  -2.510  24.995  0.00  0.00    +0.000 C 
ATOM     20  C   UNL     1      -3.282  -2.982  25.067  0.00  0.00    +0.000 C 
ATOM     21  C   UNL     1      -3.924  -2.866  24.563  0.00  0.00    +0.000 C 
ATOM     22  C   UNL     1      -3.894  -2.277  23.986  0.00  0.00    +0.000 C 
ATOM     23  C   UNL     1      -3.222  -1.804  23.913  0.00  0.00    +0.000 C 
ENDBRANCH  17  18
ENDBRANCH  16  17
ENDBRANCH  15  16
ENDBRANCH  11  13
BRANCH  10  27
ATOM     27  S   UNL     1      -1.220   1.879  24.061  0.00  0.00    +0.064 S 
ATOM     28  O   UNL     1      -0.432   1.886  23.818  0.00  0.00    -0.153 OA
ATOM     29  O   UNL     1      -1.390   1.303  23.495  0.00  0.00    -0.153 OA
BRANCH  27  30
ATOM     30  C   UNL     1      -1.051   2.455  24.627  0.00  0.00    +0.122 A 
ATOM     31  C   UNL     1      -1.127   3.254  24.437  0.00  0.00    +0.020 A 
ATOM     32  C   UNL     1      -0.957   3.830  25.003  0.00  0.00    +0.001 A 
ATOM     33  C   UNL     1      -0.711   3.606  25.758  0.00  0.00    +0.000 A 
ATOM     34  C   UNL     1      -0.635   2.807  25.947  0.00  0.00    +0.001 A 
ATOM     35  C   UNL     1      -0.805   2.231  25.381  0.00  0.00    +0.020 A 
ENDBRANCH  27  30
ENDBRANCH  10  27
TORSDOF 8
ENDMDL
MODEL 2
REMARK VINA RESULT:     -11.4      1.587      5.247
REMARK  Name = 
REMARK  8 active torsions:
REMARK  status: ('A' for Active; 'I' for Inactive)
REMARK    1  A    between atoms: C_2  and  N_4
REMARK    2  A    between atoms: N_10  and  S_27
REMARK    3  A    between atoms: C_11  and  C_13
REMARK    4  A    between atoms: N_15  and  C_16
REMARK    5  A    between atoms: C_16  and  C_17
REMARK    6  A    between atoms: C_16  and  C_24
REMARK    7  A    between atoms: C_17  and  C_18
REMARK    8  A    between atoms: S_27  and  C_30
REMARK                            x       y       z     vdW  Elec       q    Type
REMARK                         _______ _______ _______ _____ _____    ______ ____
ROOT
ATOM      4  N   UNL     1       0.019  -0.453  23.585  0.00  0.00    -0.190 NA
ATOM      5  C   UNL     1      -0.523   0.146  23.745  0.00  0.00    +0.323 C 
ATOM      6  O   UNL     1      -0.378   0.915  23.482  0.00  0.00    -0.251 OA
ATOM      7  N   UNL     1      -1.211  -0.021  24.169  0.00  0.00    -0.259 N 
ATOM      8  C   UNL     1      -1.356  -0.789  24.432  0.00  0.00    +0.114 C 
ATOM      9  C   UNL     1      -2.044  -0.957  24.855  0.00  0.00    +0.118 C 
ATOM     10  N   UNL     1      -2.587  -0.357  25.016  0.00  0.00    -0.145 NA
ATOM     11  C   UNL     1      -2.441   0.412  24.753  0.00  0.00    +0.177 C 
ATOM     12  C   UNL     1      -1.753   0.580  24.329  0.00  0.00    +0.122 C 
ENDROOT
BRANCH   4   2
ATOM      1  C   UNL     1       1.347   0.070  23.539  0.00  0.00    +0.023 C 
ATOM      2  C   UNL     1       0.707  -0.286  23.161  0.00  0.00    +0.097 C 
ATOM      3  C   UNL     1       0.754  -0.474  22.360  0.00  0.00    +0.023 C 
ENDBRANCH   4   2
BRANCH  11  13
ATOM     13  C   UNL     1      -2.984   1.013  24.913  0.00  0.00    +0.260 C 
ATOM     14  O   UNL     1      -3.634   0.862  25.398  0.00  0.00    -0.272 OA
ATOM     15  N   UNL     1      -2.876   1.764  24.589  0.00  0.00    -0.197 NA
BRANCH  15  16
ATOM     16  C   UNL     1      -3.419   2.364  24.750  0.00  0.00    +0.174 C 
BRANCH  16  24
ATOM     24  C   UNL     1      -4.076   2.466  24.264  0.00  0.00    +0.281 C 
ATOM     25  N   UNL     1      -4.828   2.544  24.596  0.00  0.00    -0.086 NA
ATOM     26  O   UNL     1      -3.984   2.491  23.444  0.00  0.00    -0.270 OA
ENDBRANCH  16  24
BRANCH  16  17
ATOM     17  C   UNL     1      -3.303   2.862  25.397  0.00  0.00    +0.031 C 
BRANCH  17  18
ATOM     18  C   UNL     1      -2.750   3.472  25.356  0.00  0.00    +0.002 C 
ATOM     19  C   UNL     1      -2.935   4.171  24.958  0.00  0.00    +0.000 C 
ATOM     20  C   UNL     1      -2.381   4.781  24.917  0.00  0.00    +0.000 C 
ATOM     21  C   UNL     1      -1.642   4.692  25.273  0.00  0.00    +0.000 C 
ATOM     22  C   UNL     1      -1.457   3.994  25.671  0.00  0.00    +0.000 C 
ATOM     23  C   UNL     1      -2.011   3.383  25.712  0.00  0.00    +0.000 C 
ENDBRANCH  17  18
ENDBRANCH  16  17
ENDBRANCH  15  16
ENDBRANCH  11  13
BRANCH  10  27
ATOM     27  S   UNL     1      -3.275  -0.525  25.440  0.00  0.00    +0.064 S 
ATOM     28  O   UNL     1      -3.962  -0.692  25.863  0.00  0.00    -0.153 OA
ATOM     29  O   UNL     1      -3.093   0.079  25.974  0.00  0.00    -0.153 OA
BRANCH  27  30
ATOM     30  C   UNL     1      -3.456  -1.127  24.906  0.00  0.00    +0.122 A 
ATOM     31  C   UNL     1      -3.172  -1.891  25.036  0.00  0.00    +0.020 A 
ATOM     32  C   UNL     1      -3.353  -2.494  24.502  0.00  0.00    +0.001 A 
ATOM     33  C   UNL     1      -3.819  -2.332  23.840  0.00  0.00    +0.000 A 
ATOM     34  C   UNL     1      -4.102  -1.569  23.711  0.00  0.00    +0.001 A 
ATOM     35  C   UNL     1      -3.921  -0.966  24.245  0.00  0.00    +0.020 A 
ENDBRANCH  27  30
ENDBRANCH  10  27
TORSDOF 8
ENDMDL
MODEL 3
REMARK VINA RESULT:     -11.3      1.157      4.075
REMARK  Name = 
REMARK  8 active torsions:
REMARK  status: ('A' for Active; 'I' for Inactive)
REMARK    1  A    between atoms: C_2  and  N_4
REMARK    2  A    between atoms: N_10  and  S_27
REMARK    3  A    between atoms: C_11  and  C_13
REMARK    4  A    between atoms: N_15  and  C_16
REMARK    5  A    between atoms: C_16  and  C_17
REMARK    6  A    between atoms: C_16  and  C_24
REMARK    7  A    between atoms: C_17  and  C_18
REMARK    8  A    between atoms: S_27  and  C_30
REMARK                            x       y       z     vdW  Elec       q    Type
REMARK                         _______ _______ _______ _____ _____    ______ ____
ROOT
ATOM      4  N   UNL     1      -5.356   1.358  25.091  0.00  0.00    -0.190 NA
ATOM      5  C   UNL     1      -4.624   1.738  25.086  0.00  0.00    +0.323 C 
ATOM      6  O   UNL     1      -4.574   2.539  25.282  0.00  0.00    -0.251 OA
ATOM      7  N   UNL     1      -3.942   1.318  24.887  0.00  0.00    -0.259 N 
ATOM      8  C   UNL     1      -3.993   0.519  24.691  0.00  0.00    +0.114 C 
ATOM      9  C   UNL     1      -3.311   0.100  24.491  0.00  0.00    +0.118 C 
ATOM     10  N   UNL     1      -2.579   0.479  24.487  0.00  0.00    -0.145 NA
ATOM     11  C   UNL     1      -2.529   1.280  24.683  0.00  0.00    +0.177 C 
ATOM     12  C   UNL     1      -3.210   1.700  24.883  0.00  0.00    +0.122 C 
ENDROOT
BRANCH   4   2
ATOM      1  C   UNL     1      -6.574   1.996  24.703  0.00  0.00    +0.023 C 
ATOM      2  C   UNL     1      -6.038   1.778  25.290  0.00  0.00    +0.097 C 
ATOM      3  C   UNL     1      -6.183   1.979  26.076  0.00  0.00    +0.023 C 
ENDBRANCH   4   2
BRANCH  11  13
ATOM     13  C   UNL     1      -1.796   1.661  24.679  0.00  0.00    +0.260 C 
ATOM     14  O   UNL     1      -1.238   1.473  24.102  0.00  0.00    -0.272 OA
ATOM     15  N   UNL     1      -1.622   2.228  25.252  0.00  0.00    -0.197 NA
BRANCH  15  16
ATOM     16  C   UNL     1      -0.891   2.608  25.248  0.00  0.00    +0.174 C 
BRANCH  16  24
ATOM     24  C   UNL     1      -0.321   2.412  25.811  0.00  0.00    +0.281 C 
ATOM     25  N   UNL     1       0.452   2.248  25.577  0.00  0.00    -0.086 NA
ATOM     26  O   UNL     1      -0.525   2.381  26.610  0.00  0.00    -0.270 OA
ENDBRANCH  16  24
BRANCH  16  17
ATOM     17  C   UNL     1      -0.728   3.184  24.680  0.00  0.00    +0.031 C 
BRANCH  17  18
ATOM     18  C   UNL     1      -0.934   3.970  24.819  0.00  0.00    +0.002 C 
ATOM     19  C   UNL     1      -1.625   4.150  25.231  0.00  0.00    +0.000 C 
ATOM     20  C   UNL     1      -1.829   4.938  25.369  0.00  0.00    +0.000 C 
ATOM     21  C   UNL     1      -1.343   5.545  25.097  0.00  0.00    +0.000 C 
ATOM     22  C   UNL     1      -0.651   5.365  24.685  0.00  0.00    +0.000 C 
ATOM     23  C   UNL     1      -0.446   4.578  24.546  0.00  0.00    +0.000 C 
ENDBRANCH  17  18
ENDBRANCH  16  17
ENDBRANCH  15  16
ENDBRANCH  11  13
BRANCH  10  27
ATOM     27  S   UNL     1      -1.897   0.060  24.288  0.00  0.00    +0.064 S 
ATOM     28  O   UNL     1      -1.215  -0.360  24.088  0.00  0.00    -0.153 OA
ATOM     29  O   UNL     1      -1.683   0.659  23.760  0.00  0.00    -0.153 OA
BRANCH  27  30
ATOM     30  C   UNL     1      -2.111  -0.538  24.814  0.00  0.00    +0.122 A 
ATOM     31  C   UNL     1      -2.592  -1.159  24.560  0.00  0.00    +0.020 A 
ATOM     32  C   UNL     1      -2.806  -1.757  25.086  0.00  0.00    +0.001 A 
ATOM     33  C   UNL     1      -2.538  -1.734  25.866  0.00  0.00    +0.000 A 
ATOM     34  C   UNL     1      -2.058  -1.114  26.120  0.00  0.00    +0.001 A 
ATOM     35  C   UNL     1      -1.844  -0.516  25.594  0.00  0.00    +0.020 A 
ENDBRANCH  27  30
ENDBRANCH  10  27
TORSDOF 8
ENDMDL
MODEL 4
REMARK VINA RESULT:     -11.1      1.570      4.492
REMARK  Name = 
REMARK  8 active torsions:
REMARK  status: ('A' for Active; 'I' for Inactive)
REMARK    1  A    between atoms: C_2  and  N_4
REMARK    2  A    between atoms: N_10  and  S_27
REMARK    3  A    between atoms: C_11  and  C_13
REMARK    4  A    between atoms: N_15  and  C_16
REMARK    5  A    between atoms: C_16  and  C_17
REMARK    6  A    between atoms: C_16  and  C_24
REMARK    7  A    between atoms: C_17  and  C_18
REMARK    8  A    between atoms: S_27  and  C_30
REMARK                            x       y       z     vdW  Elec       q    Type
REMARK                         _______ _______ _______ _____ _____    ______ ____
ROOT
ATOM      4  N   UNL     1      -3.797  -1.035  24.904  0.00  0.00    -0.190 NA
ATOM      5  C   UNL     1      -3.330  -0.355  24.910  0.00  0.00    +0.323 C 
ATOM      6  O   UNL     1      -2.517  -0.415  25.047  0.00  0.00    -0.251 OA
ATOM      7  N   UNL     1      -3.673   0.383  24.779  0.00  0.00    -0.259 N 
ATOM      8  C   UNL     1      -4.484   0.443  24.643  0.00  0.00    +0.114 C 
ATOM      9  C   UNL     1      -4.827   1.181  24.513  0.00  0.00    +0.118 C 
ATOM     10  N   UNL     1      -4.360   1.861  24.518  0.00  0.00    -0.145 NA
ATOM     11  C   UNL     1      -3.547   1.801  24.655  0.00  0.00    +0.177 C 
ATOM     12  C   UNL     1      -3.204   1.062  24.785  0.00  0.00    +0.122 C 
ENDROOT
BRANCH   4   2
ATOM      1  C   UNL     1      -3.248  -2.003  25.799  0.00  0.00    +0.023 C 
ATOM      2  C   UNL     1      -3.454  -1.774  25.035  0.00  0.00    +0.097 C 
ATOM      3  C   UNL     1      -3.317  -2.282  24.401  0.00  0.00    +0.023 C 
ENDBRANCH   4   2
BRANCH  11  13
ATOM     13  C   UNL     1      -3.079   2.481  24.661  0.00  0.00    +0.260 C 
ATOM     14  O   UNL     1      -3.182   3.057  24.079  0.00  0.00    -0.272 OA
ATOM     15  N   UNL     1      -2.508   2.584  25.248  0.00  0.00    -0.197 NA
BRANCH  15  16
ATOM     16  C   UNL     1      -2.041   3.263  25.253  0.00  0.00    +0.174 C 
BRANCH  16  24
ATOM     24  C   UNL     1      -2.223   3.885  25.763  0.00  0.00    +0.281 C 
ATOM     25  N   UNL     1      -2.203   4.663  25.489  0.00  0.00    -0.086 NA
ATOM     26  O   UNL     1      -2.424   3.729  26.548  0.00  0.00    -0.270 OA
ENDBRANCH  16  24
BRANCH  16  17
ATOM     17  C   UNL     1      -1.391   3.320  24.748  0.00  0.00    +0.031 C 
BRANCH  17  18
ATOM     18  C   UNL     1      -0.705   2.891  24.908  0.00  0.00    +0.002 C 
ATOM     19  C   UNL     1      -0.414   2.848  25.678  0.00  0.00    +0.000 C 
ATOM     20  C   UNL     1       0.272   2.418  25.837  0.00  0.00    +0.000 C 
ATOM     21  C   UNL     1       0.667   2.031  25.225  0.00  0.00    +0.000 C 
ATOM     22  C   UNL     1       0.376   2.073  24.454  0.00  0.00    +0.000 C 
ATOM     23  C   UNL     1      -0.310   2.503  24.295  0.00  0.00    +0.000 C 
ENDBRANCH  17  18
ENDBRANCH  16  17
ENDBRANCH  15  16
ENDBRANCH  11  13
BRANCH  10  27
ATOM     27  S   UNL     1      -4.703   2.599  24.388  0.00  0.00    +0.064 S 
ATOM     28  O   UNL     1      -5.046   3.338  24.257  0.00  0.00    -0.153 OA
ATOM     29  O   UNL     1      -4.135   2.761  23.810  0.00  0.00    -0.153 OA
BRANCH  27  30
ATOM     30  C   UNL     1      -5.270   2.438  24.964  0.00  0.00    +0.122 A 
ATOM     31  C   UNL     1      -5.939   1.994  24.772  0.00  0.00    +0.020 A 
ATOM     32  C   UNL     1      -6.506   1.833  25.348  0.00  0.00    +0.001 A 
ATOM     33  C   UNL     1      -6.404   2.115  26.117  0.00  0.00    +0.000 A 
ATOM     34  C   UNL     1      -5.736   2.557  26.309  0.00  0.00    +0.001 A 
ATOM     35  C   UNL     1      -5.169   2.719  25.733  0.00  0.00    +0.020 A 
ENDBRANCH  27  30
ENDBRANCH  10  27
TORSDOF 8
ENDMDL
MODEL 5
REMARK VINA RESULT:     -10.7      1.974      5.048
REMARK  Name = 
REMARK  8 active torsions:
REMARK  status: ('A' for Active; 'I' for Inactive)
REMARK    1  A    between atoms: C_2  and  N_4
REMARK    2  A    between atoms: N_10  and  S_27
REMARK    3  A    between atoms: C_11  and  C_13
REMARK    4  A    between atoms: N_15  and  C_16
REMARK    5  A    between atoms: C_16  and  C_17
REMARK    6  A    between atoms: C_16  and  C_24
REMARK    7  A    between atoms: C_17  and  C_18
REMARK    8  A    between atoms: S_27  and  C_30
REMARK                            x       y       z     vdW  Elec       q    Type
REMARK                         _______ _______ _______ _____ _____    ______ ____
ROOT
ATOM      4  N   UNL     1       1.090  -0.459  22.872  0.00  0.00    -0.190 NA
ATOM      5  C   UNL     1       0.703   0.156  23.263  0.00  0.00    +0.323 C 
ATOM      6  O   UNL     1       0.858   0.940  23.052  0.00  0.00    -0.251 OA
ATOM      7  N   UNL     1       0.163  -0.011  23.863  0.00  0.00    -0.259 N 
ATOM      8  C   UNL     1       0.009  -0.793  24.073  0.00  0.00    +0.114 C 
ATOM      9  C   UNL     1      -0.531  -0.960  24.674  0.00  0.00    +0.118 C 
ATOM     10  N   UNL     1      -0.918  -0.345  25.064  0.00  0.00    -0.145 NA
ATOM     11  C   UNL     1      -0.763   0.439  24.854  0.00  0.00    +0.177 C 
ATOM     12  C   UNL     1      -0.223   0.606  24.253  0.00  0.00    +0.122 C 
ENDROOT
BRANCH   4   2
ATOM      1  C   UNL     1       2.380  -0.004  22.459  0.00  0.00    +0.023 C 
ATOM      2  C   UNL     1       1.630  -0.292  22.271  0.00  0.00    +0.097 C 
ATOM      3  C   UNL     1       1.421  -0.412  21.483  0.00  0.00    +0.023 C 
ENDBRANCH   4   2
BRANCH  11  13
ATOM     13  C   UNL     1      -1.150   1.055  25.245  0.00  0.00    +0.260 C 
ATOM     14  O   UNL     1      -1.245   1.028  26.064  0.00  0.00    -0.272 OA
ATOM     15  N   UNL     1      -1.441   1.697  24.816  0.00  0.00    -0.197 NA
BRANCH  15  16
ATOM     16  C   UNL     1      -1.827   2.312  25.207  0.00  0.00    +0.174 C 
BRANCH  16  24
ATOM     24  C   UNL     1      -1.393   2.943  25.513  0.00  0.00    +0.281 C 
ATOM     25  N   UNL     1      -0.836   3.328  25.042  0.00  0.00    -0.086 NA
ATOM     26  O   UNL     1      -1.516   3.189  26.290  0.00  0.00    -0.270 OA
ENDBRANCH  16  24
BRANCH  16  17
ATOM     17  C   UNL     1      -2.647   2.296  25.291  0.00  0.00    +0.031 C 
BRANCH  17  18
ATOM     18  C   UNL     1      -3.128   2.655  24.725  0.00  0.00    +0.002 C 
ATOM     19  C   UNL     1      -3.185   2.333  23.968  0.00  0.00    +0.000 C 
ATOM     20  C   UNL     1      -3.666   2.693  23.402  0.00  0.00    +0.000 C 
ATOM     21  C   UNL     1      -4.090   3.374  23.594  0.00  0.00    +0.000 C 
ATOM     22  C   UNL     1      -4.033   3.695  24.351  0.00  0.00    +0.000 C 
ATOM     23  C   UNL     1      -3.552   3.336  24.917  0.00  0.00    +0.000 C 
ENDBRANCH  17  18
ENDBRANCH  16  17
ENDBRANCH  15  16
ENDBRANCH  11  13
BRANCH  10  27
ATOM     27  S   UNL     1      -1.458  -0.512  25.665  0.00  0.00    +0.064 S 
ATOM     28  O   UNL     1      -1.998  -0.679  26.266  0.00  0.00    -0.153 OA
ATOM     29  O   UNL     1      -1.073   0.025  26.161  0.00  0.00    -0.153 OA
BRANCH  27  30
ATOM     30  C   UNL     1      -1.842  -1.048  25.170  0.00  0.00    +0.122 A 
ATOM     31  C   UNL     1      -1.547  -1.814  25.084  0.00  0.00    +0.020 A 
ATOM     32  C   UNL     1      -1.932  -2.350  24.589  0.00  0.00    +0.001 A 
ATOM     33  C   UNL     1      -2.611  -2.120  24.180  0.00  0.00    +0.000 A 
ATOM     34  C   UNL     1      -2.905  -1.355  24.267  0.00  0.00    +0.001 A 
ATOM     35  C   UNL     1      -2.521  -0.819  24.762  0.00  0.00    +0.020 A 
ENDBRANCH  27  30
ENDBRANCH  10  27
TORSDOF 8
ENDMDL
MODEL 6
REMARK VINA RESULT:     -10.5      1.442      4.142
REMARK  Name = 
REMARK  8 active torsions:
REMARK  status: ('A' for Active; 'I' for Inactive)
REMARK    1  A    between atoms: C_2  and  N_4
REMARK    2  A    between atoms: N_10  and  S_27
REMARK    3  A    between atoms: C_11  and  C_13
REMARK    4  A    between atoms: N_15  and  C_16
REMARK    5  A    between atoms: C_16  and  C_17
REMARK    6  A    between atoms: C_16  and  C_24
REMARK    7  A    between atoms: C_17  and  C_18
REMARK    8  A    between atoms: S_27  and  C_30
REMARK                            x       y       z     vdW  Elec       q    Type
REMARK                         _______ _______ _______ _____ _____    ______ ____
ROOT
ATOM      4  N   UNL     1      -2.960  -2.123  24.529  0.00  0.00    -0.190 NA
ATOM      5  C   UNL     1      -3.149  -1.324  24.610  0.00  0.00    +0.323 C 
ATOM      6  O   UNL     1      -3.937  -1.080  24.574  0.00  0.00    -0.251 OA
ATOM      7  N   UNL     1      -2.550  -0.768  24.726  0.00  0.00    -0.259 N 
ATOM      8  C   UNL     1      -1.763  -1.011  24.762  0.00  0.00    +0.114 C 
ATOM      9  C   UNL     1      -1.165  -0.455  24.878  0.00  0.00    +0.118 C 
ATOM     10  N   UNL     1      -1.353   0.344  24.959  0.00  0.00    -0.145 NA
ATOM     11  C   UNL     1      -2.141   0.587  24.923  0.00  0.00    +0.177 C 
ATOM     12  C   UNL     1      -2.740   0.031  24.806  0.00  0.00    +0.122 C 
ENDROOT
BRANCH   4   2
ATOM      1  C   UNL     1      -3.672  -3.283  24.962  0.00  0.00    +0.023 C 
ATOM      2  C   UNL     1      -3.559  -2.678  24.413  0.00  0.00    +0.097 C 
ATOM      3  C   UNL     1      -4.043  -2.629  23.748  0.00  0.00    +0.023 C 
ENDBRANCH   4   2
BRANCH  11  13
ATOM     13  C   UNL     1      -2.330   1.387  25.003  0.00  0.00    +0.260 C 
ATOM     14  O   UNL     1      -1.856   1.877  25.466  0.00  0.00    -0.272 OA
ATOM     15  N   UNL     1      -2.993   1.695  24.620  0.00  0.00    -0.197 NA
BRANCH  15  16
ATOM     16  C   UNL     1      -3.182   2.493  24.700  0.00  0.00    +0.174 C 
BRANCH  16  24
ATOM     24  C   UNL     1      -3.011   3.021  24.090  0.00  0.00    +0.281 C 
ATOM     25  N   UNL     1      -2.620   3.729  24.253  0.00  0.00    -0.086 NA
ATOM     26  O   UNL     1      -3.232   2.841  23.316  0.00  0.00    -0.270 OA
ENDBRANCH  16  24
BRANCH  16  17
ATOM     17  C   UNL     1      -3.541   2.764  25.392  0.00  0.00    +0.031 C 
BRANCH  17  18
ATOM     18  C   UNL     1      -4.362   2.827  25.433  0.00  0.00    +0.002 C 
ATOM     19  C   UNL     1      -4.832   2.152  25.372  0.00  0.00    +0.000 C 
ATOM     20  C   UNL     1      -5.654   2.216  25.413  0.00  0.00    +0.000 C 
ATOM     21  C   UNL     1      -6.005   2.954  25.516  0.00  0.00    +0.000 C 
ATOM     22  C   UNL     1      -5.536   3.630  25.577  0.00  0.00    +0.000 C 
ATOM     23  C   UNL     1      -4.714   3.567  25.536  0.00  0.00    +0.000 C 
ENDBRANCH  17  18
ENDBRANCH  16  17
ENDBRANCH  15  16
ENDBRANCH  11  13
BRANCH  10  27
ATOM     27  S   UNL     1      -0.755   0.900  25.075  0.00  0.00    +0.064 S 
ATOM     28  O   UNL     1      -0.156   1.455  25.191  0.00  0.00    -0.153 OA
ATOM     29  O   UNL     1      -1.149   1.184  25.743  0.00  0.00    -0.153 OA
BRANCH  27  30
ATOM     30  C   UNL     1      -0.361   0.616  24.408  0.00  0.00    +0.122 A 
ATOM     31  C   UNL     1       0.102  -0.065  24.461  0.00  0.00    +0.020 A 
ATOM     32  C   UNL     1       0.495  -0.350  23.794  0.00  0.00    +0.001 A 
ATOM     33  C   UNL     1       0.425   0.048  23.074  0.00  0.00    +0.000 A 
ATOM     34  C   UNL     1      -0.037   0.728  23.021  0.00  0.00    +0.001 A 
ATOM     35  C   UNL     1      -0.431   1.012  23.689  0.00  0.00    +0.020 A 
ENDBRANCH  27  30
ENDBRANCH  10  27
TORSDOF 8
ENDMDL
MODEL 7
REMARK VINA RESULT:     -10.2      1.887      3.669
REMARK  Name = 
REMARK  8 active torsions:
REMARK  status: ('A' for Active; 'I' for Inactive)
REMARK    1  A    between atoms: C_2  and  N_4
REMARK    2  A    between atoms: N_10  and  S_27
REMARK    3  A    between atoms: C_11  and  C_13
REMARK    4  A    between atoms: N_15  and  C_16
REMARK    5  A    between atoms: C_16  and  C_17
REMARK    6  A    between atoms: C_16  and  C_24
REMARK    7  A    between atoms: C_17  and  C_18
REMARK    8  A    between atoms: S_27  and  C_30
REMARK                            x       y       z     vdW  Elec       q    Type
REMARK                         _______ _______ _______ _____ _____    ______ ____
ROOT
ATOM      4  N   UNL     1       1.214   0.488  23.186  0.00  0.00    -0.190 NA
ATOM      5  C   UNL     1       0.454   0.278  23.428  0.00  0.00    +0.323 C 
ATOM      6  O   UNL     1       0.097  -0.402  23.124  0.00  0.00    -0.251 OA
ATOM      7  N   UNL     1       0.050   0.746  23.974  0.00  0.00    -0.259 N 
ATOM      8  C   UNL     1       0.406   1.425  24.278  0.00  0.00    +0.114 C 
ATOM      9  C   UNL     1       0.002   1.894  24.823  0.00  0.00    +0.118 C 
ATOM     10  N   UNL     1      -0.758   1.684  25.065  0.00  0.00    -0.145 NA
ATOM     11  C   UNL     1      -1.114   1.004  24.761  0.00  0.00    +0.177 C 
ATOM     12  C   UNL     1      -0.710   0.535  24.215  0.00  0.00    +0.122 C 
ENDROOT
BRANCH   4   2
ATOM      1  C   UNL     1       1.223  -0.278  21.981  0.00  0.00    +0.023 C 
ATOM      2  C   UNL     1       1.618   0.019  22.640  0.00  0.00    +0.097 C 
ATOM      3  C   UNL     1       2.416  -0.152  22.755  0.00  0.00    +0.023 C 
ENDBRANCH   4   2
BRANCH  11  13
ATOM     13  C   UNL     1      -1.875   0.793  25.003  0.00  0.00    +0.260 C 
ATOM     14  O   UNL     1      -2.118   0.946  25.777  0.00  0.00    -0.272 OA
ATOM     15  N   UNL     1      -2.392   0.430  24.472  0.00  0.00    -0.197 NA
BRANCH  15  16
ATOM     16  C   UNL     1      -3.151   0.220  24.714  0.00  0.00    +0.174 C 
BRANCH  16  24
ATOM     24  C   UNL     1      -3.797   0.680  24.491  0.00  0.00    +0.281 C 
ATOM     25  N   UNL     1      -4.375   0.879  25.045  0.00  0.00    -0.086 NA
ATOM     26  O   UNL     1      -3.867   0.942  23.711  0.00  0.00    -0.270 OA
ENDBRANCH  16  24
BRANCH  16  17
ATOM     17  C   UNL     1      -3.264  -0.451  25.181  0.00  0.00    +0.031 C 
BRANCH  17  18
ATOM     18  C   UNL     1      -3.385  -1.185  24.825  0.00  0.00    +0.002 C 
ATOM     19  C   UNL     1      -4.016  -1.293  24.304  0.00  0.00    +0.000 C 
ATOM     20  C   UNL     1      -4.136  -2.028  23.949  0.00  0.00    +0.000 C 
ATOM     21  C   UNL     1      -3.627  -2.655  24.115  0.00  0.00    +0.000 C 
ATOM     22  C   UNL     1      -2.996  -2.547  24.636  0.00  0.00    +0.000 C 
ATOM     23  C   UNL     1      -2.875  -1.813  24.991  0.00  0.00    +0.000 C 
ENDBRANCH  17  18
ENDBRANCH  16  17
ENDBRANCH  15  16
ENDBRANCH  11  13
BRANCH  10  27
ATOM     27  S   UNL     1      -1.162   2.152  25.611  0.00  0.00    +0.064 S 
ATOM     28  O   UNL     1      -1.566   2.621  26.157  0.00  0.00    -0.153 OA
ATOM     29  O   UNL     1      -1.303   1.486  26.079  0.00  0.00    -0.153 OA
BRANCH  27  30
ATOM     30  C   UNL     1      -1.021   2.818  25.144  0.00  0.00    +0.122 A 
ATOM     31  C   UNL     1      -0.347   3.276  25.272  0.00  0.00    +0.020 A 
ATOM     32  C   UNL     1      -0.206   3.941  24.805  0.00  0.00    +0.001 A 
ATOM     33  C   UNL     1      -0.740   4.147  24.210  0.00  0.00    +0.000 A 
ATOM     34  C   UNL     1      -1.413   3.689  24.083  0.00  0.00    +0.001 A 
ATOM     35  C   UNL     1      -1.554   3.024  24.550  0.00  0.00    +0.020 A 
ENDBRANCH  27  30
ENDBRANCH  10  27
TORSDOF 8
ENDMDL
