REMARK  Name = 
REMARK  11 active torsions:
REMARK  status: ('A' for Active; 'I' for Inactive)
REMARK    1  A    between atoms: O_2  and  C_3
REMARK    2  A    between atoms: C_4  and  O_5
REMARK    3  A    between atoms: C_8  and  C_9
REMARK    4  A    between atoms: C_9  and  N_10
REMARK    5  A    between atoms: C_11  and  C_13
REMARK    6  A    between atoms: C_13  and  C_14
REMARK    7  A    between atoms: C_19  and  C_20
REMARK    8  A    between atoms: C_20  and  C_21
REMARK    9  A    between atoms: C_24  and  C_25
REMARK   10  A    between atoms: C_25  and  S_26
REMARK   11  A    between atoms: S_26  and  C_27
REMARK                            x       y       z     vdW  Elec       q    Type
REMARK                         _______ _______ _______ _____ _____    ______ ____
ROOT
ATOM     14  C   UNL     1       2.143  -0.412   0.000  0.00  0.00    +0.012 C 
ATOM     15  C   UNL     1       2.858   0.000   0.000  0.00  0.00    +0.019 C 
ATOM     16  C   UNL     1       3.572  -0.412   0.000  0.00  0.00    +0.089 C 
ATOM     17  N   UNL     1       3.572  -1.238   0.000  0.00  0.00    -0.218 NA
ATOM     18  C   UNL     1       2.858  -1.650   0.000  0.00  0.00    +0.089 C 
ATOM     19  C   UNL     1       2.143  -1.238   0.000  0.00  0.00    +0.024 C 
ENDROOT
BRANCH  14  13
ATOM     13  C   UNL     1       1.429   0.000   0.000  0.00  0.00    +0.087 C 
BRANCH  13  11
ATOM     10  N   UNL     1       2.143   1.238   0.000  0.00  0.00    -0.201 NA
ATOM     11  C   UNL     1       1.429   0.825   0.000  0.00  0.00    +0.242 C 
ATOM     12  O   UNL     1       0.715   1.238   0.000  0.00  0.00    -0.273 OA
BRANCH  10   9
ATOM      9  C   UNL     1       2.858   0.825   0.000  0.00  0.00    +0.142 C 
BRANCH   9   8
ATOM      3  C   UNL     1       5.001   2.062   0.000  0.00  0.00    +0.172 A 
ATOM      4  C   UNL     1       5.001   1.238   0.000  0.00  0.00    +0.172 A 
ATOM      7  C   UNL     1       4.287   0.825   0.000  0.00  0.00    +0.037 A 
ATOM      8  C   UNL     1       3.572   1.238   0.000  0.00  0.00    +0.003 A 
ATOM     34  C   UNL     1       3.572   2.062   0.000  0.00  0.00    +0.001 A 
ATOM     35  C   UNL     1       4.287   2.475   0.000  0.00  0.00    +0.040 A 
BRANCH   3   2
ATOM      1  C   UNL     1       5.716   3.300   0.000  0.00  0.00    +0.253 C 
ATOM      2  O   UNL     1       5.716   2.475   0.000  0.00  0.00    -0.468 OA
ENDBRANCH   3   2
BRANCH   4   5
ATOM      5  O   UNL     1       5.716   0.825   0.000  0.00  0.00    -0.468 OA
ATOM      6  C   UNL     1       5.716   0.000   0.000  0.00  0.00    +0.253 C 
ENDBRANCH   4   5
ENDBRANCH   9   8
ENDBRANCH  10   9
ENDBRANCH  13  11
ENDBRANCH  14  13
BRANCH  19  20
ATOM     20  C   UNL     1       1.429  -1.650   0.000  0.00  0.00    +0.051 C 
BRANCH  20  21
ATOM     21  C   UNL     1       1.429  -2.475   0.000  0.00  0.00    +0.100 A 
ATOM     22  N   UNL     1       2.096  -2.960   0.000  0.00  0.00    -0.082 NA
ATOM     23  O   UNL     1       1.841  -3.744   0.000  0.00  0.00    -0.357 OA
ATOM     24  C   UNL     1       1.016  -3.744   0.000  0.00  0.00    +0.165 A 
ATOM     33  C   UNL     1       0.761  -2.960   0.000  0.00  0.00    +0.054 A 
BRANCH  24  25
ATOM     25  C   UNL     1       0.531  -4.412   0.000  0.00  0.00    +0.129 C 
BRANCH  25  26
ATOM     26  S   UNL     1       0.867  -5.166   0.000  0.00  0.00    -0.105 S 
BRANCH  26  27
ATOM     27  C   UNL     1       0.382  -5.833   0.000  0.00  0.00    +0.026 A 
ATOM     28  C   UNL     1       0.718  -6.587   0.000  0.00  0.00    +0.006 A 
ATOM     29  C   UNL     1       0.233  -7.254   0.000  0.00  0.00    +0.001 A 
ATOM     30  C   UNL     1      -0.588  -7.168   0.000  0.00  0.00    +0.000 A 
ATOM     31  C   UNL     1      -0.923  -6.414   0.000  0.00  0.00    +0.001 A 
ATOM     32  C   UNL     1      -0.438  -5.747   0.000  0.00  0.00    +0.006 A 
ENDBRANCH  26  27
ENDBRANCH  25  26
ENDBRANCH  24  25
ENDBRANCH  20  21
ENDBRANCH  19  20
TORSDOF 11
