MODEL 1
REMARK VINA RESULT:     -15.1      0.000      0.000
REMARK  Name = 
REMARK  1 active torsions:
REMARK  status: ('A' for Active; 'I' for Inactive)
REMARK    1  A    between atoms: C_14  and  C_16
REMARK                            x       y       z     vdW  Elec       q    Type
REMARK                         _______ _______ _______ _____ _____    ______ ____
ROOT
ATOM      1  C   UNL     1      -3.573  -3.668  24.325  0.00  0.00    +0.012 C 
ATOM      2  C   UNL     1      -3.654  -2.851  24.250  0.00  0.00    +0.103 C 
ATOM      3  C   UNL     1      -3.126  -2.283  24.535  0.00  0.00    +0.051 C 
ATOM      4  C   UNL     1      -2.415  -2.349  24.947  0.00  0.00    +0.004 C 
ATOM      5  C   UNL     1      -1.999  -1.670  25.163  0.00  0.00    +0.001 C 
ATOM      6  C   UNL     1      -2.296  -0.924  24.967  0.00  0.00    +0.008 C 
ATOM      7  C   UNL     1      -1.584  -0.990  25.380  0.00  0.00    +0.000 C 
ATOM      8  C   UNL     1      -1.880  -0.245  25.183  0.00  0.00    +0.034 C 
ATOM      9  C   UNL     1      -2.177   0.499  24.986  0.00  0.00    +0.023 A 
ATOM     10  C   UNL     1      -2.888   0.565  24.574  0.00  0.00    +0.063 A 
ATOM     11  N   UNL     1      -3.042   1.367  24.457  0.00  0.00    -0.227 NA
ATOM     12  C   UNL     1      -2.426   1.797  24.797  0.00  0.00    +0.185 A 
ATOM     13  N   UNL     1      -2.357   2.619  24.809  0.00  0.00    -0.151 NA
ATOM     14  C   UNL     1      -1.707   2.973  25.172  0.00  0.00    +0.271 C 
ATOM     15  O   UNL     1      -1.126   2.506  25.523  0.00  0.00    -0.268 OA
ATOM     24  S   UNL     1      -1.892   1.261  25.124  0.00  0.00    -0.054 S 
ATOM     25  C   UNL     1      -3.303  -0.115  24.358  0.00  0.00    +0.044 C 
ATOM     26  C   UNL     1      -4.014  -0.049  23.945  0.00  0.00    +0.006 C 
ATOM     27  C   UNL     1      -3.007  -0.859  24.554  0.00  0.00    +0.046 C 
ATOM     28  C   UNL     1      -3.423  -1.539  24.338  0.00  0.00    +0.170 C 
ATOM     29  O   UNL     1      -4.132  -1.646  23.932  0.00  0.00    -0.452 OA
ATOM     30  C   UNL     1      -4.275  -2.456  23.877  0.00  0.00    +0.316 C 
ATOM     31  O   UNL     1      -4.925  -2.811  23.515  0.00  0.00    -0.250 OA
ENDROOT
BRANCH  14  16
ATOM     16  C   UNL     1      -1.638   3.795  25.183  0.00  0.00    +0.056 A 
ATOM     17  C   UNL     1      -0.985   4.160  24.836  0.00  0.00    +0.018 A 
ATOM     18  C   UNL     1      -0.916   4.982  24.848  0.00  0.00    +0.085 A 
ATOM     19 CL   UNL     1      -0.262   5.346  24.500  0.00  0.00    -0.080 Cl
ATOM     20  C   UNL     1      -1.501   5.440  25.207  0.00  0.00    +0.151 A 
ATOM     21  F   UNL     1      -1.432   6.262  25.218  0.00  0.00    -0.203 F 
ATOM     22  C   UNL     1      -2.154   5.075  25.554  0.00  0.00    +0.031 A 
ATOM     23  C   UNL     1      -2.223   4.253  25.542  0.00  0.00    +0.007 A 
ENDBRANCH  14  16
TORSDOF 1
ENDMDL
MODEL 2
REMARK VINA RESULT:     -14.9      2.736      6.228
REMARK  Name = 
REMARK  1 active torsions:
REMARK  status: ('A' for Active; 'I' for Inactive)
REMARK    1  A    between atoms: C_14  and  C_16
REMARK                            x       y       z     vdW  Elec       q    Type
REMARK                         _______ _______ _______ _____ _____    ______ ____
ROOT
ATOM      1  C   UNL     1      -1.687   6.063  25.260  0.00  0.00    +0.012 C 
ATOM      2  C   UNL     1      -1.590   5.261  25.093  0.00  0.00    +0.103 C 
ATOM      3  C   UNL     1      -2.176   4.682  25.138  0.00  0.00    +0.051 C 
ATOM      4  C   UNL     1      -2.973   4.719  25.346  0.00  0.00    +0.004 C 
ATOM      5  C   UNL     1      -3.433   4.034  25.341  0.00  0.00    +0.001 C 
ATOM      6  C   UNL     1      -3.095   3.311  25.127  0.00  0.00    +0.008 C 
ATOM      7  C   UNL     1      -3.893   3.348  25.335  0.00  0.00    +0.000 C 
ATOM      8  C   UNL     1      -3.554   2.626  25.121  0.00  0.00    +0.034 C 
ATOM      9  C   UNL     1      -3.216   1.905  24.907  0.00  0.00    +0.023 A 
ATOM     10  C   UNL     1      -2.419   1.868  24.699  0.00  0.00    +0.063 A 
ATOM     11  N   UNL     1      -2.240   1.084  24.514  0.00  0.00    -0.227 NA
ATOM     12  C   UNL     1      -2.926   0.636  24.608  0.00  0.00    +0.185 A 
ATOM     13  N   UNL     1      -2.996  -0.175  24.481  0.00  0.00    -0.151 NA
ATOM     14  C   UNL     1      -3.722  -0.550  24.598  0.00  0.00    +0.271 C 
ATOM     15  O   UNL     1      -4.377  -0.112  24.842  0.00  0.00    -0.268 OA
ATOM     24  S   UNL     1      -3.529   1.144  24.851  0.00  0.00    -0.054 S 
ATOM     25  C   UNL     1      -1.960   2.553  24.705  0.00  0.00    +0.044 C 
ATOM     26  C   UNL     1      -1.162   2.517  24.496  0.00  0.00    +0.006 C 
ATOM     27  C   UNL     1      -2.298   3.275  24.918  0.00  0.00    +0.046 C 
ATOM     28  C   UNL     1      -1.837   3.961  24.924  0.00  0.00    +0.170 C 
ATOM     29  O   UNL     1      -1.043   4.093  24.747  0.00  0.00    -0.452 OA
ATOM     30  C   UNL     1      -0.890   4.897  24.851  0.00  0.00    +0.316 C 
ATOM     31  O   UNL     1      -0.165   5.272  24.734  0.00  0.00    -0.250 OA
ENDROOT
BRANCH  14  16
ATOM     16  C   UNL     1      -3.792  -1.362  24.471  0.00  0.00    +0.056 A 
ATOM     17  C   UNL     1      -3.454  -1.894  25.003  0.00  0.00    +0.018 A 
ATOM     18  C   UNL     1      -3.524  -2.706  24.877  0.00  0.00    +0.085 A 
ATOM     19 CL   UNL     1      -3.186  -3.238  25.410  0.00  0.00    -0.080 Cl
ATOM     20  C   UNL     1      -3.934  -2.987  24.218  0.00  0.00    +0.151 A 
ATOM     21  F   UNL     1      -4.004  -3.799  24.091  0.00  0.00    -0.203 F 
ATOM     22  C   UNL     1      -4.272  -2.454  23.686  0.00  0.00    +0.031 A 
ATOM     23  C   UNL     1      -4.201  -1.642  23.812  0.00  0.00    +0.007 A 
ENDBRANCH  14  16
TORSDOF 1
ENDMDL
MODEL 3
REMARK VINA RESULT:     -12.5      3.297      4.463
REMARK  Name = 
REMARK  1 active torsions:
REMARK  status: ('A' for Active; 'I' for Inactive)
REMARK    1  A    between atoms: C_14  and  C_16
REMARK                            x       y       z     vdW  Elec       q    Type
REMARK                         _______ _______ _______ _____ _____    ______ ____
ROOT
ATOM      1  C   UNL     1      -6.356   1.972  25.682  0.00  0.00    +0.012 C 
ATOM      2  C   UNL     1      -5.594   2.135  25.411  0.00  0.00    +0.103 C 
ATOM      3  C   UNL     1      -5.013   1.576  25.234  0.00  0.00    +0.051 C 
ATOM      4  C   UNL     1      -5.011   0.752  25.269  0.00  0.00    +0.004 C 
ATOM      5  C   UNL     1      -4.334   0.332  25.053  0.00  0.00    +0.001 C 
ATOM      6  C   UNL     1      -3.660   0.737  24.801  0.00  0.00    +0.008 C 
ATOM      7  C   UNL     1      -3.658  -0.088  24.836  0.00  0.00    +0.000 C 
ATOM      8  C   UNL     1      -2.983   0.317  24.585  0.00  0.00    +0.034 C 
ATOM      9  C   UNL     1      -2.310   0.721  24.335  0.00  0.00    +0.023 A 
ATOM     10  C   UNL     1      -2.312   1.545  24.300  0.00  0.00    +0.063 A 
ATOM     11  N   UNL     1      -1.571   1.792  24.033  0.00  0.00    -0.227 NA
ATOM     12  C   UNL     1      -1.111   1.120  23.902  0.00  0.00    +0.185 A 
ATOM     13  N   UNL     1      -0.331   1.110  23.633  0.00  0.00    -0.151 NA
ATOM     14  C   UNL     1       0.061   0.392  23.528  0.00  0.00    +0.271 C 
ATOM     15  O   UNL     1      -0.327  -0.317  23.692  0.00  0.00    -0.268 OA
ATOM     24  S   UNL     1      -1.567   0.458  24.089  0.00  0.00    -0.054 S 
ATOM     25  C   UNL     1      -2.988   1.965  24.516  0.00  0.00    +0.044 C 
ATOM     26  C   UNL     1      -2.990   2.789  24.482  0.00  0.00    +0.006 C 
ATOM     27  C   UNL     1      -3.662   1.561  24.767  0.00  0.00    +0.046 C 
ATOM     28  C   UNL     1      -4.339   1.981  24.983  0.00  0.00    +0.170 C 
ATOM     29  O   UNL     1      -4.503   2.789  25.005  0.00  0.00    -0.452 OA
ATOM     30  C   UNL     1      -5.279   2.884  25.270  0.00  0.00    +0.316 C 
ATOM     31  O   UNL     1      -5.670   3.602  25.375  0.00  0.00    -0.250 OA
ENDROOT
BRANCH  14  16
ATOM     16  C   UNL     1       0.840   0.383  23.258  0.00  0.00    +0.056 A 
ATOM     17  C   UNL     1       1.036  -0.033  22.573  0.00  0.00    +0.018 A 
ATOM     18  C   UNL     1       1.815  -0.042  22.303  0.00  0.00    +0.085 A 
ATOM     19 CL   UNL     1       2.010  -0.459  21.618  0.00  0.00    -0.080 Cl
ATOM     20  C   UNL     1       2.400   0.365  22.719  0.00  0.00    +0.151 A 
ATOM     21  F   UNL     1       3.180   0.355  22.449  0.00  0.00    -0.203 F 
ATOM     22  C   UNL     1       2.204   0.781  23.404  0.00  0.00    +0.031 A 
ATOM     23  C   UNL     1       1.425   0.790  23.674  0.00  0.00    +0.007 A 
ENDBRANCH  14  16
TORSDOF 1
ENDMDL
