MODEL 1
REMARK VINA RESULT:      -5.1      0.000      0.000
REMARK  Name = 
REMARK  4 active torsions:
REMARK  status: ('A' for Active; 'I' for Inactive)
REMARK    1  A    between atoms: O_2  and  C_3
REMARK    2  A    between atoms: C_3  and  C_4
REMARK    3  A    between atoms: C_4  and  O_5
REMARK    4  A    between atoms: O_5  and  C_6
REMARK                            x       y       z     vdW  Elec       q    Type
REMARK                         _______ _______ _______ _____ _____    ______ ____
ROOT
ATOM      6  C   UNL     1      -3.864  -0.586  24.727  0.00  0.00    +0.162 C 
ATOM      7  C   UNL     1      -3.549  -0.941  25.403  0.00  0.00    +0.121 C 
ATOM      8  N   UNL     1      -3.390  -1.738  25.539  0.00  0.00    -0.213 NA
ATOM      9  C   UNL     1      -3.507  -2.379  25.033  0.00  0.00    +0.121 C 
ATOM     10  C   UNL     1      -3.812  -2.381  24.267  0.00  0.00    +0.161 C 
ATOM     11  O   UNL     1      -4.075  -1.742  23.816  0.00  0.00    -0.350 OA
ATOM     12  C   UNL     1      -4.098  -0.942  24.022  0.00  0.00    +0.173 C 
ENDROOT
BRANCH   6   5
ATOM      5  O   UNL     1      -3.957   0.232  24.764  0.00  0.00    -0.350 OA
BRANCH   5   4
ATOM      4  C   UNL     1      -4.674   0.555  25.016  0.00  0.00    +0.174 C 
BRANCH   4   3
ATOM      3  C   UNL     1      -4.770   1.374  25.046  0.00  0.00    +0.174 C 
BRANCH   3   2
ATOM      1  C   UNL     1      -5.553   2.509  25.419  0.00  0.00    +0.174 C 
ATOM      2  O   UNL     1      -5.488   1.696  25.294  0.00  0.00    -0.348 OA
ENDBRANCH   3   2
ENDBRANCH   4   3
ENDBRANCH   5   4
ENDBRANCH   6   5
TORSDOF 4
ENDMDL
MODEL 2
REMARK VINA RESULT:      -5.1      3.251      4.337
REMARK  Name = 
REMARK  4 active torsions:
REMARK  status: ('A' for Active; 'I' for Inactive)
REMARK    1  A    between atoms: O_2  and  C_3
REMARK    2  A    between atoms: C_3  and  C_4
REMARK    3  A    between atoms: C_4  and  O_5
REMARK    4  A    between atoms: O_5  and  C_6
REMARK                            x       y       z     vdW  Elec       q    Type
REMARK                         _______ _______ _______ _____ _____    ______ ____
ROOT
ATOM      6  C   UNL     1      -4.364   3.274  25.051  0.00  0.00    +0.162 C 
ATOM      7  C   UNL     1      -4.847   3.436  25.700  0.00  0.00    +0.121 C 
ATOM      8  N   UNL     1      -5.488   3.003  25.984  0.00  0.00    -0.213 NA
ATOM      9  C   UNL     1      -5.806   2.301  25.690  0.00  0.00    +0.121 C 
ATOM     10  C   UNL     1      -5.560   1.859  25.039  0.00  0.00    +0.161 C 
ATOM     11  O   UNL     1      -4.936   2.008  24.520  0.00  0.00    -0.350 OA
ATOM     12  C   UNL     1      -4.403   2.640  24.526  0.00  0.00    +0.173 C 
ENDROOT
BRANCH   6   5
ATOM      5  O   UNL     1      -3.762   3.820  24.908  0.00  0.00    -0.350 OA
BRANCH   5   4
ATOM      4  C   UNL     1      -3.006   3.688  25.212  0.00  0.00    +0.174 C 
BRANCH   4   3
ATOM      3  C   UNL     1      -2.402   4.229  25.061  0.00  0.00    +0.174 C 
BRANCH   3   2
ATOM      1  C   UNL     1      -1.004   4.526  25.098  0.00  0.00    +0.174 C 
ATOM      2  O   UNL     1      -1.655   4.117  25.396  0.00  0.00    -0.348 OA
ENDBRANCH   3   2
ENDBRANCH   4   3
ENDBRANCH   5   4
ENDBRANCH   6   5
TORSDOF 4
ENDMDL
MODEL 3
REMARK VINA RESULT:      -5.0      3.342      4.376
REMARK  Name = 
REMARK  4 active torsions:
REMARK  status: ('A' for Active; 'I' for Inactive)
REMARK    1  A    between atoms: O_2  and  C_3
REMARK    2  A    between atoms: C_3  and  C_4
REMARK    3  A    between atoms: C_4  and  O_5
REMARK    4  A    between atoms: O_5  and  C_6
REMARK                            x       y       z     vdW  Elec       q    Type
REMARK                         _______ _______ _______ _____ _____    ______ ____
ROOT
ATOM      6  C   UNL     1      -4.303   3.220  24.982  0.00  0.00    +0.162 C 
ATOM      7  C   UNL     1      -4.335   2.559  24.488  0.00  0.00    +0.121 C 
ATOM      8  N   UNL     1      -4.864   1.926  24.510  0.00  0.00    -0.213 NA
ATOM      9  C   UNL     1      -5.490   1.798  25.030  0.00  0.00    +0.121 C 
ATOM     10  C   UNL     1      -5.743   2.269  25.657  0.00  0.00    +0.161 C 
ATOM     11  O   UNL     1      -5.432   2.987  25.920  0.00  0.00    -0.350 OA
ATOM     12  C   UNL     1      -4.791   3.410  25.619  0.00  0.00    +0.173 C 
ENDROOT
BRANCH   6   5
ATOM      5  O   UNL     1      -3.703   3.761  24.816  0.00  0.00    -0.350 OA
BRANCH   5   4
ATOM      4  C   UNL     1      -2.974   3.698  25.199  0.00  0.00    +0.174 C 
BRANCH   4   3
ATOM      3  C   UNL     1      -2.377   4.244  25.039  0.00  0.00    +0.174 C 
BRANCH   3   2
ATOM      1  C   UNL     1      -0.991   4.588  25.093  0.00  0.00    +0.174 C 
ATOM      2  O   UNL     1      -1.627   4.144  25.372  0.00  0.00    -0.348 OA
ENDBRANCH   3   2
ENDBRANCH   4   3
ENDBRANCH   5   4
ENDBRANCH   6   5
TORSDOF 4
ENDMDL
MODEL 4
REMARK VINA RESULT:      -5.0      1.677      3.869
REMARK  Name = 
REMARK  4 active torsions:
REMARK  status: ('A' for Active; 'I' for Inactive)
REMARK    1  A    between atoms: O_2  and  C_3
REMARK    2  A    between atoms: C_3  and  C_4
REMARK    3  A    between atoms: C_4  and  O_5
REMARK    4  A    between atoms: O_5  and  C_6
REMARK                            x       y       z     vdW  Elec       q    Type
REMARK                         _______ _______ _______ _____ _____    ______ ____
ROOT
ATOM      6  C   UNL     1      -4.660   1.580  24.876  0.00  0.00    +0.162 C 
ATOM      7  C   UNL     1      -5.423   1.712  25.162  0.00  0.00    +0.121 C 
ATOM      8  N   UNL     1      -5.742   2.405  25.475  0.00  0.00    -0.213 NA
ATOM      9  C   UNL     1      -5.377   3.137  25.580  0.00  0.00    +0.121 C 
ATOM     10  C   UNL     1      -4.604   3.357  25.397  0.00  0.00    +0.161 C 
ATOM     11  O   UNL     1      -4.003   2.900  25.065  0.00  0.00    -0.350 OA
ATOM     12  C   UNL     1      -4.029   2.108  24.833  0.00  0.00    +0.173 C 
ENDROOT
BRANCH   6   5
ATOM      5  O   UNL     1      -4.510   0.819  24.596  0.00  0.00    -0.350 OA
BRANCH   5   4
ATOM      4  C   UNL     1      -4.228   0.239  25.111  0.00  0.00    +0.174 C 
BRANCH   4   3
ATOM      3  C   UNL     1      -4.041  -0.512  24.824  0.00  0.00    +0.174 C 
BRANCH   3   2
ATOM      1  C   UNL     1      -3.535  -1.828  25.055  0.00  0.00    +0.174 C 
ATOM      2  O   UNL     1      -3.812  -1.108  25.347  0.00  0.00    -0.348 OA
ENDBRANCH   3   2
ENDBRANCH   4   3
ENDBRANCH   5   4
ENDBRANCH   6   5
TORSDOF 4
ENDMDL
MODEL 5
REMARK VINA RESULT:      -4.7      2.907      4.158
REMARK  Name = 
REMARK  4 active torsions:
REMARK  status: ('A' for Active; 'I' for Inactive)
REMARK    1  A    between atoms: O_2  and  C_3
REMARK    2  A    between atoms: C_3  and  C_4
REMARK    3  A    between atoms: C_4  and  O_5
REMARK    4  A    between atoms: O_5  and  C_6
REMARK                            x       y       z     vdW  Elec       q    Type
REMARK                         _______ _______ _______ _____ _____    ______ ____
ROOT
ATOM      6  C   UNL     1      -4.080   2.348  24.535  0.00  0.00    +0.162 C 
ATOM      7  C   UNL     1      -4.674   1.780  24.609  0.00  0.00    +0.121 C 
ATOM      8  N   UNL     1      -5.380   1.828  25.032  0.00  0.00    -0.213 NA
ATOM      9  C   UNL     1      -5.666   2.454  25.486  0.00  0.00    +0.121 C 
ATOM     10  C   UNL     1      -5.317   3.187  25.629  0.00  0.00    +0.161 C 
ATOM     11  O   UNL     1      -4.595   3.477  25.353  0.00  0.00    -0.350 OA
ATOM     12  C   UNL     1      -4.044   3.102  24.866  0.00  0.00    +0.173 C 
ENDROOT
BRANCH   6   5
ATOM      5  O   UNL     1      -3.435   2.131  24.068  0.00  0.00    -0.350 OA
BRANCH   5   4
ATOM      4  C   UNL     1      -2.787   1.751  24.410  0.00  0.00    +0.174 C 
BRANCH   4   3
ATOM      3  C   UNL     1      -2.131   1.558  23.948  0.00  0.00    +0.174 C 
BRANCH   3   2
ATOM      1  C   UNL     1      -0.821   0.997  23.845  0.00  0.00    +0.174 C 
ATOM      2  O   UNL     1      -1.522   1.103  24.268  0.00  0.00    -0.348 OA
ENDBRANCH   3   2
ENDBRANCH   4   3
ENDBRANCH   5   4
ENDBRANCH   6   5
TORSDOF 4
ENDMDL
MODEL 6
REMARK VINA RESULT:      -4.6      3.910      4.897
REMARK  Name = 
REMARK  4 active torsions:
REMARK  status: ('A' for Active; 'I' for Inactive)
REMARK    1  A    between atoms: O_2  and  C_3
REMARK    2  A    between atoms: C_3  and  C_4
REMARK    3  A    between atoms: C_4  and  O_5
REMARK    4  A    between atoms: O_5  and  C_6
REMARK                            x       y       z     vdW  Elec       q    Type
REMARK                         _______ _______ _______ _____ _____    ______ ____
ROOT
ATOM      6  C   UNL     1      -2.470   3.761  25.493  0.00  0.00    +0.162 C 
ATOM      7  C   UNL     1      -2.308   4.571  25.507  0.00  0.00    +0.121 C 
ATOM      8  N   UNL     1      -1.617   4.961  25.281  0.00  0.00    -0.213 NA
ATOM      9  C   UNL     1      -0.918   4.639  24.985  0.00  0.00    +0.121 C 
ATOM     10  C   UNL     1      -0.736   3.847  24.842  0.00  0.00    +0.161 C 
ATOM     11  O   UNL     1      -1.209   3.181  24.959  0.00  0.00    -0.350 OA
ATOM     12  C   UNL     1      -1.981   3.143  25.249  0.00  0.00    +0.173 C 
ENDROOT
BRANCH   6   5
ATOM      5  O   UNL     1      -3.219   3.542  25.757  0.00  0.00    -0.350 OA
BRANCH   5   4
ATOM      4  C   UNL     1      -3.775   3.245  25.223  0.00  0.00    +0.174 C 
BRANCH   4   3
ATOM      3  C   UNL     1      -4.537   3.063  25.480  0.00  0.00    +0.174 C 
BRANCH   3   2
ATOM      1  C   UNL     1      -5.732   2.336  25.189  0.00  0.00    +0.174 C 
ATOM      2  O   UNL     1      -5.105   2.808  24.937  0.00  0.00    -0.348 OA
ENDBRANCH   3   2
ENDBRANCH   4   3
ENDBRANCH   5   4
ENDBRANCH   6   5
TORSDOF 4
ENDMDL
MODEL 7
REMARK VINA RESULT:      -4.5      2.407      2.979
REMARK  Name = 
REMARK  4 active torsions:
REMARK  status: ('A' for Active; 'I' for Inactive)
REMARK    1  A    between atoms: O_2  and  C_3
REMARK    2  A    between atoms: C_3  and  C_4
REMARK    3  A    between atoms: C_4  and  O_5
REMARK    4  A    between atoms: O_5  and  C_6
REMARK                            x       y       z     vdW  Elec       q    Type
REMARK                         _______ _______ _______ _____ _____    ______ ____
ROOT
ATOM      6  C   UNL     1      -2.043  -1.060  25.379  0.00  0.00    +0.162 C 
ATOM      7  C   UNL     1      -1.731  -1.628  24.867  0.00  0.00    +0.121 C 
ATOM      8  N   UNL     1      -2.121  -2.250  24.491  0.00  0.00    -0.213 NA
ATOM      9  C   UNL     1      -2.918  -2.458  24.533  0.00  0.00    +0.121 C 
ATOM     10  C   UNL     1      -3.522  -2.095  24.961  0.00  0.00    +0.161 C 
ATOM     11  O   UNL     1      -3.479  -1.435  25.454  0.00  0.00    -0.350 OA
ATOM     12  C   UNL     1      -2.820  -0.974  25.640  0.00  0.00    +0.173 C 
ENDROOT
BRANCH   6   5
ATOM      5  O   UNL     1      -1.505  -0.505  25.667  0.00  0.00    -0.350 OA
BRANCH   5   4
ATOM      4  C   UNL     1      -1.384   0.202  25.258  0.00  0.00    +0.174 C 
BRANCH   4   3
ATOM      3  C   UNL     1      -0.892   0.783  25.577  0.00  0.00    +0.174 C 
BRANCH   3   2
ATOM      1  C   UNL     1      -0.199   2.024  25.434  0.00  0.00    +0.174 C 
ATOM      2  O   UNL     1      -0.613   1.395  25.098  0.00  0.00    -0.348 OA
ENDBRANCH   3   2
ENDBRANCH   4   3
ENDBRANCH   5   4
ENDBRANCH   6   5
TORSDOF 4
ENDMDL
MODEL 8
REMARK VINA RESULT:      -4.4     18.556     19.016
REMARK  Name = 
REMARK  4 active torsions:
REMARK  status: ('A' for Active; 'I' for Inactive)
REMARK    1  A    between atoms: O_2  and  C_3
REMARK    2  A    between atoms: C_3  and  C_4
REMARK    3  A    between atoms: C_4  and  O_5
REMARK    4  A    between atoms: O_5  and  C_6
REMARK                            x       y       z     vdW  Elec       q    Type
REMARK                         _______ _______ _______ _____ _____    ______ ____
ROOT
ATOM      6  C   UNL     1      12.047   7.009  20.542  0.00  0.00    +0.162 C 
ATOM      7  C   UNL     1      11.689   7.728  20.351  0.00  0.00    +0.121 C 
ATOM      8  N   UNL     1      11.044   8.094  20.711  0.00  0.00    -0.213 NA
ATOM      9  C   UNL     1      10.596   7.831  21.352  0.00  0.00    +0.121 C 
ATOM     10  C   UNL     1      10.683   7.138  21.790  0.00  0.00    +0.161 C 
ATOM     11  O   UNL     1      11.239   6.536  21.697  0.00  0.00    -0.350 OA
ATOM     12  C   UNL     1      11.847   6.479  21.141  0.00  0.00    +0.173 C 
ENDROOT
BRANCH   6   5
ATOM      5  O   UNL     1      12.689   6.793  20.072  0.00  0.00    -0.350 OA
BRANCH   5   4
ATOM      4  C   UNL     1      13.459   6.894  20.354  0.00  0.00    +0.174 C 
BRANCH   4   3
ATOM      3  C   UNL     1      14.100   6.781  19.849  0.00  0.00    +0.174 C 
BRANCH   3   2
ATOM      1  C   UNL     1      15.503   6.569  19.678  0.00  0.00    +0.174 C 
ATOM      2  O   UNL     1      14.832   6.552  20.156  0.00  0.00    -0.348 OA
ENDBRANCH   3   2
ENDBRANCH   4   3
ENDBRANCH   5   4
ENDBRANCH   6   5
TORSDOF 4
ENDMDL
MODEL 9
REMARK VINA RESULT:      -4.3     19.299     19.671
REMARK  Name = 
REMARK  4 active torsions:
REMARK  status: ('A' for Active; 'I' for Inactive)
REMARK    1  A    between atoms: O_2  and  C_3
REMARK    2  A    between atoms: C_3  and  C_4
REMARK    3  A    between atoms: C_4  and  O_5
REMARK    4  A    between atoms: O_5  and  C_6
REMARK                            x       y       z     vdW  Elec       q    Type
REMARK                         _______ _______ _______ _____ _____    ______ ____
ROOT
ATOM      6  C   UNL     1      12.967   7.564  18.962  0.00  0.00    +0.162 C 
ATOM      7  C   UNL     1      12.601   7.574  18.222  0.00  0.00    +0.121 C 
ATOM      8  N   UNL     1      12.950   7.590  17.475  0.00  0.00    -0.213 NA
ATOM      9  C   UNL     1      13.753   7.600  17.283  0.00  0.00    +0.121 C 
ATOM     10  C   UNL     1      14.403   7.596  17.790  0.00  0.00    +0.161 C 
ATOM     11  O   UNL     1      14.413   7.582  18.615  0.00  0.00    -0.350 OA
ATOM     12  C   UNL     1      13.773   7.567  19.137  0.00  0.00    +0.173 C 
ENDROOT
BRANCH   6   5
ATOM      5  O   UNL     1      12.460   7.548  19.612  0.00  0.00    -0.350 OA
BRANCH   5   4
ATOM      4  C   UNL     1      12.271   6.829  19.970  0.00  0.00    +0.174 C 
BRANCH   4   3
ATOM      3  C   UNL     1      11.796   6.817  20.644  0.00  0.00    +0.174 C 
BRANCH   3   2
ATOM      1  C   UNL     1      11.112   6.036  21.627  0.00  0.00    +0.174 C 
ATOM      2  O   UNL     1      11.405   6.122  20.860  0.00  0.00    -0.348 OA
ENDBRANCH   3   2
ENDBRANCH   4   3
ENDBRANCH   5   4
ENDBRANCH   6   5
TORSDOF 4
ENDMDL
MODEL 10
REMARK VINA RESULT:      -4.3      2.333      2.465
REMARK  Name = 
REMARK  4 active torsions:
REMARK  status: ('A' for Active; 'I' for Inactive)
REMARK    1  A    between atoms: O_2  and  C_3
REMARK    2  A    between atoms: C_3  and  C_4
REMARK    3  A    between atoms: C_4  and  O_5
REMARK    4  A    between atoms: O_5  and  C_6
REMARK                            x       y       z     vdW  Elec       q    Type
REMARK                         _______ _______ _______ _____ _____    ______ ____
ROOT
ATOM      6  C   UNL     1      -1.929   0.171  24.991  0.00  0.00    +0.162 C 
ATOM      7  C   UNL     1      -1.117   0.293  24.912  0.00  0.00    +0.121 C 
ATOM      8  N   UNL     1      -0.518  -0.267  24.826  0.00  0.00    -0.213 NA
ATOM      9  C   UNL     1      -0.584  -1.089  24.797  0.00  0.00    +0.121 C 
ATOM     10  C   UNL     1      -1.264  -1.553  24.848  0.00  0.00    +0.161 C 
ATOM     11  O   UNL     1      -2.047  -1.310  24.940  0.00  0.00    -0.350 OA
ATOM     12  C   UNL     1      -2.343  -0.542  25.003  0.00  0.00    +0.173 C 
ENDROOT
BRANCH   6   5
ATOM      5  O   UNL     1      -2.387   0.852  25.068  0.00  0.00    -0.350 OA
BRANCH   5   4
ATOM      4  C   UNL     1      -2.731   1.195  24.400  0.00  0.00    +0.174 C 
BRANCH   4   3
ATOM      3  C   UNL     1      -3.158   1.897  24.471  0.00  0.00    +0.174 C 
BRANCH   3   2
ATOM      1  C   UNL     1      -3.867   2.966  23.842  0.00  0.00    +0.174 C 
ATOM      2  O   UNL     1      -3.568   2.198  23.820  0.00  0.00    -0.348 OA
ENDBRANCH   3   2
ENDBRANCH   4   3
ENDBRANCH   5   4
ENDBRANCH   6   5
TORSDOF 4
ENDMDL
