MODEL 1
REMARK VINA RESULT:      -9.4      0.000      0.000
REMARK  Name = 
REMARK  6 active torsions:
REMARK  status: ('A' for Active; 'I' for Inactive)
REMARK    1  A    between atoms: C_2  and  N_4
REMARK    2  A    between atoms: C_5  and  O_7
REMARK    3  A    between atoms: O_7  and  C_8
REMARK    4  A    between atoms: C_8  and  C_9
REMARK    5  A    between atoms: C_16  and  C_17
REMARK    6  A    between atoms: C_19  and  C_23
REMARK                            x       y       z     vdW  Elec       q    Type
REMARK                         _______ _______ _______ _____ _____    ______ ____
ROOT
ATOM      9  C   UNL     1      -3.912   0.580  24.073  0.00  0.00    +0.102 C 
ATOM     10  C   UNL     1      -3.661   1.175  23.639  0.00  0.00    +0.020 C 
ATOM     11  C   UNL     1      -3.425   1.897  23.919  0.00  0.00    +0.010 C 
ATOM     12  C   UNL     1      -3.172   2.446  23.257  0.00  0.00    +0.018 C 
ATOM     13  C   UNL     1      -3.394   1.889  23.516  0.00  0.00    +0.072 C 
ATOM     14  N   UNL     1      -3.669   1.318  24.351  0.00  0.00    -0.270 NA
ATOM     15  C   UNL     1      -3.615   1.665  25.194  0.00  0.00    +0.078 C 
ATOM     16  C   UNL     1      -3.376   2.224  24.732  0.00  0.00    +0.056 C 
ENDROOT
BRANCH  16  17
ATOM     17  C   UNL     1      -3.123   2.979  24.952  0.00  0.00    +0.058 A 
ATOM     18  C   UNL     1      -2.394   3.318  24.768  0.00  0.00    +0.038 A 
ATOM     19  C   UNL     1      -2.375   4.074  25.096  0.00  0.00    +0.136 A 
ATOM     20  N   UNL     1      -3.092   4.203  25.483  0.00  0.00    -0.166 NA
ATOM     21  N   UNL     1      -3.555   3.525  25.394  0.00  0.00    -0.253 N 
ATOM     22  C   UNL     1      -4.315   3.413  25.694  0.00  0.00    +0.153 C 
BRANCH  19  23
ATOM     23  C   UNL     1      -1.750   4.609  25.047  0.00  0.00    +0.165 A 
ATOM     24  C   UNL     1      -0.948   4.416  25.012  0.00  0.00    +0.042 A 
ATOM     25  C   UNL     1      -0.518   5.120  24.967  0.00  0.00    +0.044 A 
ATOM     26  C   UNL     1      -1.054   5.747  24.974  0.00  0.00    +0.180 A 
ATOM     27  O   UNL     1      -1.814   5.432  25.023  0.00  0.00    -0.449 OA
ENDBRANCH  19  23
ENDBRANCH  16  17
BRANCH   9   8
ATOM      8  C   UNL     1      -4.196  -0.187  24.175  0.00  0.00    +0.226 C 
BRANCH   8   7
ATOM      7  O   UNL     1      -3.847  -0.815  23.768  0.00  0.00    -0.432 OA
BRANCH   7   5
ATOM      4  N   UNL     1      -3.277  -2.006  24.313  0.00  0.00    -0.170 NA
ATOM      5  C   UNL     1      -3.935  -1.587  24.046  0.00  0.00    +0.421 C 
ATOM      6  O   UNL     1      -4.681  -1.939  24.056  0.00  0.00    -0.225 OA
BRANCH   4   2
ATOM      1  C   UNL     1      -3.510  -3.394  24.060  0.00  0.00    +0.024 C 
ATOM      2  C   UNL     1      -3.365  -2.779  24.591  0.00  0.00    +0.099 C 
ATOM      3  C   UNL     1      -3.309  -2.936  25.399  0.00  0.00    +0.024 C 
ENDBRANCH   4   2
ENDBRANCH   7   5
ENDBRANCH   8   7
ENDBRANCH   9   8
TORSDOF 6
ENDMDL
MODEL 2
REMARK VINA RESULT:      -9.1      2.283      2.532
REMARK  Name = 
REMARK  6 active torsions:
REMARK  status: ('A' for Active; 'I' for Inactive)
REMARK    1  A    between atoms: C_2  and  N_4
REMARK    2  A    between atoms: C_5  and  O_7
REMARK    3  A    between atoms: O_7  and  C_8
REMARK    4  A    between atoms: C_8  and  C_9
REMARK    5  A    between atoms: C_16  and  C_17
REMARK    6  A    between atoms: C_19  and  C_23
REMARK                            x       y       z     vdW  Elec       q    Type
REMARK                         _______ _______ _______ _____ _____    ______ ____
ROOT
ATOM      9  C   UNL     1      -0.758  -0.275  24.666  0.00  0.00    +0.102 C 
ATOM     10  C   UNL     1      -0.432   0.318  24.283  0.00  0.00    +0.020 C 
ATOM     11  C   UNL     1      -0.411   1.087  24.534  0.00  0.00    +0.010 C 
ATOM     12  C   UNL     1       0.012   1.618  23.948  0.00  0.00    +0.018 C 
ATOM     13  C   UNL     1      -0.225   1.054  24.176  0.00  0.00    +0.072 C 
ATOM     14  N   UNL     1      -0.733   0.511  24.916  0.00  0.00    -0.270 NA
ATOM     15  C   UNL     1      -1.051   0.925  25.664  0.00  0.00    +0.078 C 
ATOM     16  C   UNL     1      -0.719   1.479  25.256  0.00  0.00    +0.056 C 
ENDROOT
BRANCH  16  17
ATOM     17  C   UNL     1      -0.663   2.278  25.454  0.00  0.00    +0.058 A 
ATOM     18  C   UNL     1      -1.016   2.903  25.047  0.00  0.00    +0.038 A 
ATOM     19  C   UNL     1      -0.815   3.604  25.434  0.00  0.00    +0.136 A 
ATOM     20  N   UNL     1      -0.339   3.412  26.079  0.00  0.00    -0.166 NA
ATOM     21  N   UNL     1      -0.244   2.592  26.091  0.00  0.00    -0.253 N 
ATOM     22  C   UNL     1       0.192   2.161  26.644  0.00  0.00    +0.153 C 
BRANCH  19  23
ATOM     23  C   UNL     1      -1.050   4.363  25.214  0.00  0.00    +0.165 A 
ATOM     24  C   UNL     1      -1.783   4.708  25.370  0.00  0.00    +0.042 A 
ATOM     25  C   UNL     1      -1.779   5.471  25.053  0.00  0.00    +0.044 A 
ATOM     26  C   UNL     1      -1.043   5.596  24.701  0.00  0.00    +0.180 A 
ATOM     27  O   UNL     1      -0.593   4.913  24.801  0.00  0.00    -0.449 OA
ENDBRANCH  19  23
ENDBRANCH  16  17
BRANCH   9   8
ATOM      8  C   UNL     1      -0.967  -1.068  24.755  0.00  0.00    +0.226 C 
BRANCH   8   7
ATOM      7  O   UNL     1      -1.464  -1.428  24.204  0.00  0.00    -0.432 OA
BRANCH   7   5
ATOM      4  N   UNL     1      -2.802  -1.904  24.364  0.00  0.00    -0.170 NA
ATOM      5  C   UNL     1      -1.989  -2.018  24.445  0.00  0.00    +0.421 C 
ATOM      6  O   UNL     1      -1.701  -2.721  24.767  0.00  0.00    -0.225 OA
BRANCH   4   2
ATOM      1  C   UNL     1      -3.732  -2.941  24.042  0.00  0.00    +0.024 C 
ATOM      2  C   UNL     1      -3.327  -2.494  24.605  0.00  0.00    +0.099 C 
ATOM      3  C   UNL     1      -3.446  -2.637  25.409  0.00  0.00    +0.024 C 
ENDBRANCH   4   2
ENDBRANCH   7   5
ENDBRANCH   8   7
ENDBRANCH   9   8
TORSDOF 6
ENDMDL
MODEL 3
REMARK VINA RESULT:      -8.6      3.887      5.133
REMARK  Name = 
REMARK  6 active torsions:
REMARK  status: ('A' for Active; 'I' for Inactive)
REMARK    1  A    between atoms: C_2  and  N_4
REMARK    2  A    between atoms: C_5  and  O_7
REMARK    3  A    between atoms: O_7  and  C_8
REMARK    4  A    between atoms: C_8  and  C_9
REMARK    5  A    between atoms: C_16  and  C_17
REMARK    6  A    between atoms: C_19  and  C_23
REMARK                            x       y       z     vdW  Elec       q    Type
REMARK                         _______ _______ _______ _____ _____    ______ ____
ROOT
ATOM      9  C   UNL     1       0.321   0.720  23.780  0.00  0.00    +0.102 C 
ATOM     10  C   UNL     1      -0.044   1.216  24.256  0.00  0.00    +0.020 C 
ATOM     11  C   UNL     1      -0.819   1.166  24.486  0.00  0.00    +0.010 C 
ATOM     12  C   UNL     1      -1.048   1.835  25.037  0.00  0.00    +0.018 C 
ATOM     13  C   UNL     1      -0.646   1.489  24.655  0.00  0.00    +0.072 C 
ATOM     14  N   UNL     1      -0.468   0.675  24.019  0.00  0.00    -0.270 NA
ATOM     15  C   UNL     1      -1.132   0.079  23.826  0.00  0.00    +0.078 C 
ATOM     16  C   UNL     1      -1.452   0.589  24.296  0.00  0.00    +0.056 C 
ENDROOT
BRANCH  16  17
ATOM     17  C   UNL     1      -2.232   0.595  24.568  0.00  0.00    +0.058 A 
ATOM     18  C   UNL     1      -2.786   1.191  24.435  0.00  0.00    +0.038 A 
ATOM     19  C   UNL     1      -3.489   0.971  24.805  0.00  0.00    +0.136 A 
ATOM     20  N   UNL     1      -3.370   0.240  25.167  0.00  0.00    -0.166 NA
ATOM     21  N   UNL     1      -2.592   0.007  25.021  0.00  0.00    -0.253 N 
ATOM     22  C   UNL     1      -2.236  -0.691  25.281  0.00  0.00    +0.153 C 
BRANCH  19  23
ATOM     23  C   UNL     1      -4.190   1.406  24.813  0.00  0.00    +0.165 A 
ATOM     24  C   UNL     1      -4.943   1.109  24.974  0.00  0.00    +0.042 A 
ATOM     25  C   UNL     1      -5.480   1.734  24.921  0.00  0.00    +0.044 A 
ATOM     26  C   UNL     1      -5.059   2.416  24.728  0.00  0.00    +0.180 A 
ATOM     27  O   UNL     1      -4.262   2.215  24.661  0.00  0.00    -0.449 OA
ENDBRANCH  19  23
ENDBRANCH  16  17
BRANCH   9   8
ATOM      8  C   UNL     1       0.979   0.450  23.363  0.00  0.00    +0.226 C 
BRANCH   8   7
ATOM      7  O   UNL     1       1.669   0.903  23.343  0.00  0.00    -0.432 OA
BRANCH   7   5
ATOM      4  N   UNL     1       3.075   0.989  23.103  0.00  0.00    -0.170 NA
ATOM      5  C   UNL     1       2.358   0.589  23.015  0.00  0.00    +0.421 C 
ATOM      6  O   UNL     1       2.331  -0.122  22.598  0.00  0.00    -0.225 OA
BRANCH   4   2
ATOM      1  C   UNL     1       4.382   0.435  23.265  0.00  0.00    +0.024 C 
ATOM      2  C   UNL     1       3.765   0.676  22.775  0.00  0.00    +0.099 C 
ATOM      3  C   UNL     1       3.836   0.603  21.956  0.00  0.00    +0.024 C 
ENDBRANCH   4   2
ENDBRANCH   7   5
ENDBRANCH   8   7
ENDBRANCH   9   8
TORSDOF 6
ENDMDL
MODEL 4
REMARK VINA RESULT:      -8.5      1.067      5.733
REMARK  Name = 
REMARK  6 active torsions:
REMARK  status: ('A' for Active; 'I' for Inactive)
REMARK    1  A    between atoms: C_2  and  N_4
REMARK    2  A    between atoms: C_5  and  O_7
REMARK    3  A    between atoms: O_7  and  C_8
REMARK    4  A    between atoms: C_8  and  C_9
REMARK    5  A    between atoms: C_16  and  C_17
REMARK    6  A    between atoms: C_19  and  C_23
REMARK                            x       y       z     vdW  Elec       q    Type
REMARK                         _______ _______ _______ _____ _____    ______ ____
ROOT
ATOM      9  C   UNL     1      -3.771   2.529  24.668  0.00  0.00    +0.102 C 
ATOM     10  C   UNL     1      -4.236   1.951  24.904  0.00  0.00    +0.020 C 
ATOM     11  C   UNL     1      -4.048   1.164  24.898  0.00  0.00    +0.010 C 
ATOM     12  C   UNL     1      -4.720   0.658  25.211  0.00  0.00    +0.018 C 
ATOM     13  C   UNL     1      -4.422   1.215  25.044  0.00  0.00    +0.072 C 
ATOM     14  N   UNL     1      -3.588   1.724  24.665  0.00  0.00    -0.270 NA
ATOM     15  C   UNL     1      -2.840   1.270  24.406  0.00  0.00    +0.078 C 
ATOM     16  C   UNL     1      -3.326   0.733  24.647  0.00  0.00    +0.056 C 
ENDROOT
BRANCH  16  17
ATOM     17  C   UNL     1      -3.199  -0.083  24.668  0.00  0.00    +0.058 A 
ATOM     18  C   UNL     1      -3.697  -0.659  24.352  0.00  0.00    +0.038 A 
ATOM     19  C   UNL     1      -3.358  -1.396  24.496  0.00  0.00    +0.136 A 
ATOM     20  N   UNL     1      -2.650  -1.276  24.902  0.00  0.00    -0.166 NA
ATOM     21  N   UNL     1      -2.551  -0.464  25.008  0.00  0.00    -0.253 N 
ATOM     22  C   UNL     1      -1.917  -0.097  25.387  0.00  0.00    +0.153 C 
BRANCH  19  23
ATOM     23  C   UNL     1      -3.671  -2.126  24.275  0.00  0.00    +0.165 A 
ATOM     24  C   UNL     1      -3.482  -2.857  24.610  0.00  0.00    +0.042 A 
ATOM     25  C   UNL     1      -3.923  -3.437  24.222  0.00  0.00    +0.044 A 
ATOM     26  C   UNL     1      -4.383  -3.065  23.647  0.00  0.00    +0.180 A 
ATOM     27  O   UNL     1      -4.228  -2.256  23.679  0.00  0.00    -0.449 OA
ENDBRANCH  19  23
ENDBRANCH  16  17
BRANCH   9   8
ATOM      8  C   UNL     1      -3.598   3.323  24.529  0.00  0.00    +0.226 C 
BRANCH   8   7
ATOM      7  O   UNL     1      -3.207   3.767  25.105  0.00  0.00    -0.432 OA
BRANCH   7   5
ATOM      4  N   UNL     1      -1.965   4.435  25.338  0.00  0.00    -0.170 NA
ATOM      5  C   UNL     1      -2.645   4.330  24.882  0.00  0.00    +0.421 C 
ATOM      6  O   UNL     1      -2.763   4.785  24.205  0.00  0.00    -0.225 OA
BRANCH   4   2
ATOM      1  C   UNL     1      -0.657   4.756  24.861  0.00  0.00    +0.024 C 
ATOM      2  C   UNL     1      -1.403   4.998  25.115  0.00  0.00    +0.099 C 
ATOM      3  C   UNL     1      -1.589   5.801  25.146  0.00  0.00    +0.024 C 
ENDBRANCH   4   2
ENDBRANCH   7   5
ENDBRANCH   8   7
ENDBRANCH   9   8
TORSDOF 6
ENDMDL
MODEL 5
REMARK VINA RESULT:      -8.3      3.589      5.003
REMARK  Name = 
REMARK  6 active torsions:
REMARK  status: ('A' for Active; 'I' for Inactive)
REMARK    1  A    between atoms: C_2  and  N_4
REMARK    2  A    between atoms: C_5  and  O_7
REMARK    3  A    between atoms: O_7  and  C_8
REMARK    4  A    between atoms: C_8  and  C_9
REMARK    5  A    between atoms: C_16  and  C_17
REMARK    6  A    between atoms: C_19  and  C_23
REMARK                            x       y       z     vdW  Elec       q    Type
REMARK                         _______ _______ _______ _____ _____    ______ ____
ROOT
ATOM      9  C   UNL     1      -2.259   1.860  24.380  0.00  0.00    +0.102 C 
ATOM     10  C   UNL     1      -1.514   2.020  24.540  0.00  0.00    +0.020 C 
ATOM     11  C   UNL     1      -0.878   1.567  24.327  0.00  0.00    +0.010 C 
ATOM     12  C   UNL     1      -0.105   1.924  24.607  0.00  0.00    +0.018 C 
ATOM     13  C   UNL     1      -0.753   1.892  24.531  0.00  0.00    +0.072 C 
ATOM     14  N   UNL     1      -1.605   1.403  24.166  0.00  0.00    -0.270 NA
ATOM     15  C   UNL     1      -1.533   0.618  23.706  0.00  0.00    +0.078 C 
ATOM     16  C   UNL     1      -0.816   0.812  23.884  0.00  0.00    +0.056 C 
ENDROOT
BRANCH  16  17
ATOM     17  C   UNL     1      -0.127   0.397  23.697  0.00  0.00    +0.058 A 
ATOM     18  C   UNL     1       0.509   0.687  23.260  0.00  0.00    +0.038 A 
ATOM     19  C   UNL     1       1.076   0.090  23.208  0.00  0.00    +0.136 A 
ATOM     20  N   UNL     1       0.790  -0.569  23.614  0.00  0.00    -0.166 NA
ATOM     21  N   UNL     1       0.046  -0.379  23.917  0.00  0.00    -0.253 N 
ATOM     22  C   UNL     1      -0.440  -0.877  24.361  0.00  0.00    +0.153 C 
BRANCH  19  23
ATOM     23  C   UNL     1       1.801   0.141  22.819  0.00  0.00    +0.165 A 
ATOM     24  C   UNL     1       2.490   0.480  23.122  0.00  0.00    +0.042 A 
ATOM     25  C   UNL     1       3.081   0.411  22.549  0.00  0.00    +0.044 A 
ATOM     26  C   UNL     1       2.756   0.030  21.893  0.00  0.00    +0.180 A 
ATOM     27  O   UNL     1       1.966  -0.137  22.059  0.00  0.00    -0.449 OA
ENDBRANCH  19  23
ENDBRANCH  16  17
BRANCH   9   8
ATOM      8  C   UNL     1      -3.067   2.020  24.405  0.00  0.00    +0.226 C 
BRANCH   8   7
ATOM      7  O   UNL     1      -3.357   2.603  24.912  0.00  0.00    -0.432 OA
BRANCH   7   5
ATOM      4  N   UNL     1      -4.508   2.987  25.667  0.00  0.00    -0.170 NA
ATOM      5  C   UNL     1      -4.169   2.747  24.954  0.00  0.00    +0.421 C 
ATOM      6  O   UNL     1      -4.641   2.651  24.284  0.00  0.00    -0.225 OA
BRANCH   4   2
ATOM      1  C   UNL     1      -5.614   3.884  25.548  0.00  0.00    +0.024 C 
ATOM      2  C   UNL     1      -5.320   3.131  25.709  0.00  0.00    +0.099 C 
ATOM      3  C   UNL     1      -5.837   2.520  25.912  0.00  0.00    +0.024 C 
ENDBRANCH   4   2
ENDBRANCH   7   5
ENDBRANCH   8   7
ENDBRANCH   9   8
TORSDOF 6
ENDMDL
MODEL 6
REMARK VINA RESULT:      -8.2      2.250      6.071
REMARK  Name = 
REMARK  6 active torsions:
REMARK  status: ('A' for Active; 'I' for Inactive)
REMARK    1  A    between atoms: C_2  and  N_4
REMARK    2  A    between atoms: C_5  and  O_7
REMARK    3  A    between atoms: O_7  and  C_8
REMARK    4  A    between atoms: C_8  and  C_9
REMARK    5  A    between atoms: C_16  and  C_17
REMARK    6  A    between atoms: C_19  and  C_23
REMARK                            x       y       z     vdW  Elec       q    Type
REMARK                         _______ _______ _______ _____ _____    ______ ____
ROOT
ATOM      9  C   UNL     1      -0.279   1.564  24.740  0.00  0.00    +0.102 C 
ATOM     10  C   UNL     1      -0.288   1.010  24.193  0.00  0.00    +0.020 C 
ATOM     11  C   UNL     1      -0.669   0.298  24.249  0.00  0.00    +0.010 C 
ATOM     12  C   UNL     1      -0.559  -0.199  23.511  0.00  0.00    +0.018 C 
ATOM     13  C   UNL     1      -0.482   0.326  23.892  0.00  0.00    +0.072 C 
ATOM     14  N   UNL     1      -0.664   0.836  24.790  0.00  0.00    -0.270 NA
ATOM     15  C   UNL     1      -1.170   0.457  25.448  0.00  0.00    +0.078 C 
ATOM     16  C   UNL     1      -1.155  -0.060  24.886  0.00  0.00    +0.056 C 
ENDROOT
BRANCH  16  17
ATOM     17  C   UNL     1      -1.519  -0.801  24.880  0.00  0.00    +0.058 A 
ATOM     18  C   UNL     1      -2.241  -0.982  24.524  0.00  0.00    +0.038 A 
ATOM     19  C   UNL     1      -2.393  -1.782  24.652  0.00  0.00    +0.136 A 
ATOM     20  N   UNL     1      -1.766  -2.096  25.087  0.00  0.00    -0.166 NA
ATOM     21  N   UNL     1      -1.225  -1.488  25.228  0.00  0.00    -0.253 N 
ATOM     22  C   UNL     1      -0.516  -1.556  25.644  0.00  0.00    +0.153 C 
BRANCH  19  23
ATOM     23  C   UNL     1      -3.057  -2.198  24.392  0.00  0.00    +0.165 A 
ATOM     24  C   UNL     1      -3.771  -1.866  24.147  0.00  0.00    +0.042 A 
ATOM     25  C   UNL     1      -4.279  -2.482  23.934  0.00  0.00    +0.044 A 
ATOM     26  C   UNL     1      -3.877  -3.193  24.047  0.00  0.00    +0.180 A 
ATOM     27  O   UNL     1      -3.123  -3.019  24.330  0.00  0.00    -0.449 OA
ENDBRANCH  19  23
ENDBRANCH  16  17
BRANCH   9   8
ATOM      8  C   UNL     1      -0.057   2.301  25.037  0.00  0.00    +0.226 C 
BRANCH   8   7
ATOM      7  O   UNL     1      -0.254   2.988  24.625  0.00  0.00    -0.432 OA
BRANCH   7   5
ATOM      4  N   UNL     1      -1.176   4.078  24.697  0.00  0.00    -0.170 NA
ATOM      5  C   UNL     1      -0.562   3.638  25.030  0.00  0.00    +0.421 C 
ATOM      6  O   UNL     1      -0.257   3.848  25.767  0.00  0.00    -0.225 OA
BRANCH   4   2
ATOM      1  C   UNL     1      -1.155   5.476  24.993  0.00  0.00    +0.024 C 
ATOM      2  C   UNL     1      -1.484   4.728  25.103  0.00  0.00    +0.099 C 
ATOM      3  C   UNL     1      -2.121   4.629  25.618  0.00  0.00    +0.024 C 
ENDBRANCH   4   2
ENDBRANCH   7   5
ENDBRANCH   8   7
ENDBRANCH   9   8
TORSDOF 6
ENDMDL
