MODEL 1
REMARK VINA RESULT:     -15.0      0.000      0.000
REMARK  Name = 
REMARK  7 active torsions:
REMARK  status: ('A' for Active; 'I' for Inactive)
REMARK    1  A    between atoms: C_2  and  C_4
REMARK    2  A    between atoms: C_7  and  N_8
REMARK    3  A    between atoms: C_9  and  O_11
REMARK    4  A    between atoms: O_11  and  C_12
REMARK    5  A    between atoms: C_16  and  N_20
REMARK    6  A    between atoms: C_24  and  C_25
REMARK    7  A    between atoms: C_28  and  C_31
REMARK                            x       y       z     vdW  Elec       q    Type
REMARK                         _______ _______ _______ _____ _____    ______ ____
ROOT
ATOM     12  C   UNL     1      -0.336   1.349  24.772  0.00  0.00    +0.229 C 
ATOM     13  C   UNL     1      -0.237   1.690  24.028  0.00  0.00    +0.188 C 
ATOM     14  O   UNL     1      -0.408   2.494  24.092  0.00  0.00    -0.348 OA
ATOM     15  C   UNL     1      -0.614   2.650  24.874  0.00  0.00    +0.171 C 
ATOM     16  C   UNL     1      -0.847   3.243  25.399  0.00  0.00    +0.167 C 
ATOM     17  C   UNL     1      -0.947   2.902  26.143  0.00  0.00    +0.169 C 
ATOM     18  O   UNL     1      -0.775   2.098  26.079  0.00  0.00    -0.348 OA
ATOM     19  C   UNL     1      -0.569   1.942  25.295  0.00  0.00    +0.187 C 
ENDROOT
BRANCH  16  20
ATOM     20  N   UNL     1      -0.961   4.038  25.211  0.00  0.00    -0.210 N 
ATOM     21  N   UNL     1      -0.367   4.600  25.095  0.00  0.00    -0.043 NA
ATOM     22  N   UNL     1      -0.728   5.320  24.918  0.00  0.00    -0.023 NA
ATOM     23  N   UNL     1      -1.544   5.204  24.924  0.00  0.00    -0.108 NA
ATOM     24  C   UNL     1      -1.688   4.412  25.105  0.00  0.00    +0.184 A 
BRANCH  24  25
ATOM     25  C   UNL     1      -2.430   4.057  25.168  0.00  0.00    +0.037 A 
ATOM     26  C   UNL     1      -2.793   3.987  25.906  0.00  0.00    +0.003 A 
ATOM     27  C   UNL     1      -3.534   3.632  25.969  0.00  0.00    +0.000 A 
ATOM     28  C   UNL     1      -3.914   3.346  25.294  0.00  0.00    +0.000 A 
ATOM     29  C   UNL     1      -3.551   3.416  24.557  0.00  0.00    +0.000 A 
ATOM     30  C   UNL     1      -2.810   3.771  24.494  0.00  0.00    +0.003 A 
BRANCH  28  31
ATOM     31  C   UNL     1      -4.656   2.991  25.357  0.00  0.00    +0.000 A 
ATOM     32  C   UNL     1      -5.299   3.426  25.636  0.00  0.00    +0.000 A 
ATOM     33  C   UNL     1      -6.041   3.071  25.699  0.00  0.00    +0.000 A 
ATOM     34  C   UNL     1      -6.140   2.280  25.483  0.00  0.00    +0.000 A 
ATOM     35  C   UNL     1      -5.496   1.846  25.204  0.00  0.00    +0.000 A 
ATOM     36  C   UNL     1      -4.755   2.201  25.141  0.00  0.00    +0.000 A 
ENDBRANCH  28  31
ENDBRANCH  24  25
ENDBRANCH  16  20
BRANCH  12  11
ATOM     11  O   UNL     1      -0.223   0.553  24.960  0.00  0.00    -0.432 OA
BRANCH  11   9
ATOM      8  N   UNL     1      -1.147  -0.462  25.357  0.00  0.00    -0.142 NA
ATOM      9  C   UNL     1      -0.800  -0.004  24.766  0.00  0.00    +0.425 C 
ATOM     10  O   UNL     1      -1.028  -0.102  23.979  0.00  0.00    -0.224 OA
BRANCH   8   7
ATOM      4  C   UNL     1      -2.879  -2.131  24.774  0.00  0.00    +0.035 A 
ATOM      5  C   UNL     1      -3.098  -1.408  25.106  0.00  0.00    +0.004 A 
ATOM      6  C   UNL     1      -2.520  -0.852  25.300  0.00  0.00    +0.017 A 
ATOM      7  C   UNL     1      -1.724  -1.018  25.162  0.00  0.00    +0.077 A 
ATOM     37  C   UNL     1      -1.506  -1.741  24.830  0.00  0.00    +0.017 A 
ATOM     38  C   UNL     1      -2.083  -2.297  24.635  0.00  0.00    +0.004 A 
BRANCH   4   2
ATOM      1  C   UNL     1      -3.986  -2.534  23.965  0.00  0.00    +0.077 C 
ATOM      2  C   UNL     1      -3.456  -2.687  24.579  0.00  0.00    +0.173 C 
ATOM      3  O   UNL     1      -3.505  -3.396  24.999  0.00  0.00    -0.291 OA
ENDBRANCH   4   2
ENDBRANCH   8   7
ENDBRANCH  11   9
ENDBRANCH  12  11
TORSDOF 7
ENDMDL
MODEL 2
REMARK VINA RESULT:     -13.7      1.491      4.848
REMARK  Name = 
REMARK  7 active torsions:
REMARK  status: ('A' for Active; 'I' for Inactive)
REMARK    1  A    between atoms: C_2  and  C_4
REMARK    2  A    between atoms: C_7  and  N_8
REMARK    3  A    between atoms: C_9  and  O_11
REMARK    4  A    between atoms: O_11  and  C_12
REMARK    5  A    between atoms: C_16  and  N_20
REMARK    6  A    between atoms: C_24  and  C_25
REMARK    7  A    between atoms: C_28  and  C_31
REMARK                            x       y       z     vdW  Elec       q    Type
REMARK                         _______ _______ _______ _____ _____    ______ ____
ROOT
ATOM     12  C   UNL     1      -0.390   0.212  24.666  0.00  0.00    +0.229 C 
ATOM     13  C   UNL     1      -0.433  -0.060  23.888  0.00  0.00    +0.188 C 
ATOM     14  O   UNL     1      -0.994  -0.663  23.861  0.00  0.00    -0.348 OA
ATOM     15  C   UNL     1      -1.298  -0.764  24.620  0.00  0.00    +0.171 C 
ATOM     16  C   UNL     1      -1.833  -1.199  25.074  0.00  0.00    +0.167 C 
ATOM     17  C   UNL     1      -1.789  -0.927  25.851  0.00  0.00    +0.169 C 
ATOM     18  O   UNL     1      -1.228  -0.324  25.879  0.00  0.00    -0.348 OA
ATOM     19  C   UNL     1      -0.924  -0.223  25.118  0.00  0.00    +0.187 C 
ENDROOT
BRANCH  16  20
ATOM     20  N   UNL     1      -2.325  -1.802  24.798  0.00  0.00    -0.210 N 
ATOM     21  N   UNL     1      -2.099  -2.581  24.644  0.00  0.00    -0.043 NA
ATOM     22  N   UNL     1      -2.763  -2.991  24.378  0.00  0.00    -0.023 NA
ATOM     23  N   UNL     1      -3.399  -2.466  24.368  0.00  0.00    -0.108 NA
ATOM     24  C   UNL     1      -3.128  -1.731  24.627  0.00  0.00    +0.184 A 
BRANCH  24  25
ATOM     25  C   UNL     1      -3.582  -1.046  24.702  0.00  0.00    +0.037 A 
ATOM     26  C   UNL     1      -3.858  -0.813  25.444  0.00  0.00    +0.003 A 
ATOM     27  C   UNL     1      -4.312  -0.128  25.519  0.00  0.00    +0.000 A 
ATOM     28  C   UNL     1      -4.489   0.325  24.852  0.00  0.00    +0.000 A 
ATOM     29  C   UNL     1      -4.212   0.092  24.111  0.00  0.00    +0.000 A 
ATOM     30  C   UNL     1      -3.759  -0.593  24.036  0.00  0.00    +0.003 A 
BRANCH  28  31
ATOM     31  C   UNL     1      -4.942   1.010  24.927  0.00  0.00    +0.000 A 
ATOM     32  C   UNL     1      -4.580   1.750  24.883  0.00  0.00    +0.000 A 
ATOM     33  C   UNL     1      -5.034   2.435  24.958  0.00  0.00    +0.000 A 
ATOM     34  C   UNL     1      -5.849   2.380  25.076  0.00  0.00    +0.000 A 
ATOM     35  C   UNL     1      -6.210   1.640  25.119  0.00  0.00    +0.000 A 
ATOM     36  C   UNL     1      -5.756   0.955  25.045  0.00  0.00    +0.000 A 
ENDBRANCH  28  31
ENDBRANCH  24  25
ENDBRANCH  16  20
BRANCH  12  11
ATOM     11  O   UNL     1       0.102   0.815  24.942  0.00  0.00    -0.432 OA
BRANCH  11   9
ATOM      8  N   UNL     1      -0.354   2.060  25.472  0.00  0.00    -0.142 NA
ATOM      9  C   UNL     1      -0.109   1.604  24.831  0.00  0.00    +0.425 C 
ATOM     10  O   UNL     1      -0.075   1.937  24.076  0.00  0.00    -0.224 OA
BRANCH   8   7
ATOM      4  C   UNL     1      -0.990   4.429  25.138  0.00  0.00    +0.035 A 
ATOM      5  C   UNL     1      -1.566   3.870  25.330  0.00  0.00    +0.004 A 
ATOM      6  C   UNL     1      -1.354   3.081  25.441  0.00  0.00    +0.017 A 
ATOM      7  C   UNL     1      -0.566   2.850  25.361  0.00  0.00    +0.077 A 
ATOM     37  C   UNL     1       0.010   3.409  25.169  0.00  0.00    +0.017 A 
ATOM     38  C   UNL     1      -0.202   4.198  25.057  0.00  0.00    +0.004 A 
BRANCH   4   2
ATOM      1  C   UNL     1      -1.960   5.474  25.229  0.00  0.00    +0.077 C 
ATOM      2  C   UNL     1      -1.202   5.219  25.027  0.00  0.00    +0.173 C 
ATOM      3  O   UNL     1      -0.657   5.753  24.713  0.00  0.00    -0.291 OA
ENDBRANCH   4   2
ENDBRANCH   8   7
ENDBRANCH  11   9
ENDBRANCH  12  11
TORSDOF 7
ENDMDL
MODEL 3
REMARK VINA RESULT:     -11.5      2.885      4.968
REMARK  Name = 
REMARK  7 active torsions:
REMARK  status: ('A' for Active; 'I' for Inactive)
REMARK    1  A    between atoms: C_2  and  C_4
REMARK    2  A    between atoms: C_7  and  N_8
REMARK    3  A    between atoms: C_9  and  O_11
REMARK    4  A    between atoms: O_11  and  C_12
REMARK    5  A    between atoms: C_16  and  N_20
REMARK    6  A    between atoms: C_24  and  C_25
REMARK    7  A    between atoms: C_28  and  C_31
REMARK                            x       y       z     vdW  Elec       q    Type
REMARK                         _______ _______ _______ _____ _____    ______ ____
ROOT
ATOM     12  C   UNL     1       0.275   1.104  23.533  0.00  0.00    +0.229 C 
ATOM     13  C   UNL     1       0.457   1.332  24.304  0.00  0.00    +0.188 C 
ATOM     14  O   UNL     1      -0.226   1.643  24.646  0.00  0.00    -0.348 OA
ATOM     15  C   UNL     1      -0.831   1.608  24.086  0.00  0.00    +0.171 C 
ATOM     16  C   UNL     1      -1.626   1.778  23.950  0.00  0.00    +0.167 C 
ATOM     17  C   UNL     1      -1.809   1.550  23.179  0.00  0.00    +0.169 C 
ATOM     18  O   UNL     1      -1.126   1.239  22.838  0.00  0.00    -0.348 OA
ATOM     19  C   UNL     1      -0.521   1.274  23.398  0.00  0.00    +0.187 C 
ENDROOT
BRANCH  16  20
ATOM     20  N   UNL     1      -2.149   2.116  24.492  0.00  0.00    -0.210 N 
ATOM     21  N   UNL     1      -2.136   2.899  24.755  0.00  0.00    -0.043 NA
ATOM     22  N   UNL     1      -2.755   2.998  25.291  0.00  0.00    -0.023 NA
ATOM     23  N   UNL     1      -3.150   2.278  25.360  0.00  0.00    -0.108 NA
ATOM     24  C   UNL     1      -2.775   1.733  24.867  0.00  0.00    +0.184 A 
BRANCH  24  25
ATOM     25  C   UNL     1      -2.990   0.942  24.765  0.00  0.00    +0.037 A 
ATOM     26  C   UNL     1      -3.500   0.729  24.152  0.00  0.00    +0.003 A 
ATOM     27  C   UNL     1      -3.714  -0.061  24.052  0.00  0.00    +0.000 A 
ATOM     28  C   UNL     1      -3.420  -0.638  24.564  0.00  0.00    +0.000 A 
ATOM     29  C   UNL     1      -2.911  -0.423  25.177  0.00  0.00    +0.000 A 
ATOM     30  C   UNL     1      -2.696   0.367  25.277  0.00  0.00    +0.003 A 
BRANCH  28  31
ATOM     31  C   UNL     1      -3.635  -1.428  24.463  0.00  0.00    +0.000 A 
ATOM     32  C   UNL     1      -3.297  -2.011  24.940  0.00  0.00    +0.000 A 
ATOM     33  C   UNL     1      -3.512  -2.801  24.840  0.00  0.00    +0.000 A 
ATOM     34  C   UNL     1      -4.064  -3.009  24.262  0.00  0.00    +0.000 A 
ATOM     35  C   UNL     1      -4.400  -2.425  23.786  0.00  0.00    +0.000 A 
ATOM     36  C   UNL     1      -4.186  -1.636  23.886  0.00  0.00    +0.000 A 
ENDBRANCH  28  31
ENDBRANCH  24  25
ENDBRANCH  16  20
BRANCH  12  11
ATOM     11  O   UNL     1       0.797   0.765  22.991  0.00  0.00    -0.432 OA
BRANCH  11   9
ATOM      8  N   UNL     1       2.103   0.257  22.712  0.00  0.00    -0.142 NA
ATOM      9  C   UNL     1       1.605   0.741  23.156  0.00  0.00    +0.425 C 
ATOM     10  O   UNL     1       1.915   1.204  23.766  0.00  0.00    -0.224 OA
BRANCH   8   7
ATOM      4  C   UNL     1       4.527   0.184  23.208  0.00  0.00    +0.035 A 
ATOM      5  C   UNL     1       4.046  -0.456  23.406  0.00  0.00    +0.004 A 
ATOM      6  C   UNL     1       3.238  -0.432  23.241  0.00  0.00    +0.017 A 
ATOM      7  C   UNL     1       2.911   0.233  22.877  0.00  0.00    +0.077 A 
ATOM     37  C   UNL     1       3.392   0.872  22.679  0.00  0.00    +0.017 A 
ATOM     38  C   UNL     1       4.200   0.849  22.844  0.00  0.00    +0.004 A 
BRANCH   4   2
ATOM      1  C   UNL     1       5.616   0.439  24.097  0.00  0.00    +0.077 C 
ATOM      2  C   UNL     1       5.335   0.159  23.373  0.00  0.00    +0.173 C 
ATOM      3  O   UNL     1       5.861  -0.144  22.815  0.00  0.00    -0.291 OA
ENDBRANCH   4   2
ENDBRANCH   8   7
ENDBRANCH  11   9
ENDBRANCH  12  11
TORSDOF 7
ENDMDL
MODEL 4
REMARK VINA RESULT:     -11.5      2.154      4.255
REMARK  Name = 
REMARK  7 active torsions:
REMARK  status: ('A' for Active; 'I' for Inactive)
REMARK    1  A    between atoms: C_2  and  C_4
REMARK    2  A    between atoms: C_7  and  N_8
REMARK    3  A    between atoms: C_9  and  O_11
REMARK    4  A    between atoms: O_11  and  C_12
REMARK    5  A    between atoms: C_16  and  N_20
REMARK    6  A    between atoms: C_24  and  C_25
REMARK    7  A    between atoms: C_28  and  C_31
REMARK                            x       y       z     vdW  Elec       q    Type
REMARK                         _______ _______ _______ _____ _____    ______ ____
ROOT
ATOM     12  C   UNL     1      -1.578   2.853  24.632  0.00  0.00    +0.229 C 
ATOM     13  C   UNL     1      -1.924   3.208  23.973  0.00  0.00    +0.188 C 
ATOM     14  O   UNL     1      -2.742   3.134  24.044  0.00  0.00    -0.348 OA
ATOM     15  C   UNL     1      -2.902   2.734  24.746  0.00  0.00    +0.171 C 
ATOM     16  C   UNL     1      -3.507   2.440  25.225  0.00  0.00    +0.167 C 
ATOM     17  C   UNL     1      -3.161   2.085  25.885  0.00  0.00    +0.169 C 
ATOM     18  O   UNL     1      -2.343   2.159  25.813  0.00  0.00    -0.348 OA
ATOM     19  C   UNL     1      -2.183   2.560  25.110  0.00  0.00    +0.187 C 
ENDROOT
BRANCH  16  20
ATOM     20  N   UNL     1      -4.316   2.493  25.072  0.00  0.00    -0.210 N 
ATOM     21  N   UNL     1      -4.770   3.181  25.093  0.00  0.00    -0.043 NA
ATOM     22  N   UNL     1      -5.547   2.980  24.904  0.00  0.00    -0.023 NA
ATOM     23  N   UNL     1      -5.574   2.168  24.766  0.00  0.00    -0.108 NA
ATOM     24  C   UNL     1      -4.813   1.867  24.869  0.00  0.00    +0.184 A 
BRANCH  24  25
ATOM     25  C   UNL     1      -4.588   1.077  24.785  0.00  0.00    +0.037 A 
ATOM     26  C   UNL     1      -4.343   0.793  24.050  0.00  0.00    +0.003 A 
ATOM     27  C   UNL     1      -4.119   0.004  23.966  0.00  0.00    +0.000 A 
ATOM     28  C   UNL     1      -4.139  -0.503  24.617  0.00  0.00    +0.000 A 
ATOM     29  C   UNL     1      -4.384  -0.219  25.352  0.00  0.00    +0.000 A 
ATOM     30  C   UNL     1      -4.609   0.571  25.436  0.00  0.00    +0.003 A 
BRANCH  28  31
ATOM     31  C   UNL     1      -3.915  -1.292  24.534  0.00  0.00    +0.000 A 
ATOM     32  C   UNL     1      -3.339  -1.611  25.031  0.00  0.00    +0.000 A 
ATOM     33  C   UNL     1      -3.114  -2.401  24.948  0.00  0.00    +0.000 A 
ATOM     34  C   UNL     1      -3.466  -2.871  24.367  0.00  0.00    +0.000 A 
ATOM     35  C   UNL     1      -4.042  -2.551  23.871  0.00  0.00    +0.000 A 
ATOM     36  C   UNL     1      -4.266  -1.761  23.955  0.00  0.00    +0.000 A 
ENDBRANCH  28  31
ENDBRANCH  24  25
ENDBRANCH  16  20
BRANCH  12  11
ATOM     11  O   UNL     1      -0.769   2.800  24.786  0.00  0.00    -0.432 OA
BRANCH  11   9
ATOM      8  N   UNL     1       0.036   1.651  24.516  0.00  0.00    -0.142 NA
ATOM      9  C   UNL     1      -0.279   2.374  24.277  0.00  0.00    +0.425 C 
ATOM     10  O   UNL     1      -0.104   2.673  23.528  0.00  0.00    -0.224 OA
BRANCH   8   7
ATOM      4  C   UNL     1       1.506   0.373  22.989  0.00  0.00    +0.035 A 
ATOM      5  C   UNL     1       0.740   0.107  23.143  0.00  0.00    +0.004 A 
ATOM      6  C   UNL     1       0.251   0.533  23.652  0.00  0.00    +0.017 A 
ATOM      7  C   UNL     1       0.527   1.225  24.007  0.00  0.00    +0.077 A 
ATOM     37  C   UNL     1       1.292   1.490  23.853  0.00  0.00    +0.017 A 
ATOM     38  C   UNL     1       1.782   1.064  23.344  0.00  0.00    +0.004 A 
BRANCH   4   2
ATOM      1  C   UNL     1       2.772  -0.224  22.702  0.00  0.00    +0.077 C 
ATOM      2  C   UNL     1       1.996  -0.054  22.480  0.00  0.00    +0.173 C 
ATOM      3  O   UNL     1       1.709  -0.310  21.750  0.00  0.00    -0.291 OA
ENDBRANCH   4   2
ENDBRANCH   8   7
ENDBRANCH  11   9
ENDBRANCH  12  11
TORSDOF 7
ENDMDL
MODEL 5
REMARK VINA RESULT:     -11.4      1.651      3.563
REMARK  Name = 
REMARK  7 active torsions:
REMARK  status: ('A' for Active; 'I' for Inactive)
REMARK    1  A    between atoms: C_2  and  C_4
REMARK    2  A    between atoms: C_7  and  N_8
REMARK    3  A    between atoms: C_9  and  O_11
REMARK    4  A    between atoms: O_11  and  C_12
REMARK    5  A    between atoms: C_16  and  N_20
REMARK    6  A    between atoms: C_24  and  C_25
REMARK    7  A    between atoms: C_28  and  C_31
REMARK                            x       y       z     vdW  Elec       q    Type
REMARK                         _______ _______ _______ _____ _____    ______ ____
ROOT
ATOM     12  C   UNL     1      -4.151   2.945  25.059  0.00  0.00    +0.229 C 
ATOM     13  C   UNL     1      -4.116   3.337  24.335  0.00  0.00    +0.188 C 
ATOM     14  O   UNL     1      -3.436   3.803  24.330  0.00  0.00    -0.348 OA
ATOM     15  C   UNL     1      -3.050   3.699  25.051  0.00  0.00    +0.171 C 
ATOM     16  C   UNL     1      -2.391   3.922  25.495  0.00  0.00    +0.167 C 
ATOM     17  C   UNL     1      -2.426   3.530  26.220  0.00  0.00    +0.169 C 
ATOM     18  O   UNL     1      -3.107   3.064  26.224  0.00  0.00    -0.348 OA
ATOM     19  C   UNL     1      -3.493   3.168  25.502  0.00  0.00    +0.187 C 
ENDROOT
BRANCH  16  20
ATOM     20  N   UNL     1      -1.801   4.446  25.255  0.00  0.00    -0.210 N 
ATOM     21  N   UNL     1      -1.823   5.268  25.327  0.00  0.00    -0.043 NA
ATOM     22  N   UNL     1      -1.121   5.570  25.017  0.00  0.00    -0.023 NA
ATOM     23  N   UNL     1      -0.664   4.936  24.755  0.00  0.00    -0.108 NA
ATOM     24  C   UNL     1      -1.085   4.241  24.901  0.00  0.00    +0.184 A 
BRANCH  24  25
ATOM     25  C   UNL     1      -0.833   3.475  24.725  0.00  0.00    +0.037 A 
ATOM     26  C   UNL     1      -0.499   3.004  25.315  0.00  0.00    +0.003 A 
ATOM     27  C   UNL     1      -0.247   2.239  25.139  0.00  0.00    +0.000 A 
ATOM     28  C   UNL     1      -0.329   1.944  24.373  0.00  0.00    +0.000 A 
ATOM     29  C   UNL     1      -0.663   2.415  23.783  0.00  0.00    +0.000 A 
ATOM     30  C   UNL     1      -0.915   3.180  23.960  0.00  0.00    +0.003 A 
BRANCH  28  31
ATOM     31  C   UNL     1      -0.077   1.178  24.196  0.00  0.00    +0.000 A 
ATOM     32  C   UNL     1       0.549   1.061  23.671  0.00  0.00    +0.000 A 
ATOM     33  C   UNL     1       0.801   0.296  23.495  0.00  0.00    +0.000 A 
ATOM     34  C   UNL     1       0.427  -0.352  23.842  0.00  0.00    +0.000 A 
ATOM     35  C   UNL     1      -0.199  -0.235  24.367  0.00  0.00    +0.000 A 
ATOM     36  C   UNL     1      -0.451   0.531  24.543  0.00  0.00    +0.000 A 
ENDBRANCH  28  31
ENDBRANCH  24  25
ENDBRANCH  16  20
BRANCH  12  11
ATOM     11  O   UNL     1      -4.742   2.421  25.299  0.00  0.00    -0.432 OA
BRANCH  11   9
ATOM      8  N   UNL     1      -4.080   1.160  25.182  0.00  0.00    -0.142 NA
ATOM      9  C   UNL     1      -4.734   1.639  25.034  0.00  0.00    +0.425 C 
ATOM     10  O   UNL     1      -5.381   1.339  24.618  0.00  0.00    -0.224 OA
BRANCH   8   7
ATOM      4  C   UNL     1      -4.055  -1.184  24.386  0.00  0.00    +0.035 A 
ATOM      5  C   UNL     1      -4.121  -1.023  25.193  0.00  0.00    +0.004 A 
ATOM      6  C   UNL     1      -4.129  -0.242  25.458  0.00  0.00    +0.017 A 
ATOM      7  C   UNL     1      -4.072   0.378  24.917  0.00  0.00    +0.077 A 
ATOM     37  C   UNL     1      -4.007   0.217  24.111  0.00  0.00    +0.017 A 
ATOM     38  C   UNL     1      -3.998  -0.564  23.845  0.00  0.00    +0.004 A 
BRANCH   4   2
ATOM      1  C   UNL     1      -3.512  -2.504  24.444  0.00  0.00    +0.077 C 
ATOM      2  C   UNL     1      -4.047  -1.965  24.121  0.00  0.00    +0.173 C 
ATOM      3  O   UNL     1      -4.574  -2.207  23.534  0.00  0.00    -0.291 OA
ENDBRANCH   4   2
ENDBRANCH   8   7
ENDBRANCH  11   9
ENDBRANCH  12  11
TORSDOF 7
ENDMDL
MODEL 6
REMARK VINA RESULT:     -11.1      2.161      3.848
REMARK  Name = 
REMARK  7 active torsions:
REMARK  status: ('A' for Active; 'I' for Inactive)
REMARK    1  A    between atoms: C_2  and  C_4
REMARK    2  A    between atoms: C_7  and  N_8
REMARK    3  A    between atoms: C_9  and  O_11
REMARK    4  A    between atoms: O_11  and  C_12
REMARK    5  A    between atoms: C_16  and  N_20
REMARK    6  A    between atoms: C_24  and  C_25
REMARK    7  A    between atoms: C_28  and  C_31
REMARK                            x       y       z     vdW  Elec       q    Type
REMARK                         _______ _______ _______ _____ _____    ______ ____
ROOT
ATOM     12  C   UNL     1      -4.800   0.436  25.004  0.00  0.00    +0.229 C 
ATOM     13  C   UNL     1      -5.103   0.469  25.771  0.00  0.00    +0.188 C 
ATOM     14  O   UNL     1      -5.324   1.249  25.923  0.00  0.00    -0.348 OA
ATOM     15  C   UNL     1      -5.159   1.697  25.251  0.00  0.00    +0.171 C 
ATOM     16  C   UNL     1      -5.193   2.456  24.929  0.00  0.00    +0.167 C 
ATOM     17  C   UNL     1      -4.891   2.423  24.163  0.00  0.00    +0.169 C 
ATOM     18  O   UNL     1      -4.669   1.643  24.011  0.00  0.00    -0.348 OA
ATOM     19  C   UNL     1      -4.835   1.195  24.683  0.00  0.00    +0.187 C 
ENDROOT
BRANCH  16  20
ATOM     20  N   UNL     1      -5.480   3.131  25.308  0.00  0.00    -0.210 N 
ATOM     21  N   UNL     1      -6.266   3.273  25.517  0.00  0.00    -0.043 NA
ATOM     22  N   UNL     1      -6.303   4.011  25.883  0.00  0.00    -0.023 NA
ATOM     23  N   UNL     1      -5.541   4.326  25.899  0.00  0.00    -0.108 NA
ATOM     24  C   UNL     1      -5.033   3.782  25.544  0.00  0.00    +0.184 A 
BRANCH  24  25
ATOM     25  C   UNL     1      -4.218   3.873  25.443  0.00  0.00    +0.037 A 
ATOM     26  C   UNL     1      -3.917   4.105  24.711  0.00  0.00    +0.003 A 
ATOM     27  C   UNL     1      -3.103   4.196  24.611  0.00  0.00    +0.000 A 
ATOM     28  C   UNL     1      -2.591   4.055  25.242  0.00  0.00    +0.000 A 
ATOM     29  C   UNL     1      -2.893   3.823  25.974  0.00  0.00    +0.000 A 
ATOM     30  C   UNL     1      -3.706   3.732  26.074  0.00  0.00    +0.003 A 
BRANCH  28  31
ATOM     31  C   UNL     1      -1.777   4.146  25.142  0.00  0.00    +0.000 A 
ATOM     32  C   UNL     1      -1.457   4.900  25.037  0.00  0.00    +0.000 A 
ATOM     33  C   UNL     1      -0.643   4.991  24.937  0.00  0.00    +0.000 A 
ATOM     34  C   UNL     1      -0.150   4.329  24.941  0.00  0.00    +0.000 A 
ATOM     35  C   UNL     1      -0.471   3.577  25.045  0.00  0.00    +0.000 A 
ATOM     36  C   UNL     1      -1.284   3.485  25.146  0.00  0.00    +0.000 A 
ENDBRANCH  28  31
ENDBRANCH  24  25
ENDBRANCH  16  20
BRANCH  12  11
ATOM     11  O   UNL     1      -4.513  -0.239  24.625  0.00  0.00    -0.432 OA
BRANCH  11   9
ATOM      8  N   UNL     1      -3.175  -0.579  24.257  0.00  0.00    -0.142 NA
ATOM      9  C   UNL     1      -3.772  -0.540  24.825  0.00  0.00    +0.425 C 
ATOM     10  O   UNL     1      -3.627  -0.803  25.594  0.00  0.00    -0.224 OA
BRANCH   8   7
ATOM      4  C   UNL     1      -0.950  -1.483  24.856  0.00  0.00    +0.035 A 
ATOM      5  C   UNL     1      -1.076  -0.668  24.847  0.00  0.00    +0.004 A 
ATOM      6  C   UNL     1      -1.817  -0.367  24.647  0.00  0.00    +0.017 A 
ATOM      7  C   UNL     1      -2.434  -0.881  24.457  0.00  0.00    +0.077 A 
ATOM     37  C   UNL     1      -2.308  -1.696  24.466  0.00  0.00    +0.017 A 
ATOM     38  C   UNL     1      -1.567  -1.998  24.665  0.00  0.00    +0.004 A 
BRANCH   4   2
ATOM      1  C   UNL     1      -0.144  -2.374  25.629  0.00  0.00    +0.077 C 
ATOM      2  C   UNL     1      -0.209  -1.784  25.055  0.00  0.00    +0.173 C 
ATOM      3  O   UNL     1       0.468  -1.496  24.682  0.00  0.00    -0.291 OA
ENDBRANCH   4   2
ENDBRANCH   8   7
ENDBRANCH  11   9
ENDBRANCH  12  11
TORSDOF 7
ENDMDL
