MODEL 1
REMARK VINA RESULT:     -10.0      0.000      0.000
REMARK  Name = 
REMARK  7 active torsions:
REMARK  status: ('A' for Active; 'I' for Inactive)
REMARK    1  A    between atoms: C_2  and  C_4
REMARK    2  A    between atoms: C_6  and  C_7
REMARK    3  A    between atoms: C_7  and  C_8
REMARK    4  A    between atoms: C_17  and  C_18
REMARK    5  A    between atoms: C_18  and  N_19
REMARK    6  A    between atoms: N_22  and  C_23
REMARK    7  A    between atoms: C_23  and  C_24
REMARK                            x       y       z     vdW  Elec       q    Type
REMARK                         _______ _______ _______ _____ _____    ______ ____
ROOT
ATOM      4  C   UNL     1      -4.597   1.360  24.769  0.00  0.00    +0.006 C 
ATOM      5  C   UNL     1      -4.464   0.646  24.377  0.00  0.00    +0.005 C 
ATOM      6  C   UNL     1      -3.743   0.513  23.997  0.00  0.00    +0.027 C 
ATOM     14  C   UNL     1      -3.156   1.093  24.010  0.00  0.00    -0.048 C 
ATOM     15  C   UNL     1      -2.437   0.959  23.631  0.00  0.00    +0.026 C 
ATOM     16  C   UNL     1      -3.291   1.806  24.402  0.00  0.00    -0.034 C 
ATOM     17  C   UNL     1      -4.010   1.940  24.781  0.00  0.00    +0.037 C 
ENDROOT
BRANCH   4   2
ATOM      1  C   UNL     1      -5.416   1.269  25.936  0.00  0.00    +0.000 C 
ATOM      2  C   UNL     1      -5.317   1.493  25.148  0.00  0.00    +0.000 C 
ATOM      3  C   UNL     1      -5.939   1.849  24.740  0.00  0.00    +0.000 C 
ENDBRANCH   4   2
BRANCH   6   7
ATOM      7  C   UNL     1      -3.610  -0.201  23.606  0.00  0.00    +0.091 C 
BRANCH   7   8
ATOM      8  C   UNL     1      -3.740  -0.916  23.995  0.00  0.00    +0.226 A 
ATOM      9  N   UNL     1      -4.373  -1.430  23.866  0.00  0.00    -0.112 NA
ATOM     10  N   UNL     1      -4.285  -2.075  24.373  0.00  0.00    -0.112 NA
ATOM     11  C   UNL     1      -3.598  -1.959  24.815  0.00  0.00    +0.227 A 
ATOM     12  C   UNL     1      -3.300  -2.470  25.390  0.00  0.00    +0.097 C 
ATOM     13  O   UNL     1      -3.262  -1.243  24.582  0.00  0.00    -0.423 OA
ENDBRANCH   7   8
ENDBRANCH   6   7
BRANCH  17  18
ATOM     18  C   UNL     1      -4.144   2.653  25.173  0.00  0.00    +0.076 C 
BRANCH  18  19
ATOM     19  N   UNL     1      -3.548   3.223  25.207  0.00  0.00    -0.270 NA
ATOM     20  C   UNL     1      -3.019   3.229  25.841  0.00  0.00    +0.090 C 
ATOM     21  C   UNL     1      -2.423   3.798  25.875  0.00  0.00    +0.090 C 
ATOM     22  N   UNL     1      -2.356   4.362  25.276  0.00  0.00    -0.268 NA
ATOM     26  C   UNL     1      -2.885   4.356  24.643  0.00  0.00    +0.090 C 
ATOM     27  C   UNL     1      -3.481   3.786  24.609  0.00  0.00    +0.090 C 
BRANCH  22  23
ATOM     23  C   UNL     1      -1.761   4.931  25.310  0.00  0.00    +0.108 C 
BRANCH  23  24
ATOM     24  C   UNL     1      -1.054   4.815  24.900  0.00  0.00    +0.199 C 
ATOM     25  O   UNL     1      -0.498   5.423  24.855  0.00  0.00    -0.219 OA
ENDBRANCH  23  24
ENDBRANCH  22  23
ENDBRANCH  18  19
ENDBRANCH  17  18
TORSDOF 7
ENDMDL
MODEL 2
REMARK VINA RESULT:      -9.7      1.045      4.705
REMARK  Name = 
REMARK  7 active torsions:
REMARK  status: ('A' for Active; 'I' for Inactive)
REMARK    1  A    between atoms: C_2  and  C_4
REMARK    2  A    between atoms: C_6  and  C_7
REMARK    3  A    between atoms: C_7  and  C_8
REMARK    4  A    between atoms: C_17  and  C_18
REMARK    5  A    between atoms: C_18  and  N_19
REMARK    6  A    between atoms: N_22  and  C_23
REMARK    7  A    between atoms: C_23  and  C_24
REMARK                            x       y       z     vdW  Elec       q    Type
REMARK                         _______ _______ _______ _____ _____    ______ ____
ROOT
ATOM      4  C   UNL     1      -4.772   1.720  24.745  0.00  0.00    +0.006 C 
ATOM      5  C   UNL     1      -4.438   2.424  24.473  0.00  0.00    +0.005 C 
ATOM      6  C   UNL     1      -3.757   2.403  24.007  0.00  0.00    +0.027 C 
ATOM     14  C   UNL     1      -3.412   1.679  23.813  0.00  0.00    -0.048 C 
ATOM     15  C   UNL     1      -2.732   1.658  23.347  0.00  0.00    +0.026 C 
ATOM     16  C   UNL     1      -3.747   0.976  24.085  0.00  0.00    -0.034 C 
ATOM     17  C   UNL     1      -4.427   0.997  24.551  0.00  0.00    +0.037 C 
ENDROOT
BRANCH   4   2
ATOM      1  C   UNL     1      -6.197   1.696  24.857  0.00  0.00    +0.000 C 
ATOM      2  C   UNL     1      -5.452   1.742  25.211  0.00  0.00    +0.000 C 
ATOM      3  C   UNL     1      -5.389   1.809  26.030  0.00  0.00    +0.000 C 
ENDBRANCH   4   2
BRANCH   6   7
ATOM      7  C   UNL     1      -3.422   3.106  23.735  0.00  0.00    +0.091 C 
BRANCH   7   8
ATOM      8  C   UNL     1      -3.102   3.644  24.270  0.00  0.00    +0.226 A 
ATOM      9  N   UNL     1      -3.492   4.296  24.594  0.00  0.00    -0.112 NA
ATOM     10  N   UNL     1      -2.966   4.681  25.100  0.00  0.00    -0.112 NA
ATOM     11  C   UNL     1      -2.252   4.268  25.089  0.00  0.00    +0.227 A 
ATOM     12  C   UNL     1      -1.573   4.461  25.516  0.00  0.00    +0.097 C 
ATOM     13  O   UNL     1      -2.336   3.627  24.576  0.00  0.00    -0.423 OA
ENDBRANCH   7   8
ENDBRANCH   6   7
BRANCH  17  18
ATOM     18  C   UNL     1      -4.762   0.294  24.823  0.00  0.00    +0.076 C 
BRANCH  18  19
ATOM     19  N   UNL     1      -4.339  -0.413  24.768  0.00  0.00    -0.270 NA
ATOM     20  C   UNL     1      -3.815  -0.627  25.369  0.00  0.00    +0.090 C 
ATOM     21  C   UNL     1      -3.393  -1.334  25.314  0.00  0.00    +0.090 C 
ATOM     22  N   UNL     1      -3.495  -1.827  24.659  0.00  0.00    -0.268 NA
ATOM     26  C   UNL     1      -4.019  -1.611  24.060  0.00  0.00    +0.090 C 
ATOM     27  C   UNL     1      -4.442  -0.905  24.115  0.00  0.00    +0.090 C 
BRANCH  22  23
ATOM     23  C   UNL     1      -3.073  -2.532  24.604  0.00  0.00    +0.108 C 
BRANCH  23  24
ATOM     24  C   UNL     1      -2.253  -2.518  24.519  0.00  0.00    +0.199 C 
ATOM     25  O   UNL     1      -1.862  -3.156  24.172  0.00  0.00    -0.219 OA
ENDBRANCH  23  24
ENDBRANCH  22  23
ENDBRANCH  18  19
ENDBRANCH  17  18
TORSDOF 7
ENDMDL
MODEL 3
REMARK VINA RESULT:      -9.6      1.680      2.614
REMARK  Name = 
REMARK  7 active torsions:
REMARK  status: ('A' for Active; 'I' for Inactive)
REMARK    1  A    between atoms: C_2  and  C_4
REMARK    2  A    between atoms: C_6  and  C_7
REMARK    3  A    between atoms: C_7  and  C_8
REMARK    4  A    between atoms: C_17  and  C_18
REMARK    5  A    between atoms: C_18  and  N_19
REMARK    6  A    between atoms: N_22  and  C_23
REMARK    7  A    between atoms: C_23  and  C_24
REMARK                            x       y       z     vdW  Elec       q    Type
REMARK                         _______ _______ _______ _____ _____    ______ ____
ROOT
ATOM      4  C   UNL     1      -1.700  -0.148  25.070  0.00  0.00    +0.006 C 
ATOM      5  C   UNL     1      -2.430  -0.533  25.068  0.00  0.00    +0.005 C 
ATOM      6  C   UNL     1      -3.125  -0.097  24.976  0.00  0.00    +0.027 C 
ATOM     14  C   UNL     1      -3.089   0.722  24.885  0.00  0.00    -0.048 C 
ATOM     15  C   UNL     1      -3.784   1.157  24.793  0.00  0.00    +0.026 C 
ATOM     16  C   UNL     1      -2.359   1.106  24.887  0.00  0.00    -0.034 C 
ATOM     17  C   UNL     1      -1.664   0.671  24.979  0.00  0.00    +0.037 C 
ENDROOT
BRANCH   4   2
ATOM      1  C   UNL     1      -0.554  -0.785  24.501  0.00  0.00    +0.000 C 
ATOM      2  C   UNL     1      -1.006  -0.584  25.162  0.00  0.00    +0.000 C 
ATOM      3  C   UNL     1      -0.762  -0.818  25.914  0.00  0.00    +0.000 C 
ENDBRANCH   4   2
BRANCH   6   7
ATOM      7  C   UNL     1      -3.855  -0.482  24.974  0.00  0.00    +0.091 C 
BRANCH   7   8
ATOM      8  C   UNL     1      -3.955  -1.174  24.539  0.00  0.00    +0.226 A 
ATOM      9  N   UNL     1      -4.205  -1.220  23.753  0.00  0.00    -0.112 NA
ATOM     10  N   UNL     1      -4.228  -2.017  23.540  0.00  0.00    -0.112 NA
ATOM     11  C   UNL     1      -3.993  -2.463  24.194  0.00  0.00    +0.227 A 
ATOM     12  C   UNL     1      -3.936  -3.285  24.225  0.00  0.00    +0.097 C 
ATOM     13  O   UNL     1      -3.825  -1.941  24.811  0.00  0.00    -0.423 OA
ENDBRANCH   7   8
ENDBRANCH   6   7
BRANCH  17  18
ATOM     18  C   UNL     1      -0.935   1.055  24.981  0.00  0.00    +0.076 C 
BRANCH  18  19
ATOM     19  N   UNL     1      -0.902   1.880  25.008  0.00  0.00    -0.270 NA
ATOM     20  C   UNL     1      -0.890   2.315  24.307  0.00  0.00    +0.090 C 
ATOM     21  C   UNL     1      -0.857   3.139  24.334  0.00  0.00    +0.090 C 
ATOM     22  N   UNL     1      -0.837   3.528  25.062  0.00  0.00    -0.268 NA
ATOM     26  C   UNL     1      -0.849   3.092  25.762  0.00  0.00    +0.090 C 
ATOM     27  C   UNL     1      -0.882   2.268  25.735  0.00  0.00    +0.090 C 
BRANCH  22  23
ATOM     23  C   UNL     1      -0.804   4.350  25.089  0.00  0.00    +0.108 C 
BRANCH  23  24
ATOM     24  C   UNL     1      -1.501   4.791  25.114  0.00  0.00    +0.199 C 
ATOM     25  O   UNL     1      -1.469   5.615  25.140  0.00  0.00    -0.219 OA
ENDBRANCH  23  24
ENDBRANCH  22  23
ENDBRANCH  18  19
ENDBRANCH  17  18
TORSDOF 7
ENDMDL
MODEL 4
REMARK VINA RESULT:      -9.3      2.144      4.539
REMARK  Name = 
REMARK  7 active torsions:
REMARK  status: ('A' for Active; 'I' for Inactive)
REMARK    1  A    between atoms: C_2  and  C_4
REMARK    2  A    between atoms: C_6  and  C_7
REMARK    3  A    between atoms: C_7  and  C_8
REMARK    4  A    between atoms: C_17  and  C_18
REMARK    5  A    between atoms: C_18  and  N_19
REMARK    6  A    between atoms: N_22  and  C_23
REMARK    7  A    between atoms: C_23  and  C_24
REMARK                            x       y       z     vdW  Elec       q    Type
REMARK                         _______ _______ _______ _____ _____    ______ ____
ROOT
ATOM      4  C   UNL     1      -2.005   3.014  24.925  0.00  0.00    +0.006 C 
ATOM      5  C   UNL     1      -2.759   3.305  24.762  0.00  0.00    +0.005 C 
ATOM      6  C   UNL     1      -3.276   2.868  24.288  0.00  0.00    +0.027 C 
ATOM     14  C   UNL     1      -3.037   2.142  23.977  0.00  0.00    -0.048 C 
ATOM     15  C   UNL     1      -3.553   1.707  23.504  0.00  0.00    +0.026 C 
ATOM     16  C   UNL     1      -2.282   1.852  24.141  0.00  0.00    -0.034 C 
ATOM     17  C   UNL     1      -1.766   2.288  24.614  0.00  0.00    +0.037 C 
ENDROOT
BRANCH   4   2
ATOM      1  C   UNL     1      -0.943   3.962  25.050  0.00  0.00    +0.000 C 
ATOM      2  C   UNL     1      -1.489   3.450  25.398  0.00  0.00    +0.000 C 
ATOM      3  C   UNL     1      -1.519   3.375  26.218  0.00  0.00    +0.000 C 
ENDBRANCH   4   2
BRANCH   6   7
ATOM      7  C   UNL     1      -4.030   3.159  24.125  0.00  0.00    +0.091 C 
BRANCH   7   8
ATOM      8  C   UNL     1      -4.580   3.242  24.733  0.00  0.00    +0.226 A 
ATOM      9  N   UNL     1      -4.796   3.950  25.098  0.00  0.00    -0.112 NA
ATOM     10  N   UNL     1      -5.361   3.778  25.674  0.00  0.00    -0.112 NA
ATOM     11  C   UNL     1      -5.495   2.964  25.665  0.00  0.00    +0.227 A 
ATOM     12  C   UNL     1      -6.019   2.552  26.151  0.00  0.00    +0.097 C 
ATOM     13  O   UNL     1      -5.012   2.633  25.083  0.00  0.00    -0.423 OA
ENDBRANCH   7   8
ENDBRANCH   6   7
BRANCH  17  18
ATOM     18  C   UNL     1      -1.012   1.998  24.777  0.00  0.00    +0.076 C 
BRANCH  18  19
ATOM     19  N   UNL     1      -0.875   1.183  24.785  0.00  0.00    -0.270 NA
ATOM     20  C   UNL     1      -0.524   0.818  24.134  0.00  0.00    +0.090 C 
ATOM     21  C   UNL     1      -0.387   0.004  24.142  0.00  0.00    +0.090 C 
ATOM     22  N   UNL     1      -0.603  -0.444  24.801  0.00  0.00    -0.268 NA
ATOM     26  C   UNL     1      -0.954  -0.078  25.451  0.00  0.00    +0.090 C 
ATOM     27  C   UNL     1      -1.090   0.736  25.443  0.00  0.00    +0.090 C 
BRANCH  22  23
ATOM     23  C   UNL     1      -0.467  -1.257  24.809  0.00  0.00    +0.108 C 
BRANCH  23  24
ATOM     24  C   UNL     1      -1.102  -1.782  24.777  0.00  0.00    +0.199 C 
ATOM     25  O   UNL     1      -0.973  -2.592  24.870  0.00  0.00    -0.219 OA
ENDBRANCH  23  24
ENDBRANCH  22  23
ENDBRANCH  18  19
ENDBRANCH  17  18
TORSDOF 7
ENDMDL
MODEL 5
REMARK VINA RESULT:      -9.0      2.330      3.436
REMARK  Name = 
REMARK  7 active torsions:
REMARK  status: ('A' for Active; 'I' for Inactive)
REMARK    1  A    between atoms: C_2  and  C_4
REMARK    2  A    between atoms: C_6  and  C_7
REMARK    3  A    between atoms: C_7  and  C_8
REMARK    4  A    between atoms: C_17  and  C_18
REMARK    5  A    between atoms: C_18  and  N_19
REMARK    6  A    between atoms: N_22  and  C_23
REMARK    7  A    between atoms: C_23  and  C_24
REMARK                            x       y       z     vdW  Elec       q    Type
REMARK                         _______ _______ _______ _____ _____    ______ ____
ROOT
ATOM      4  C   UNL     1      -3.085  -0.484  24.743  0.00  0.00    +0.006 C 
ATOM      5  C   UNL     1      -2.277  -0.550  24.899  0.00  0.00    +0.005 C 
ATOM      6  C   UNL     1      -1.837   0.124  25.081  0.00  0.00    +0.027 C 
ATOM     14  C   UNL     1      -2.204   0.863  25.107  0.00  0.00    -0.048 C 
ATOM     15  C   UNL     1      -1.764   1.536  25.289  0.00  0.00    +0.026 C 
ATOM     16  C   UNL     1      -3.012   0.927  24.952  0.00  0.00    -0.034 C 
ATOM     17  C   UNL     1      -3.452   0.254  24.770  0.00  0.00    +0.037 C 
ENDROOT
BRANCH   4   2
ATOM      1  C   UNL     1      -3.751  -1.677  25.162  0.00  0.00    +0.000 C 
ATOM      2  C   UNL     1      -3.524  -1.158  24.561  0.00  0.00    +0.000 C 
ATOM      3  C   UNL     1      -3.738  -1.313  23.781  0.00  0.00    +0.000 C 
ENDBRANCH   4   2
BRANCH   6   7
ATOM      7  C   UNL     1      -1.029   0.059  25.236  0.00  0.00    +0.091 C 
BRANCH   7   8
ATOM      8  C   UNL     1      -0.521  -0.236  24.659  0.00  0.00    +0.226 A 
ATOM      9  N   UNL     1      -0.263  -1.018  24.593  0.00  0.00    -0.112 NA
ATOM     10  N   UNL     1       0.237  -1.067  23.938  0.00  0.00    -0.112 NA
ATOM     11  C   UNL     1       0.289  -0.316  23.600  0.00  0.00    +0.227 A 
ATOM     12  C   UNL     1       0.731  -0.113  22.934  0.00  0.00    +0.097 C 
ATOM     13  O   UNL     1      -0.179   0.197  24.046  0.00  0.00    -0.423 OA
ENDBRANCH   7   8
ENDBRANCH   6   7
BRANCH  17  18
ATOM     18  C   UNL     1      -4.259   0.318  24.615  0.00  0.00    +0.076 C 
BRANCH  18  19
ATOM     19  N   UNL     1      -4.662   1.014  24.805  0.00  0.00    -0.270 NA
ATOM     20  C   UNL     1      -5.066   1.072  25.522  0.00  0.00    +0.090 C 
ATOM     21  C   UNL     1      -5.469   1.767  25.713  0.00  0.00    +0.090 C 
ATOM     22  N   UNL     1      -5.467   2.403  25.187  0.00  0.00    -0.268 NA
ATOM     26  C   UNL     1      -5.062   2.343  24.470  0.00  0.00    +0.090 C 
ATOM     27  C   UNL     1      -4.660   1.649  24.280  0.00  0.00    +0.090 C 
BRANCH  22  23
ATOM     23  C   UNL     1      -5.869   3.097  25.377  0.00  0.00    +0.108 C 
BRANCH  23  24
ATOM     24  C   UNL     1      -5.448   3.766  25.613  0.00  0.00    +0.199 C 
ATOM     25  O   UNL     1      -5.849   4.466  25.787  0.00  0.00    -0.219 OA
ENDBRANCH  23  24
ENDBRANCH  22  23
ENDBRANCH  18  19
ENDBRANCH  17  18
TORSDOF 7
ENDMDL
MODEL 6
REMARK VINA RESULT:      -9.0      1.098      5.135
REMARK  Name = 
REMARK  7 active torsions:
REMARK  status: ('A' for Active; 'I' for Inactive)
REMARK    1  A    between atoms: C_2  and  C_4
REMARK    2  A    between atoms: C_6  and  C_7
REMARK    3  A    between atoms: C_7  and  C_8
REMARK    4  A    between atoms: C_17  and  C_18
REMARK    5  A    between atoms: C_18  and  N_19
REMARK    6  A    between atoms: N_22  and  C_23
REMARK    7  A    between atoms: C_23  and  C_24
REMARK                            x       y       z     vdW  Elec       q    Type
REMARK                         _______ _______ _______ _____ _____    ______ ____
ROOT
ATOM      4  C   UNL     1      -2.981   2.066  23.560  0.00  0.00    +0.006 C 
ATOM      5  C   UNL     1      -3.077   2.798  23.929  0.00  0.00    +0.005 C 
ATOM      6  C   UNL     1      -3.609   2.876  24.555  0.00  0.00    +0.027 C 
ATOM     14  C   UNL     1      -4.044   2.224  24.812  0.00  0.00    -0.048 C 
ATOM     15  C   UNL     1      -4.575   2.303  25.437  0.00  0.00    +0.026 C 
ATOM     16  C   UNL     1      -3.947   1.493  24.441  0.00  0.00    -0.034 C 
ATOM     17  C   UNL     1      -3.416   1.414  23.816  0.00  0.00    +0.037 C 
ENDROOT
BRANCH   4   2
ATOM      1  C   UNL     1      -1.651   1.843  23.087  0.00  0.00    +0.000 C 
ATOM      2  C   UNL     1      -2.449   1.988  22.934  0.00  0.00    +0.000 C 
ATOM      3  C   UNL     1      -2.714   2.055  22.156  0.00  0.00    +0.000 C 
ENDBRANCH   4   2
BRANCH   6   7
ATOM      7  C   UNL     1      -3.705   3.607  24.924  0.00  0.00    +0.091 C 
BRANCH   7   8
ATOM      8  C   UNL     1      -3.049   4.012  25.215  0.00  0.00    +0.226 A 
ATOM      9  N   UNL     1      -2.732   3.941  25.974  0.00  0.00    -0.112 NA
ATOM     10  N   UNL     1      -2.080   4.445  26.027  0.00  0.00    -0.112 NA
ATOM     11  C   UNL     1      -1.994   4.827  25.301  0.00  0.00    +0.227 A 
ATOM     12  C   UNL     1      -1.412   5.379  25.109  0.00  0.00    +0.097 C 
ATOM     13  O   UNL     1      -2.593   4.559  24.799  0.00  0.00    -0.423 OA
ENDBRANCH   7   8
ENDBRANCH   6   7
BRANCH  17  18
ATOM     18  C   UNL     1      -3.319   0.683  23.446  0.00  0.00    +0.076 C 
BRANCH  18  19
ATOM     19  N   UNL     1      -3.394  -0.014  23.884  0.00  0.00    -0.270 NA
ATOM     20  C   UNL     1      -2.792  -0.243  24.399  0.00  0.00    +0.090 C 
ATOM     21  C   UNL     1      -2.867  -0.939  24.836  0.00  0.00    +0.090 C 
ATOM     22  N   UNL     1      -3.544  -1.406  24.757  0.00  0.00    -0.268 NA
ATOM     26  C   UNL     1      -4.144  -1.175  24.241  0.00  0.00    +0.090 C 
ATOM     27  C   UNL     1      -4.070  -0.479  23.804  0.00  0.00    +0.090 C 
BRANCH  22  23
ATOM     23  C   UNL     1      -3.618  -2.101  25.193  0.00  0.00    +0.108 C 
BRANCH  23  24
ATOM     24  C   UNL     1      -3.481  -2.830  24.834  0.00  0.00    +0.199 C 
ATOM     25  O   UNL     1      -3.441  -3.515  25.292  0.00  0.00    -0.219 OA
ENDBRANCH  23  24
ENDBRANCH  22  23
ENDBRANCH  18  19
ENDBRANCH  17  18
TORSDOF 7
ENDMDL
MODEL 7
REMARK VINA RESULT:      -9.0      2.486      4.099
REMARK  Name = 
REMARK  7 active torsions:
REMARK  status: ('A' for Active; 'I' for Inactive)
REMARK    1  A    between atoms: C_2  and  C_4
REMARK    2  A    between atoms: C_6  and  C_7
REMARK    3  A    between atoms: C_7  and  C_8
REMARK    4  A    between atoms: C_17  and  C_18
REMARK    5  A    between atoms: C_18  and  N_19
REMARK    6  A    between atoms: N_22  and  C_23
REMARK    7  A    between atoms: C_23  and  C_24
REMARK                            x       y       z     vdW  Elec       q    Type
REMARK                         _______ _______ _______ _____ _____    ______ ____
ROOT
ATOM      4  C   UNL     1      -3.435  -0.268  24.890  0.00  0.00    +0.006 C 
ATOM      5  C   UNL     1      -4.040   0.248  24.671  0.00  0.00    +0.005 C 
ATOM      6  C   UNL     1      -3.863   0.933  24.244  0.00  0.00    +0.027 C 
ATOM     14  C   UNL     1      -3.082   1.100  24.037  0.00  0.00    -0.048 C 
ATOM     15  C   UNL     1      -2.906   1.783  23.611  0.00  0.00    +0.026 C 
ATOM     16  C   UNL     1      -2.478   0.582  24.257  0.00  0.00    -0.034 C 
ATOM     17  C   UNL     1      -2.654  -0.101  24.683  0.00  0.00    +0.037 C 
ENDROOT
BRANCH   4   2
ATOM      1  C   UNL     1      -3.872  -1.628  24.921  0.00  0.00    +0.000 C 
ATOM      2  C   UNL     1      -3.612  -0.951  25.317  0.00  0.00    +0.000 C 
ATOM      3  C   UNL     1      -3.531  -0.959  26.137  0.00  0.00    +0.000 C 
ENDBRANCH   4   2
BRANCH   6   7
ATOM      7  C   UNL     1      -4.468   1.449  24.024  0.00  0.00    +0.091 C 
BRANCH   7   8
ATOM      8  C   UNL     1      -4.947   1.792  24.600  0.00  0.00    +0.226 A 
ATOM      9  N   UNL     1      -5.710   1.550  24.803  0.00  0.00    -0.112 NA
ATOM     10  N   UNL     1      -5.983   2.046  25.404  0.00  0.00    -0.112 NA
ATOM     11  C   UNL     1      -5.389   2.594  25.572  0.00  0.00    +0.227 A 
ATOM     12  C   UNL     1      -5.427   3.193  26.137  0.00  0.00    +0.097 C 
ATOM     13  O   UNL     1      -4.749   2.436  25.075  0.00  0.00    -0.423 OA
ENDBRANCH   7   8
ENDBRANCH   6   7
BRANCH  17  18
ATOM     18  C   UNL     1      -2.050  -0.617  24.903  0.00  0.00    +0.076 C 
BRANCH  18  19
ATOM     19  N   UNL     1      -1.300  -0.542  24.566  0.00  0.00    -0.270 NA
ATOM     20  C   UNL     1      -1.087  -1.014  23.924  0.00  0.00    +0.090 C 
ATOM     21  C   UNL     1      -0.338  -0.939  23.588  0.00  0.00    +0.090 C 
ATOM     22  N   UNL     1       0.199  -0.392  23.894  0.00  0.00    -0.268 NA
ATOM     26  C   UNL     1      -0.014   0.080  24.536  0.00  0.00    +0.090 C 
ATOM     27  C   UNL     1      -0.764   0.004  24.873  0.00  0.00    +0.090 C 
BRANCH  22  23
ATOM     23  C   UNL     1       0.948  -0.317  23.558  0.00  0.00    +0.108 C 
BRANCH  23  24
ATOM     24  C   UNL     1       1.035   0.031  22.815  0.00  0.00    +0.199 C 
ATOM     25  O   UNL     1       1.779   0.072  22.462  0.00  0.00    -0.219 OA
ENDBRANCH  23  24
ENDBRANCH  22  23
ENDBRANCH  18  19
ENDBRANCH  17  18
TORSDOF 7
ENDMDL
