MODEL 1
REMARK VINA RESULT:     -10.9      0.000      0.000
REMARK  Name = 
REMARK  6 active torsions:
REMARK  status: ('A' for Active; 'I' for Inactive)
REMARK    1  A    between atoms: O_2  and  C_3
REMARK    2  A    between atoms: C_6  and  C_9
REMARK    3  A    between atoms: C_15  and  N_16
REMARK    4  A    between atoms: N_16  and  C_17
REMARK    5  A    between atoms: C_17  and  C_18
REMARK    6  A    between atoms: C_20  and  O_21
REMARK                            x       y       z     vdW  Elec       q    Type
REMARK                         _______ _______ _______ _____ _____    ______ ____
ROOT
ATOM      9  C   UNL     1      -3.670   2.590  24.867  0.00  0.00    +0.044 C 
ATOM     10  C   UNL     1      -4.134   3.255  25.020  0.00  0.00    +0.041 C 
ATOM     11  C   UNL     1      -4.902   3.000  25.175  0.00  0.00    +0.184 C 
ATOM     12  O   UNL     1      -5.547   3.483  25.355  0.00  0.00    -0.220 OA
ATOM     13  C   UNL     1      -4.914   2.177  25.117  0.00  0.00    +0.198 C 
ATOM     14  O   UNL     1      -5.573   1.693  25.230  0.00  0.00    -0.219 OA
ATOM     15  C   UNL     1      -4.153   1.923  24.927  0.00  0.00    +0.110 C 
ENDROOT
BRANCH   9   6
ATOM      3  C   UNL     1      -1.256   2.592  24.322  0.00  0.00    +0.139 A 
ATOM      4  C   UNL     1      -1.814   2.516  23.720  0.00  0.00    +0.037 A 
ATOM      5  C   UNL     1      -2.620   2.515  23.902  0.00  0.00    -0.001 A 
ATOM      6  C   UNL     1      -2.866   2.591  24.685  0.00  0.00    -0.021 A 
ATOM      7  C   UNL     1      -2.308   2.667  25.287  0.00  0.00    -0.001 A 
ATOM      8  C   UNL     1      -1.502   2.668  25.105  0.00  0.00    +0.037 A 
BRANCH   3   2
ATOM      1  C   UNL     1       0.033   1.981  24.407  0.00  0.00    +0.252 C 
ATOM      2  O   UNL     1      -0.451   2.593  24.141  0.00  0.00    -0.471 OA
ENDBRANCH   3   2
ENDBRANCH   9   6
BRANCH  15  16
ATOM     16  N   UNL     1      -3.916   1.142  24.816  0.00  0.00    -0.212 NA
BRANCH  16  17
ATOM     17  C   UNL     1      -4.381   0.525  25.107  0.00  0.00    +0.115 C 
BRANCH  17  18
ATOM     18  C   UNL     1      -4.113  -0.254  25.054  0.00  0.00    -0.002 A 
ATOM     19  C   UNL     1      -4.282  -0.703  24.383  0.00  0.00    +0.034 A 
ATOM     20  C   UNL     1      -4.014  -1.482  24.330  0.00  0.00    +0.138 A 
ATOM     23  C   UNL     1      -3.577  -1.811  24.948  0.00  0.00    +0.037 A 
ATOM     24  C   UNL     1      -3.408  -1.361  25.618  0.00  0.00    +0.003 A 
ATOM     25  C   UNL     1      -3.676  -0.582  25.672  0.00  0.00    -0.003 A 
BRANCH  20  21
ATOM     21  O   UNL     1      -4.183  -1.932  23.659  0.00  0.00    -0.471 OA
ATOM     22  C   UNL     1      -4.101  -2.753  23.682  0.00  0.00    +0.252 C 
ENDBRANCH  20  21
ENDBRANCH  17  18
ENDBRANCH  16  17
ENDBRANCH  15  16
TORSDOF 6
ENDMDL
MODEL 2
REMARK VINA RESULT:     -10.7      0.869      4.017
REMARK  Name = 
REMARK  6 active torsions:
REMARK  status: ('A' for Active; 'I' for Inactive)
REMARK    1  A    between atoms: O_2  and  C_3
REMARK    2  A    between atoms: C_6  and  C_9
REMARK    3  A    between atoms: C_15  and  N_16
REMARK    4  A    between atoms: N_16  and  C_17
REMARK    5  A    between atoms: C_17  and  C_18
REMARK    6  A    between atoms: C_20  and  O_21
REMARK                            x       y       z     vdW  Elec       q    Type
REMARK                         _______ _______ _______ _____ _____    ______ ____
ROOT
ATOM      9  C   UNL     1      -4.571   0.824  24.876  0.00  0.00    +0.044 C 
ATOM     10  C   UNL     1      -5.374   0.973  24.988  0.00  0.00    +0.041 C 
ATOM     11  C   UNL     1      -5.487   1.790  24.968  0.00  0.00    +0.184 C 
ATOM     12  O   UNL     1      -6.208   2.182  25.056  0.00  0.00    -0.220 OA
ATOM     13  C   UNL     1      -4.753   2.146  24.843  0.00  0.00    +0.198 C 
ATOM     14  O   UNL     1      -4.611   2.957  24.786  0.00  0.00    -0.219 OA
ATOM     15  C   UNL     1      -4.187   1.549  24.787  0.00  0.00    +0.110 C 
ENDROOT
BRANCH   9   6
ATOM      3  C   UNL     1      -3.499  -1.406  24.818  0.00  0.00    +0.139 A 
ATOM      4  C   UNL     1      -3.580  -1.006  25.535  0.00  0.00    +0.037 A 
ATOM      5  C   UNL     1      -3.938  -0.262  25.554  0.00  0.00    -0.001 A 
ATOM      6  C   UNL     1      -4.214   0.081  24.857  0.00  0.00    -0.021 A 
ATOM      7  C   UNL     1      -4.133  -0.319  24.140  0.00  0.00    -0.001 A 
ATOM      8  C   UNL     1      -3.775  -1.063  24.121  0.00  0.00    +0.037 A 
BRANCH   3   2
ATOM      1  C   UNL     1      -3.550  -2.796  24.489  0.00  0.00    +0.252 C 
ATOM      2  O   UNL     1      -3.142  -2.149  24.799  0.00  0.00    -0.471 OA
ENDBRANCH   3   2
ENDBRANCH   9   6
BRANCH  15  16
ATOM     16  N   UNL     1      -3.379   1.658  24.663  0.00  0.00    -0.212 NA
BRANCH  16  17
ATOM     17  C   UNL     1      -3.040   2.401  24.779  0.00  0.00    +0.115 C 
BRANCH  17  18
ATOM     18  C   UNL     1      -2.221   2.491  24.743  0.00  0.00    -0.002 A 
ATOM     19  C   UNL     1      -1.793   2.654  25.430  0.00  0.00    +0.034 A 
ATOM     20  C   UNL     1      -0.973   2.744  25.394  0.00  0.00    +0.138 A 
ATOM     23  C   UNL     1      -0.582   2.671  24.672  0.00  0.00    +0.037 A 
ATOM     24  C   UNL     1      -1.010   2.508  23.985  0.00  0.00    +0.003 A 
ATOM     25  C   UNL     1      -1.829   2.418  24.021  0.00  0.00    -0.003 A 
BRANCH  20  21
ATOM     21  O   UNL     1      -0.546   2.907  26.081  0.00  0.00    -0.471 OA
ATOM     22  C   UNL     1       0.117   2.454  26.270  0.00  0.00    +0.252 C 
ENDBRANCH  20  21
ENDBRANCH  17  18
ENDBRANCH  16  17
ENDBRANCH  15  16
TORSDOF 6
ENDMDL
MODEL 3
REMARK VINA RESULT:     -10.2      1.003      2.935
REMARK  Name = 
REMARK  6 active torsions:
REMARK  status: ('A' for Active; 'I' for Inactive)
REMARK    1  A    between atoms: O_2  and  C_3
REMARK    2  A    between atoms: C_6  and  C_9
REMARK    3  A    between atoms: C_15  and  N_16
REMARK    4  A    between atoms: N_16  and  C_17
REMARK    5  A    between atoms: C_17  and  C_18
REMARK    6  A    between atoms: C_20  and  O_21
REMARK                            x       y       z     vdW  Elec       q    Type
REMARK                         _______ _______ _______ _____ _____    ______ ____
ROOT
ATOM      9  C   UNL     1      -1.829   2.405  24.670  0.00  0.00    +0.044 C 
ATOM     10  C   UNL     1      -1.125   2.784  24.467  0.00  0.00    +0.041 C 
ATOM     11  C   UNL     1      -0.532   2.212  24.422  0.00  0.00    +0.184 C 
ATOM     12  O   UNL     1       0.260   2.349  24.235  0.00  0.00    -0.220 OA
ATOM     13  C   UNL     1      -0.869   1.480  24.597  0.00  0.00    +0.198 C 
ATOM     14  O   UNL     1      -0.474   0.756  24.615  0.00  0.00    -0.219 OA
ATOM     15  C   UNL     1      -1.671   1.599  24.750  0.00  0.00    +0.110 C 
ENDROOT
BRANCH   9   6
ATOM      3  C   UNL     1      -4.029   3.494  24.983  0.00  0.00    +0.139 A 
ATOM      4  C   UNL     1      -3.512   3.418  25.621  0.00  0.00    +0.037 A 
ATOM      5  C   UNL     1      -2.778   3.055  25.517  0.00  0.00    -0.001 A 
ATOM      6  C   UNL     1      -2.562   2.768  24.774  0.00  0.00    -0.021 A 
ATOM      7  C   UNL     1      -3.079   2.844  24.137  0.00  0.00    -0.001 A 
ATOM      8  C   UNL     1      -3.813   3.208  24.241  0.00  0.00    +0.037 A 
BRANCH   3   2
ATOM      1  C   UNL     1      -5.358   3.471  25.507  0.00  0.00    +0.252 C 
ATOM      2  O   UNL     1      -4.762   3.857  25.088  0.00  0.00    -0.471 OA
ENDBRANCH   3   2
ENDBRANCH   9   6
BRANCH  15  16
ATOM     16  N   UNL     1      -2.218   1.015  24.948  0.00  0.00    -0.212 NA
BRANCH  16  17
ATOM     17  C   UNL     1      -2.070   0.228  24.753  0.00  0.00    +0.115 C 
BRANCH  17  18
ATOM     18  C   UNL     1      -2.638  -0.350  24.909  0.00  0.00    -0.002 A 
ATOM     19  C   UNL     1      -3.111  -0.640  24.298  0.00  0.00    +0.034 A 
ATOM     20  C   UNL     1      -3.679  -1.218  24.454  0.00  0.00    +0.138 A 
ATOM     23  C   UNL     1      -3.774  -1.505  25.222  0.00  0.00    +0.037 A 
ATOM     24  C   UNL     1      -3.302  -1.216  25.833  0.00  0.00    +0.003 A 
ATOM     25  C   UNL     1      -2.733  -0.638  25.676  0.00  0.00    -0.003 A 
BRANCH  20  21
ATOM     21  O   UNL     1      -4.151  -1.508  23.843  0.00  0.00    -0.471 OA
ATOM     22  C   UNL     1      -4.288  -2.319  23.777  0.00  0.00    +0.252 C 
ENDBRANCH  20  21
ENDBRANCH  17  18
ENDBRANCH  16  17
ENDBRANCH  15  16
TORSDOF 6
ENDMDL
MODEL 4
REMARK VINA RESULT:     -10.0      1.734      2.258
REMARK  Name = 
REMARK  6 active torsions:
REMARK  status: ('A' for Active; 'I' for Inactive)
REMARK    1  A    between atoms: O_2  and  C_3
REMARK    2  A    between atoms: C_6  and  C_9
REMARK    3  A    between atoms: C_15  and  N_16
REMARK    4  A    between atoms: N_16  and  C_17
REMARK    5  A    between atoms: C_17  and  C_18
REMARK    6  A    between atoms: C_20  and  O_21
REMARK                            x       y       z     vdW  Elec       q    Type
REMARK                         _______ _______ _______ _____ _____    ______ ____
ROOT
ATOM      9  C   UNL     1      -4.111   2.616  25.023  0.00  0.00    +0.044 C 
ATOM     10  C   UNL     1      -4.925   2.746  24.996  0.00  0.00    +0.041 C 
ATOM     11  C   UNL     1      -5.296   2.017  24.888  0.00  0.00    +0.184 C 
ATOM     12  O   UNL     1      -6.110   1.891  24.829  0.00  0.00    -0.220 OA
ATOM     13  C   UNL     1      -4.711   1.437  24.848  0.00  0.00    +0.198 C 
ATOM     14  O   UNL     1      -4.838   0.628  24.743  0.00  0.00    -0.219 OA
ATOM     15  C   UNL     1      -3.979   1.806  24.931  0.00  0.00    +0.110 C 
ENDROOT
BRANCH   9   6
ATOM      3  C   UNL     1      -2.370   4.348  25.325  0.00  0.00    +0.139 A 
ATOM      4  C   UNL     1      -2.712   3.989  25.984  0.00  0.00    +0.037 A 
ATOM      5  C   UNL     1      -3.293   3.410  25.883  0.00  0.00    -0.001 A 
ATOM      6  C   UNL     1      -3.531   3.193  25.124  0.00  0.00    -0.021 A 
ATOM      7  C   UNL     1      -3.188   3.552  24.466  0.00  0.00    -0.001 A 
ATOM      8  C   UNL     1      -2.607   4.131  24.566  0.00  0.00    +0.037 A 
BRANCH   3   2
ATOM      1  C   UNL     1      -1.057   4.844  25.056  0.00  0.00    +0.252 C 
ATOM      2  O   UNL     1      -1.789   4.925  25.426  0.00  0.00    -0.471 OA
ENDBRANCH   3   2
ENDBRANCH   9   6
BRANCH  15  16
ATOM     16  N   UNL     1      -3.244   1.432  24.925  0.00  0.00    -0.212 NA
BRANCH  16  17
ATOM     17  C   UNL     1      -3.200   0.611  24.869  0.00  0.00    +0.115 C 
BRANCH  17  18
ATOM     18  C   UNL     1      -2.472   0.230  24.953  0.00  0.00    -0.002 A 
ATOM     19  C   UNL     1      -1.901   0.296  24.361  0.00  0.00    +0.034 A 
ATOM     20  C   UNL     1      -1.173  -0.084  24.446  0.00  0.00    +0.138 A 
ATOM     23  C   UNL     1      -1.018  -0.531  25.122  0.00  0.00    +0.037 A 
ATOM     24  C   UNL     1      -1.589  -0.597  25.713  0.00  0.00    +0.003 A 
ATOM     25  C   UNL     1      -2.317  -0.217  25.629  0.00  0.00    -0.003 A 
BRANCH  20  21
ATOM     21  O   UNL     1      -0.602  -0.018  23.854  0.00  0.00    -0.471 OA
ATOM     22  C   UNL     1       0.095  -0.457  23.903  0.00  0.00    +0.252 C 
ENDBRANCH  20  21
ENDBRANCH  17  18
ENDBRANCH  16  17
ENDBRANCH  15  16
TORSDOF 6
ENDMDL
MODEL 5
REMARK VINA RESULT:      -9.8      2.151      3.688
REMARK  Name = 
REMARK  6 active torsions:
REMARK  status: ('A' for Active; 'I' for Inactive)
REMARK    1  A    between atoms: O_2  and  C_3
REMARK    2  A    between atoms: C_6  and  C_9
REMARK    3  A    between atoms: C_15  and  N_16
REMARK    4  A    between atoms: N_16  and  C_17
REMARK    5  A    between atoms: C_17  and  C_18
REMARK    6  A    between atoms: C_20  and  O_21
REMARK                            x       y       z     vdW  Elec       q    Type
REMARK                         _______ _______ _______ _____ _____    ______ ____
ROOT
ATOM      9  C   UNL     1      -2.580   3.805  25.067  0.00  0.00    +0.044 C 
ATOM     10  C   UNL     1      -2.405   4.609  25.116  0.00  0.00    +0.041 C 
ATOM     11  C   UNL     1      -1.586   4.690  25.158  0.00  0.00    +0.184 C 
ATOM     12  O   UNL     1      -1.170   5.401  25.213  0.00  0.00    -0.220 OA
ATOM     13  C   UNL     1      -1.254   3.935  25.135  0.00  0.00    +0.198 C 
ATOM     14  O   UNL     1      -0.448   3.758  25.163  0.00  0.00    -0.219 OA
ATOM     15  C   UNL     1      -1.868   3.388  25.079  0.00  0.00    +0.110 C 
ENDROOT
BRANCH   9   6
ATOM      3  C   UNL     1      -4.844   2.815  24.913  0.00  0.00    +0.139 A 
ATOM      4  C   UNL     1      -4.545   3.047  25.645  0.00  0.00    +0.037 A 
ATOM      5  C   UNL     1      -3.789   3.377  25.696  0.00  0.00    -0.001 A 
ATOM      6  C   UNL     1      -3.335   3.475  25.016  0.00  0.00    -0.021 A 
ATOM      7  C   UNL     1      -3.634   3.243  24.283  0.00  0.00    -0.001 A 
ATOM      8  C   UNL     1      -4.389   2.912  24.232  0.00  0.00    +0.037 A 
BRANCH   3   2
ATOM      1  C   UNL     1      -5.698   1.670  24.940  0.00  0.00    +0.252 C 
ATOM      2  O   UNL     1      -5.598   2.485  24.861  0.00  0.00    -0.471 OA
ENDBRANCH   3   2
ENDBRANCH   9   6
BRANCH  15  16
ATOM     16  N   UNL     1      -1.786   2.568  25.041  0.00  0.00    -0.212 NA
BRANCH  16  17
ATOM     17  C   UNL     1      -1.043   2.224  25.140  0.00  0.00    +0.115 C 
BRANCH  17  18
ATOM     18  C   UNL     1      -0.952   1.408  25.055  0.00  0.00    -0.002 A 
ATOM     19  C   UNL     1      -0.668   1.095  24.347  0.00  0.00    +0.034 A 
ATOM     20  C   UNL     1      -0.577   0.280  24.262  0.00  0.00    +0.138 A 
ATOM     23  C   UNL     1      -0.771  -0.224  24.887  0.00  0.00    +0.037 A 
ATOM     24  C   UNL     1      -1.055   0.089  25.595  0.00  0.00    +0.003 A 
ATOM     25  C   UNL     1      -1.146   0.904  25.680  0.00  0.00    -0.003 A 
BRANCH  20  21
ATOM     21  O   UNL     1      -0.293  -0.033  23.553  0.00  0.00    -0.471 OA
ATOM     22  C   UNL     1       0.508  -0.216  23.476  0.00  0.00    +0.252 C 
ENDBRANCH  20  21
ENDBRANCH  17  18
ENDBRANCH  16  17
ENDBRANCH  15  16
TORSDOF 6
ENDMDL
