REMARK  Name = 
REMARK  4 active torsions:
REMARK  status: ('A' for Active; 'I' for Inactive)
REMARK    1  A    between atoms: N_5  and  C_8
REMARK    2  A    between atoms: C_14  and  N_15
REMARK    3  A    between atoms: N_18  and  C_19
REMARK    4  A    between atoms: C_21  and  C_25
REMARK                            x       y       z     vdW  Elec       q    Type
REMARK                         _______ _______ _______ _____ _____    ______ ____
ROOT
ATOM      8  C   UNL     1       1.611  -0.930   0.000  0.00  0.00    +0.147 C 
ATOM      9  C   UNL     1       0.640  -0.930   0.000  0.00  0.00    +0.253 C 
ATOM     10  O   UNL     1       0.120  -1.643   0.000  0.00  0.00    -0.327 OA
ATOM     11  C   UNL     1       0.740  -1.266   0.000  0.00  0.00    +0.176 C 
ATOM     12  C   UNL     1       1.060  -0.557   0.000  0.00  0.00    +0.170 C 
ATOM     13  O   UNL     1       0.500  -0.117   0.000  0.00  0.00    -0.327 OA
ATOM     14  C   UNL     1       1.989  -0.542   0.000  0.00  0.00    +0.158 C 
ATOM     29  C   UNL     1       2.127  -1.359   0.000  0.00  0.00    +0.194 C 
ATOM     30  O   UNL     1       2.539  -2.074   0.000  0.00  0.00    -0.220 OA
ENDROOT
BRANCH   8   5
ATOM      1  C   UNL     1       0.490  -4.034   0.000  0.00  0.00    +0.090 C 
ATOM      2  N   UNL     1       0.771  -3.258   0.000  0.00  0.00    -0.269 NA
ATOM      3  C   UNL     1       0.239  -2.628   0.000  0.00  0.00    +0.090 C 
ATOM      4  C   UNL     1       0.519  -1.852   0.000  0.00  0.00    +0.090 C 
ATOM      5  N   UNL     1       1.331  -1.706   0.000  0.00  0.00    -0.265 NA
ATOM      6  C   UNL     1       1.863  -2.337   0.000  0.00  0.00    +0.090 C 
ATOM      7  C   UNL     1       1.583  -3.113   0.000  0.00  0.00    +0.090 C 
ENDBRANCH   8   5
BRANCH  14  15
ATOM     15  N   UNL     1       2.517   0.093   0.000  0.00  0.00    -0.183 NA
ATOM     16  C   UNL     1       3.330  -0.046   0.000  0.00  0.00    +0.344 C 
ATOM     17  O   UNL     1       3.616  -0.820   0.000  0.00  0.00    -0.249 OA
ATOM     18  N   UNL     1       3.857   0.588   0.000  0.00  0.00    -0.161 NA
BRANCH  18  19
ATOM     19  C   UNL     1       4.670   0.449   0.000  0.00  0.00    +0.075 A 
ATOM     20  C   UNL     1       5.197   1.083   0.000  0.00  0.00    +0.021 A 
ATOM     21  C   UNL     1       6.011   0.944   0.000  0.00  0.00    +0.073 A 
ATOM     22  C   UNL     1       6.296   0.170   0.000  0.00  0.00    +0.004 A 
ATOM     23  C   UNL     1       5.769  -0.465   0.000  0.00  0.00    +0.001 A 
ATOM     24  C   UNL     1       4.956  -0.325   0.000  0.00  0.00    +0.017 A 
BRANCH  21  25
ATOM     25  C   UNL     1       6.538   1.578   0.000  0.00  0.00    +0.419 C 
ATOM     26  F   UNL     1       7.065   2.213   0.000  0.00  0.00    -0.166 F 
ATOM     27  F   UNL     1       7.172   1.051   0.000  0.00  0.00    -0.166 F 
ATOM     28  F   UNL     1       5.903   2.106   0.000  0.00  0.00    -0.166 F 
ENDBRANCH  21  25
ENDBRANCH  18  19
ENDBRANCH  14  15
TORSDOF 4
