MODEL 1
REMARK VINA RESULT:     -10.9      0.000      0.000
REMARK  Name = 
REMARK  6 active torsions:
REMARK  status: ('A' for Active; 'I' for Inactive)
REMARK    1  A    between atoms: O_2  and  C_3
REMARK    2  A    between atoms: C_9  and  C_10
REMARK    3  A    between atoms: C_10  and  C_11
REMARK    4  A    between atoms: C_16  and  C_17
REMARK    5  A    between atoms: C_17  and  C_18
REMARK    6  A    between atoms: C_21  and  C_23
REMARK                            x       y       z     vdW  Elec       q    Type
REMARK                         _______ _______ _______ _____ _____    ______ ____
ROOT
ATOM     11  C   UNL     1      -3.760   1.380  24.884  0.00  0.00    +0.026 C 
ATOM     12  C   UNL     1      -3.235   0.748  24.820  0.00  0.00    +0.094 C 
ATOM     13  N   UNL     1      -3.519  -0.027  24.809  0.00  0.00    -0.276 N 
ATOM     14  C   UNL     1      -4.330  -0.168  24.863  0.00  0.00    +0.094 C 
ATOM     15  C   UNL     1      -4.856   0.463  24.927  0.00  0.00    +0.022 C 
ATOM     16  C   UNL     1      -4.572   1.237  24.937  0.00  0.00    +0.015 C 
ATOM     21  C   UNL     1      -2.993  -0.659  24.745  0.00  0.00    +0.251 C 
ATOM     22  O   UNL     1      -2.182  -0.516  24.692  0.00  0.00    -0.270 OA
ENDROOT
BRANCH  21  23
ATOM     23  C   UNL     1      -3.278  -1.433  24.735  0.00  0.00    +0.073 A 
ATOM     24  C   UNL     1      -3.564  -1.757  24.032  0.00  0.00    +0.008 A 
ATOM     25  C   UNL     1      -3.849  -2.532  24.022  0.00  0.00    +0.021 A 
ATOM     26  C   UNL     1      -3.847  -2.981  24.713  0.00  0.00    +0.099 A 
ATOM     27  N   UNL     1      -3.560  -2.657  25.416  0.00  0.00    -0.242 NA
ATOM     28  C   UNL     1      -3.276  -1.883  25.426  0.00  0.00    +0.103 A 
ENDBRANCH  21  23
BRANCH  11  10
ATOM     10  C   UNL     1      -3.476   2.154  24.894  0.00  0.00    +0.047 C 
BRANCH  10   9
ATOM      3  C   UNL     1      -1.225   4.095  25.009  0.00  0.00    +0.138 A 
ATOM      4  C   UNL     1      -1.201   3.760  24.255  0.00  0.00    +0.033 A 
ATOM      5  C   UNL     1      -1.757   3.191  24.037  0.00  0.00    -0.016 A 
ATOM      6  C   UNL     1      -2.339   2.957  24.575  0.00  0.00    +0.009 A 
ATOM      7  C   UNL     1      -2.363   3.292  25.328  0.00  0.00    +0.004 A 
ATOM      8  C   UNL     1      -1.806   3.861  25.546  0.00  0.00    +0.037 A 
ATOM      9  C   UNL     1      -2.895   2.388  24.358  0.00  0.00    +0.053 C 
ATOM     29  N   UNL     1      -2.871   2.054  23.605  0.00  0.00    -0.274 NA
ATOM     30  C   UNL     1      -2.289   2.288  23.067  0.00  0.00    +0.130 C 
ATOM     31  C   UNL     1      -1.733   2.857  23.284  0.00  0.00    +0.053 C 
BRANCH   3   2
ATOM      1  C   UNL     1      -0.750   5.441  24.964  0.00  0.00    +0.252 C 
ATOM      2  O   UNL     1      -0.668   4.664  25.226  0.00  0.00    -0.471 OA
ENDBRANCH   3   2
ENDBRANCH  10   9
ENDBRANCH  11  10
BRANCH  16  17
ATOM     17  C   UNL     1      -5.098   1.869  25.002  0.00  0.00    +0.114 C 
BRANCH  17  18
ATOM     18  C   UNL     1      -5.870   1.738  25.260  0.00  0.00    +0.365 C 
ATOM     19  O   UNL     1      -6.473   1.607  24.712  0.00  0.00    -0.246 OA
ATOM     20  O   UNL     1      -6.040   1.738  26.068  0.00  0.00    -0.246 OA
ENDBRANCH  17  18
ENDBRANCH  16  17
TORSDOF 6
ENDMDL
MODEL 2
REMARK VINA RESULT:     -10.9      1.136      4.908
REMARK  Name = 
REMARK  6 active torsions:
REMARK  status: ('A' for Active; 'I' for Inactive)
REMARK    1  A    between atoms: O_2  and  C_3
REMARK    2  A    between atoms: C_9  and  C_10
REMARK    3  A    between atoms: C_10  and  C_11
REMARK    4  A    between atoms: C_16  and  C_17
REMARK    5  A    between atoms: C_17  and  C_18
REMARK    6  A    between atoms: C_21  and  C_23
REMARK                            x       y       z     vdW  Elec       q    Type
REMARK                         _______ _______ _______ _____ _____    ______ ____
ROOT
ATOM     11  C   UNL     1      -3.828   1.021  24.843  0.00  0.00    +0.026 C 
ATOM     12  C   UNL     1      -3.019   1.137  24.739  0.00  0.00    +0.094 C 
ATOM     13  N   UNL     1      -2.693   1.889  24.836  0.00  0.00    -0.276 N 
ATOM     14  C   UNL     1      -3.179   2.525  25.036  0.00  0.00    +0.094 C 
ATOM     15  C   UNL     1      -3.988   2.410  25.139  0.00  0.00    +0.022 C 
ATOM     16  C   UNL     1      -4.314   1.658  25.043  0.00  0.00    +0.015 C 
ATOM     21  C   UNL     1      -1.883   2.005  24.732  0.00  0.00    +0.251 C 
ATOM     22  O   UNL     1      -1.398   1.368  24.531  0.00  0.00    -0.270 OA
ENDROOT
BRANCH  21  23
ATOM     23  C   UNL     1      -1.558   2.756  24.828  0.00  0.00    +0.073 A 
ATOM     24  C   UNL     1      -1.325   3.012  25.577  0.00  0.00    +0.008 A 
ATOM     25  C   UNL     1      -1.000   3.764  25.674  0.00  0.00    +0.021 A 
ATOM     26  C   UNL     1      -0.908   4.260  25.022  0.00  0.00    +0.099 A 
ATOM     27  N   UNL     1      -1.141   4.005  24.273  0.00  0.00    -0.242 NA
ATOM     28  C   UNL     1      -1.465   3.253  24.176  0.00  0.00    +0.103 A 
ENDBRANCH  21  23
BRANCH  11  10
ATOM     10  C   UNL     1      -4.154   0.270  24.746  0.00  0.00    +0.047 C 
BRANCH  10   9
ATOM      3  C   UNL     1      -3.835  -2.619  24.107  0.00  0.00    +0.138 A 
ATOM      4  C   UNL     1      -3.516  -2.514  24.861  0.00  0.00    +0.033 A 
ATOM      5  C   UNL     1      -3.515  -1.766  25.210  0.00  0.00    -0.016 A 
ATOM      6  C   UNL     1      -3.835  -1.121  24.804  0.00  0.00    +0.009 A 
ATOM      7  C   UNL     1      -4.154  -1.226  24.050  0.00  0.00    +0.004 A 
ATOM      8  C   UNL     1      -4.155  -1.974  23.701  0.00  0.00    +0.037 A 
ATOM      9  C   UNL     1      -3.835  -0.374  25.152  0.00  0.00    +0.053 C 
ATOM     29  N   UNL     1      -3.515  -0.269  25.904  0.00  0.00    -0.274 NA
ATOM     30  C   UNL     1      -3.196  -0.914  26.310  0.00  0.00    +0.130 C 
ATOM     31  C   UNL     1      -3.196  -1.661  25.962  0.00  0.00    +0.053 C 
BRANCH   3   2
ATOM      1  C   UNL     1      -4.494  -3.623  23.335  0.00  0.00    +0.252 C 
ATOM      2  O   UNL     1      -3.835  -3.366  23.759  0.00  0.00    -0.471 OA
ENDBRANCH   3   2
ENDBRANCH  10   9
ENDBRANCH  11  10
BRANCH  16  17
ATOM     17  C   UNL     1      -5.124   1.543  25.147  0.00  0.00    +0.114 C 
BRANCH  17  18
ATOM     18  C   UNL     1      -5.609   2.181  25.340  0.00  0.00    +0.365 C 
ATOM     19  O   UNL     1      -5.755   2.364  26.132  0.00  0.00    -0.246 OA
ATOM     20  O   UNL     1      -5.950   2.637  24.742  0.00  0.00    -0.246 OA
ENDBRANCH  17  18
ENDBRANCH  16  17
TORSDOF 6
ENDMDL
MODEL 3
REMARK VINA RESULT:     -10.4      1.768      2.922
REMARK  Name = 
REMARK  6 active torsions:
REMARK  status: ('A' for Active; 'I' for Inactive)
REMARK    1  A    between atoms: O_2  and  C_3
REMARK    2  A    between atoms: C_9  and  C_10
REMARK    3  A    between atoms: C_10  and  C_11
REMARK    4  A    between atoms: C_16  and  C_17
REMARK    5  A    between atoms: C_17  and  C_18
REMARK    6  A    between atoms: C_21  and  C_23
REMARK                            x       y       z     vdW  Elec       q    Type
REMARK                         _______ _______ _______ _____ _____    ______ ____
ROOT
ATOM     11  C   UNL     1      -2.365   1.000  24.587  0.00  0.00    +0.026 C 
ATOM     12  C   UNL     1      -3.048   0.554  24.696  0.00  0.00    +0.094 C 
ATOM     13  N   UNL     1      -3.016  -0.270  24.646  0.00  0.00    -0.276 N 
ATOM     14  C   UNL     1      -2.298  -0.645  24.488  0.00  0.00    +0.094 C 
ATOM     15  C   UNL     1      -1.614  -0.198  24.379  0.00  0.00    +0.022 C 
ATOM     16  C   UNL     1      -1.647   0.625  24.428  0.00  0.00    +0.015 C 
ATOM     21  C   UNL     1      -3.700  -0.718  24.755  0.00  0.00    +0.251 C 
ATOM     22  O   UNL     1      -4.417  -0.341  24.913  0.00  0.00    -0.270 OA
ENDROOT
BRANCH  21  23
ATOM     23  C   UNL     1      -3.667  -1.540  24.706  0.00  0.00    +0.073 A 
ATOM     24  C   UNL     1      -3.876  -1.919  24.004  0.00  0.00    +0.008 A 
ATOM     25  C   UNL     1      -3.843  -2.743  23.954  0.00  0.00    +0.021 A 
ATOM     26  C   UNL     1      -3.601  -3.185  24.606  0.00  0.00    +0.099 A 
ATOM     27  N   UNL     1      -3.392  -2.806  25.308  0.00  0.00    -0.242 NA
ATOM     28  C   UNL     1      -3.425  -1.984  25.358  0.00  0.00    +0.103 A 
ENDBRANCH  21  23
BRANCH  11  10
ATOM     10  C   UNL     1      -2.397   1.823  24.636  0.00  0.00    +0.047 C 
BRANCH  10   9
ATOM      3  C   UNL     1      -4.480   3.880  25.168  0.00  0.00    +0.138 A 
ATOM      4  C   UNL     1      -4.482   3.757  24.352  0.00  0.00    +0.033 A 
ATOM      5  C   UNL     1      -3.962   3.212  24.014  0.00  0.00    -0.016 A 
ATOM      6  C   UNL     1      -3.439   2.790  24.494  0.00  0.00    +0.009 A 
ATOM      7  C   UNL     1      -3.437   2.912  25.310  0.00  0.00    +0.004 A 
ATOM      8  C   UNL     1      -3.958   3.457  25.648  0.00  0.00    +0.037 A 
ATOM      9  C   UNL     1      -2.919   2.246  24.157  0.00  0.00    +0.053 C 
ATOM     29  N   UNL     1      -2.921   2.123  23.342  0.00  0.00    -0.274 NA
ATOM     30  C   UNL     1      -3.444   2.546  22.862  0.00  0.00    +0.130 C 
ATOM     31  C   UNL     1      -3.964   3.090  23.199  0.00  0.00    +0.053 C 
BRANCH   3   2
ATOM      1  C   UNL     1      -5.763   4.191  25.712  0.00  0.00    +0.252 C 
ATOM      2  O   UNL     1      -5.000   4.424  25.505  0.00  0.00    -0.471 OA
ENDBRANCH   3   2
ENDBRANCH  10   9
ENDBRANCH  11  10
BRANCH  16  17
ATOM     17  C   UNL     1      -0.962   1.072  24.319  0.00  0.00    +0.114 C 
BRANCH  17  18
ATOM     18  C   UNL     1      -0.230   0.698  24.264  0.00  0.00    +0.365 C 
ATOM     19  O   UNL     1       0.190   0.507  24.948  0.00  0.00    -0.246 OA
ATOM     20  O   UNL     1       0.085   0.514  23.523  0.00  0.00    -0.246 OA
ENDBRANCH  17  18
ENDBRANCH  16  17
TORSDOF 6
ENDMDL
MODEL 4
REMARK VINA RESULT:     -10.2      1.398      2.653
REMARK  Name = 
REMARK  6 active torsions:
REMARK  status: ('A' for Active; 'I' for Inactive)
REMARK    1  A    between atoms: O_2  and  C_3
REMARK    2  A    between atoms: C_9  and  C_10
REMARK    3  A    between atoms: C_10  and  C_11
REMARK    4  A    between atoms: C_16  and  C_17
REMARK    5  A    between atoms: C_17  and  C_18
REMARK    6  A    between atoms: C_21  and  C_23
REMARK                            x       y       z     vdW  Elec       q    Type
REMARK                         _______ _______ _______ _____ _____    ______ ____
ROOT
ATOM     11  C   UNL     1      -1.919   0.719  24.813  0.00  0.00    +0.026 C 
ATOM     12  C   UNL     1      -2.639   0.366  25.003  0.00  0.00    +0.094 C 
ATOM     13  N   UNL     1      -2.773  -0.427  24.815  0.00  0.00    -0.276 N 
ATOM     14  C   UNL     1      -2.185  -0.865  24.436  0.00  0.00    +0.094 C 
ATOM     15  C   UNL     1      -1.466  -0.511  24.246  0.00  0.00    +0.022 C 
ATOM     16  C   UNL     1      -1.332   0.281  24.434  0.00  0.00    +0.015 C 
ATOM     21  C   UNL     1      -3.493  -0.780  25.006  0.00  0.00    +0.251 C 
ATOM     22  O   UNL     1      -4.080  -0.341  25.385  0.00  0.00    -0.270 OA
ENDROOT
BRANCH  21  23
ATOM     23  C   UNL     1      -3.626  -1.572  24.818  0.00  0.00    +0.073 A 
ATOM     24  C   UNL     1      -4.004  -1.770  24.112  0.00  0.00    +0.008 A 
ATOM     25  C   UNL     1      -4.137  -2.563  23.923  0.00  0.00    +0.021 A 
ATOM     26  C   UNL     1      -3.893  -3.156  24.442  0.00  0.00    +0.099 A 
ATOM     27  N   UNL     1      -3.515  -2.958  25.148  0.00  0.00    -0.242 NA
ATOM     28  C   UNL     1      -3.382  -2.166  25.336  0.00  0.00    +0.103 A 
ENDBRANCH  21  23
BRANCH  11  10
ATOM     10  C   UNL     1      -1.786   1.511  25.000  0.00  0.00    +0.047 C 
BRANCH  10   9
ATOM      3  C   UNL     1      -1.892   4.471  25.282  0.00  0.00    +0.138 A 
ATOM      4  C   UNL     1      -2.533   4.263  24.806  0.00  0.00    +0.033 A 
ATOM      5  C   UNL     1      -2.667   3.471  24.616  0.00  0.00    -0.016 A 
ATOM      6  C   UNL     1      -2.159   2.886  24.903  0.00  0.00    +0.009 A 
ATOM      7  C   UNL     1      -1.519   3.095  25.379  0.00  0.00    +0.004 A 
ATOM      8  C   UNL     1      -1.385   3.887  25.569  0.00  0.00    +0.037 A 
ATOM      9  C   UNL     1      -2.293   2.095  24.713  0.00  0.00    +0.053 C 
ATOM     29  N   UNL     1      -2.933   1.888  24.237  0.00  0.00    -0.274 NA
ATOM     30  C   UNL     1      -3.441   2.472  23.950  0.00  0.00    +0.130 C 
ATOM     31  C   UNL     1      -3.307   3.263  24.139  0.00  0.00    +0.053 C 
BRANCH   3   2
ATOM      1  C   UNL     1      -1.223   5.708  25.031  0.00  0.00    +0.252 C 
ATOM      2  O   UNL     1      -1.759   5.262  25.472  0.00  0.00    -0.471 OA
ENDBRANCH   3   2
ENDBRANCH  10   9
ENDBRANCH  11  10
BRANCH  16  17
ATOM     17  C   UNL     1      -0.611   0.634  24.243  0.00  0.00    +0.114 C 
BRANCH  17  18
ATOM     18  C   UNL     1      -0.035   0.204  23.839  0.00  0.00    +0.365 C 
ATOM     19  O   UNL     1       0.416  -0.360  24.238  0.00  0.00    -0.246 OA
ATOM     20  O   UNL     1       0.091   0.338  23.034  0.00  0.00    -0.246 OA
ENDBRANCH  17  18
ENDBRANCH  16  17
TORSDOF 6
ENDMDL
MODEL 5
REMARK VINA RESULT:      -9.7      2.252      3.836
REMARK  Name = 
REMARK  6 active torsions:
REMARK  status: ('A' for Active; 'I' for Inactive)
REMARK    1  A    between atoms: O_2  and  C_3
REMARK    2  A    between atoms: C_9  and  C_10
REMARK    3  A    between atoms: C_10  and  C_11
REMARK    4  A    between atoms: C_16  and  C_17
REMARK    5  A    between atoms: C_17  and  C_18
REMARK    6  A    between atoms: C_21  and  C_23
REMARK                            x       y       z     vdW  Elec       q    Type
REMARK                         _______ _______ _______ _____ _____    ______ ____
ROOT
ATOM     11  C   UNL     1      -2.670   0.145  24.746  0.00  0.00    +0.026 C 
ATOM     12  C   UNL     1      -2.985   0.898  24.634  0.00  0.00    +0.094 C 
ATOM     13  N   UNL     1      -3.762   1.059  24.862  0.00  0.00    -0.276 N 
ATOM     14  C   UNL     1      -4.222   0.465  25.202  0.00  0.00    +0.094 C 
ATOM     15  C   UNL     1      -3.908  -0.288  25.314  0.00  0.00    +0.022 C 
ATOM     16  C   UNL     1      -3.132  -0.449  25.087  0.00  0.00    +0.015 C 
ATOM     21  C   UNL     1      -4.077   1.813  24.749  0.00  0.00    +0.251 C 
ATOM     22  O   UNL     1      -3.615   2.406  24.409  0.00  0.00    -0.270 OA
ENDROOT
BRANCH  21  23
ATOM     23  C   UNL     1      -4.853   1.974  24.977  0.00  0.00    +0.073 A 
ATOM     24  C   UNL     1      -5.001   2.376  25.681  0.00  0.00    +0.008 A 
ATOM     25  C   UNL     1      -5.778   2.537  25.910  0.00  0.00    +0.021 A 
ATOM     26  C   UNL     1      -6.406   2.295  25.433  0.00  0.00    +0.099 A 
ATOM     27  N   UNL     1      -6.258   1.892  24.728  0.00  0.00    -0.242 NA
ATOM     28  C   UNL     1      -5.482   1.732  24.500  0.00  0.00    +0.103 A 
ENDBRANCH  21  23
BRANCH  11  10
ATOM     10  C   UNL     1      -1.894  -0.017  24.519  0.00  0.00    +0.047 C 
BRANCH  10   9
ATOM      3  C   UNL     1       0.794   0.605  23.404  0.00  0.00    +0.138 A 
ATOM      4  C   UNL     1       0.712   1.072  24.079  0.00  0.00    +0.033 A 
ATOM      5  C   UNL     1       0.020   1.033  24.527  0.00  0.00    -0.016 A 
ATOM      6  C   UNL     1      -0.591   0.527  24.299  0.00  0.00    +0.009 A 
ATOM      7  C   UNL     1      -0.510   0.061  23.624  0.00  0.00    +0.004 A 
ATOM      8  C   UNL     1       0.182   0.099  23.176  0.00  0.00    +0.037 A 
ATOM      9  C   UNL     1      -1.283   0.489  24.747  0.00  0.00    +0.053 C 
ATOM     29  N   UNL     1      -1.364   0.955  25.421  0.00  0.00    -0.274 NA
ATOM     30  C   UNL     1      -0.752   1.461  25.649  0.00  0.00    +0.130 C 
ATOM     31  C   UNL     1      -0.061   1.500  25.202  0.00  0.00    +0.053 C 
BRANCH   3   2
ATOM      1  C   UNL     1       1.806  -0.044  22.634  0.00  0.00    +0.252 C 
ATOM      2  O   UNL     1       1.485   0.644  22.956  0.00  0.00    -0.471 OA
ENDBRANCH   3   2
ENDBRANCH  10   9
ENDBRANCH  11  10
BRANCH  16  17
ATOM     17  C   UNL     1      -2.816  -1.203  25.200  0.00  0.00    +0.114 C 
BRANCH  17  18
ATOM     18  C   UNL     1      -3.319  -1.848  25.306  0.00  0.00    +0.365 C 
ATOM     19  O   UNL     1      -3.536  -2.082  26.067  0.00  0.00    -0.246 OA
ATOM     20  O   UNL     1      -3.605  -2.261  24.651  0.00  0.00    -0.246 OA
ENDBRANCH  17  18
ENDBRANCH  16  17
TORSDOF 6
ENDMDL
MODEL 6
REMARK VINA RESULT:      -9.5      2.119      4.075
REMARK  Name = 
REMARK  6 active torsions:
REMARK  status: ('A' for Active; 'I' for Inactive)
REMARK    1  A    between atoms: O_2  and  C_3
REMARK    2  A    between atoms: C_9  and  C_10
REMARK    3  A    between atoms: C_10  and  C_11
REMARK    4  A    between atoms: C_16  and  C_17
REMARK    5  A    between atoms: C_17  and  C_18
REMARK    6  A    between atoms: C_21  and  C_23
REMARK                            x       y       z     vdW  Elec       q    Type
REMARK                         _______ _______ _______ _____ _____    ______ ____
ROOT
ATOM     11  C   UNL     1      -2.009   2.056  24.900  0.00  0.00    +0.026 C 
ATOM     12  C   UNL     1      -2.661   1.589  24.710  0.00  0.00    +0.094 C 
ATOM     13  N   UNL     1      -3.423   1.850  24.893  0.00  0.00    -0.276 N 
ATOM     14  C   UNL     1      -3.530   2.578  25.265  0.00  0.00    +0.094 C 
ATOM     15  C   UNL     1      -2.879   3.045  25.455  0.00  0.00    +0.022 C 
ATOM     16  C   UNL     1      -2.117   2.785  25.273  0.00  0.00    +0.015 C 
ATOM     21  C   UNL     1      -4.075   1.382  24.702  0.00  0.00    +0.251 C 
ATOM     22  O   UNL     1      -3.966   0.654  24.330  0.00  0.00    -0.270 OA
ENDROOT
BRANCH  21  23
ATOM     23  C   UNL     1      -4.836   1.643  24.885  0.00  0.00    +0.073 A 
ATOM     24  C   UNL     1      -5.219   1.359  25.558  0.00  0.00    +0.008 A 
ATOM     25  C   UNL     1      -5.981   1.620  25.740  0.00  0.00    +0.021 A 
ATOM     26  C   UNL     1      -6.358   2.165  25.249  0.00  0.00    +0.099 A 
ATOM     27  N   UNL     1      -5.975   2.449  24.576  0.00  0.00    -0.242 NA
ATOM     28  C   UNL     1      -5.214   2.188  24.394  0.00  0.00    +0.103 A 
ENDBRANCH  21  23
BRANCH  11  10
ATOM     10  C   UNL     1      -1.248   1.795  24.718  0.00  0.00    +0.047 C 
BRANCH  10   9
ATOM      3  C   UNL     1       0.527  -0.142  23.322  0.00  0.00    +0.138 A 
ATOM      4  C   UNL     1       0.219  -0.542  23.975  0.00  0.00    +0.033 A 
ATOM      5  C   UNL     1      -0.301  -0.158  24.487  0.00  0.00    -0.016 A 
ATOM      6  C   UNL     1      -0.515   0.627  24.347  0.00  0.00    +0.009 A 
ATOM      7  C   UNL     1      -0.207   1.027  23.694  0.00  0.00    +0.004 A 
ATOM      8  C   UNL     1       0.314   0.644  23.182  0.00  0.00    +0.037 A 
ATOM      9  C   UNL     1      -1.035   1.011  24.859  0.00  0.00    +0.053 C 
ATOM     29  N   UNL     1      -1.342   0.611  25.511  0.00  0.00    -0.274 NA
ATOM     30  C   UNL     1      -1.129  -0.175  25.651  0.00  0.00    +0.130 C 
ATOM     31  C   UNL     1      -0.609  -0.558  25.139  0.00  0.00    +0.053 C 
BRANCH   3   2
ATOM      1  C   UNL     1       1.693  -0.120  22.498  0.00  0.00    +0.252 C 
ATOM      2  O   UNL     1       1.047  -0.526  22.810  0.00  0.00    -0.471 OA
ENDBRANCH   3   2
ENDBRANCH  10   9
ENDBRANCH  11  10
BRANCH  16  17
ATOM     17  C   UNL     1      -1.465   3.252  25.463  0.00  0.00    +0.114 C 
BRANCH  17  18
ATOM     18  C   UNL     1      -1.533   4.073  25.466  0.00  0.00    +0.365 C 
ATOM     19  O   UNL     1      -1.934   4.453  26.079  0.00  0.00    -0.246 OA
ATOM     20  O   UNL     1      -1.199   4.518  24.855  0.00  0.00    -0.246 OA
ENDBRANCH  17  18
ENDBRANCH  16  17
TORSDOF 6
ENDMDL
MODEL 7
REMARK VINA RESULT:      -9.3      1.818      5.108
REMARK  Name = 
REMARK  6 active torsions:
REMARK  status: ('A' for Active; 'I' for Inactive)
REMARK    1  A    between atoms: O_2  and  C_3
REMARK    2  A    between atoms: C_9  and  C_10
REMARK    3  A    between atoms: C_10  and  C_11
REMARK    4  A    between atoms: C_16  and  C_17
REMARK    5  A    between atoms: C_17  and  C_18
REMARK    6  A    between atoms: C_21  and  C_23
REMARK                            x       y       z     vdW  Elec       q    Type
REMARK                         _______ _______ _______ _____ _____    ______ ____
ROOT
ATOM     11  C   UNL     1      -3.552   0.982  24.002  0.00  0.00    +0.026 C 
ATOM     12  C   UNL     1      -4.109   1.141  24.588  0.00  0.00    +0.094 C 
ATOM     13  N   UNL     1      -4.331   1.921  24.746  0.00  0.00    -0.276 N 
ATOM     14  C   UNL     1      -3.994   2.540  24.318  0.00  0.00    +0.094 C 
ATOM     15  C   UNL     1      -3.437   2.381  23.732  0.00  0.00    +0.022 C 
ATOM     16  C   UNL     1      -3.215   1.603  23.574  0.00  0.00    +0.015 C 
ATOM     21  C   UNL     1      -4.889   2.080  25.333  0.00  0.00    +0.251 C 
ATOM     22  O   UNL     1      -5.225   1.459  25.761  0.00  0.00    -0.270 OA
ENDROOT
BRANCH  21  23
ATOM     23  C   UNL     1      -5.110   2.858  25.491  0.00  0.00    +0.073 A 
ATOM     24  C   UNL     1      -5.832   3.146  25.213  0.00  0.00    +0.008 A 
ATOM     25  C   UNL     1      -6.054   3.925  25.371  0.00  0.00    +0.021 A 
ATOM     26  C   UNL     1      -5.554   4.416  25.807  0.00  0.00    +0.099 A 
ATOM     27  N   UNL     1      -4.832   4.128  26.084  0.00  0.00    -0.242 NA
ATOM     28  C   UNL     1      -4.611   3.349  25.926  0.00  0.00    +0.103 A 
ENDBRANCH  21  23
BRANCH  11  10
ATOM     10  C   UNL     1      -3.330   0.204  23.844  0.00  0.00    +0.047 C 
BRANCH  10   9
ATOM      3  C   UNL     1      -3.677  -2.669  24.536  0.00  0.00    +0.138 A 
ATOM      4  C   UNL     1      -3.182  -2.351  25.115  0.00  0.00    +0.033 A 
ATOM      5  C   UNL     1      -2.971  -1.554  25.087  0.00  0.00    -0.016 A 
ATOM      6  C   UNL     1      -3.256  -1.073  24.479  0.00  0.00    +0.009 A 
ATOM      7  C   UNL     1      -3.751  -1.390  23.900  0.00  0.00    +0.004 A 
ATOM      8  C   UNL     1      -3.961  -2.188  23.928  0.00  0.00    +0.037 A 
ATOM      9  C   UNL     1      -3.045  -0.276  24.451  0.00  0.00    +0.053 C 
ATOM     29  N   UNL     1      -2.551   0.040  25.029  0.00  0.00    -0.274 NA
ATOM     30  C   UNL     1      -2.266  -0.441  25.638  0.00  0.00    +0.130 C 
ATOM     31  C   UNL     1      -2.476  -1.237  25.666  0.00  0.00    +0.053 C 
BRANCH   3   2
ATOM      1  C   UNL     1      -3.968  -3.896  23.865  0.00  0.00    +0.252 C 
ATOM      2  O   UNL     1      -3.887  -3.465  24.564  0.00  0.00    -0.471 OA
ENDBRANCH   3   2
ENDBRANCH  10   9
ENDBRANCH  11  10
BRANCH  16  17
ATOM     17  C   UNL     1      -2.657   1.444  22.987  0.00  0.00    +0.114 C 
BRANCH  17  18
ATOM     18  C   UNL     1      -2.333   2.062  22.548  0.00  0.00    +0.365 C 
ATOM     19  O   UNL     1      -2.662   2.267  21.819  0.00  0.00    -0.246 OA
ATOM     20  O   UNL     1      -1.680   2.476  22.837  0.00  0.00    -0.246 OA
ENDBRANCH  17  18
ENDBRANCH  16  17
TORSDOF 6
ENDMDL
MODEL 8
REMARK VINA RESULT:      -9.3      1.679      5.224
REMARK  Name = 
REMARK  6 active torsions:
REMARK  status: ('A' for Active; 'I' for Inactive)
REMARK    1  A    between atoms: O_2  and  C_3
REMARK    2  A    between atoms: C_9  and  C_10
REMARK    3  A    between atoms: C_10  and  C_11
REMARK    4  A    between atoms: C_16  and  C_17
REMARK    5  A    between atoms: C_17  and  C_18
REMARK    6  A    between atoms: C_21  and  C_23
REMARK                            x       y       z     vdW  Elec       q    Type
REMARK                         _______ _______ _______ _____ _____    ______ ____
ROOT
ATOM     11  C   UNL     1      -2.517   1.580  23.793  0.00  0.00    +0.026 C 
ATOM     12  C   UNL     1      -2.233   1.937  24.480  0.00  0.00    +0.094 C 
ATOM     13  N   UNL     1      -2.000   2.729  24.467  0.00  0.00    -0.276 N 
ATOM     14  C   UNL     1      -2.052   3.162  23.767  0.00  0.00    +0.094 C 
ATOM     15  C   UNL     1      -2.336   2.805  23.081  0.00  0.00    +0.022 C 
ATOM     16  C   UNL     1      -2.568   2.014  23.093  0.00  0.00    +0.015 C 
ATOM     21  C   UNL     1      -1.716   3.087  25.154  0.00  0.00    +0.251 C 
ATOM     22  O   UNL     1      -1.664   2.652  25.853  0.00  0.00    -0.270 OA
ENDROOT
BRANCH  21  23
ATOM     23  C   UNL     1      -1.484   3.878  25.141  0.00  0.00    +0.073 A 
ATOM     24  C   UNL     1      -2.023   4.469  25.342  0.00  0.00    +0.008 A 
ATOM     25  C   UNL     1      -1.790   5.261  25.329  0.00  0.00    +0.021 A 
ATOM     26  C   UNL     1      -1.019   5.461  25.114  0.00  0.00    +0.099 A 
ATOM     27  N   UNL     1      -0.481   4.870  24.913  0.00  0.00    -0.242 NA
ATOM     28  C   UNL     1      -0.713   4.079  24.926  0.00  0.00    +0.103 A 
ENDBRANCH  21  23
BRANCH  11  10
ATOM     10  C   UNL     1      -2.749   0.788  23.806  0.00  0.00    +0.047 C 
BRANCH  10   9
ATOM      3  C   UNL     1      -3.425  -1.804  25.099  0.00  0.00    +0.138 A 
ATOM      4  C   UNL     1      -4.002  -1.268  25.346  0.00  0.00    +0.033 A 
ATOM      5  C   UNL     1      -3.977  -0.485  25.084  0.00  0.00    -0.016 A 
ATOM      6  C   UNL     1      -3.375  -0.239  24.575  0.00  0.00    +0.009 A 
ATOM      7  C   UNL     1      -2.799  -0.776  24.329  0.00  0.00    +0.004 A 
ATOM      8  C   UNL     1      -2.823  -1.558  24.590  0.00  0.00    +0.037 A 
ATOM      9  C   UNL     1      -3.351   0.542  24.314  0.00  0.00    +0.053 C 
ATOM     29  N   UNL     1      -3.927   1.078  24.560  0.00  0.00    -0.274 NA
ATOM     30  C   UNL     1      -4.529   0.832  25.069  0.00  0.00    +0.130 C 
ATOM     31  C   UNL     1      -4.554   0.050  25.330  0.00  0.00    +0.053 C 
BRANCH   3   2
ATOM      1  C   UNL     1      -3.322  -3.203  24.829  0.00  0.00    +0.252 C 
ATOM      2  O   UNL     1      -3.450  -2.586  25.361  0.00  0.00    -0.471 OA
ENDBRANCH   3   2
ENDBRANCH  10   9
ENDBRANCH  11  10
BRANCH  16  17
ATOM     17  C   UNL     1      -2.853   1.656  22.406  0.00  0.00    +0.114 C 
BRANCH  17  18
ATOM     18  C   UNL     1      -2.728   2.013  21.674  0.00  0.00    +0.365 C 
ATOM     19  O   UNL     1      -3.214   2.633  21.428  0.00  0.00    -0.246 OA
ATOM     20  O   UNL     1      -2.117   1.751  21.184  0.00  0.00    -0.246 OA
ENDBRANCH  17  18
ENDBRANCH  16  17
TORSDOF 6
ENDMDL
MODEL 9
REMARK VINA RESULT:      -9.0      1.703      5.351
REMARK  Name = 
REMARK  6 active torsions:
REMARK  status: ('A' for Active; 'I' for Inactive)
REMARK    1  A    between atoms: O_2  and  C_3
REMARK    2  A    between atoms: C_9  and  C_10
REMARK    3  A    between atoms: C_10  and  C_11
REMARK    4  A    between atoms: C_16  and  C_17
REMARK    5  A    between atoms: C_17  and  C_18
REMARK    6  A    between atoms: C_21  and  C_23
REMARK                            x       y       z     vdW  Elec       q    Type
REMARK                         _______ _______ _______ _____ _____    ______ ____
ROOT
ATOM     11  C   UNL     1      -2.118   0.643  24.776  0.00  0.00    +0.026 C 
ATOM     12  C   UNL     1      -2.891   0.927  24.743  0.00  0.00    +0.094 C 
ATOM     13  N   UNL     1      -3.034   1.740  24.778  0.00  0.00    -0.276 N 
ATOM     14  C   UNL     1      -2.402   2.266  24.844  0.00  0.00    +0.094 C 
ATOM     15  C   UNL     1      -1.630   1.982  24.877  0.00  0.00    +0.022 C 
ATOM     16  C   UNL     1      -1.486   1.171  24.843  0.00  0.00    +0.015 C 
ATOM     21  C   UNL     1      -3.807   2.024  24.745  0.00  0.00    +0.251 C 
ATOM     22  O   UNL     1      -4.438   1.497  24.678  0.00  0.00    -0.270 OA
ENDROOT
BRANCH  21  23
ATOM     23  C   UNL     1      -3.950   2.836  24.780  0.00  0.00    +0.073 A 
ATOM     24  C   UNL     1      -4.142   3.190  25.499  0.00  0.00    +0.008 A 
ATOM     25  C   UNL     1      -4.285   4.003  25.534  0.00  0.00    +0.021 A 
ATOM     26  C   UNL     1      -4.235   4.459  24.849  0.00  0.00    +0.099 A 
ATOM     27  N   UNL     1      -4.042   4.105  24.129  0.00  0.00    -0.242 NA
ATOM     28  C   UNL     1      -3.900   3.294  24.095  0.00  0.00    +0.103 A 
ENDBRANCH  21  23
BRANCH  11  10
ATOM     10  C   UNL     1      -1.975  -0.168  24.741  0.00  0.00    +0.047 C 
BRANCH  10   9
ATOM      3  C   UNL     1      -3.520  -2.679  24.341  0.00  0.00    +0.138 A 
ATOM      4  C   UNL     1      -3.539  -2.525  25.151  0.00  0.00    +0.033 A 
ATOM      5  C   UNL     1      -3.158  -1.859  25.455  0.00  0.00    -0.016 A 
ATOM      6  C   UNL     1      -2.757  -1.346  24.946  0.00  0.00    +0.009 A 
ATOM      7  C   UNL     1      -2.737  -1.501  24.136  0.00  0.00    +0.004 A 
ATOM      8  C   UNL     1      -3.119  -2.167  23.833  0.00  0.00    +0.037 A 
ATOM      9  C   UNL     1      -2.375  -0.681  25.249  0.00  0.00    +0.053 C 
ATOM     29  N   UNL     1      -2.395  -0.527  26.059  0.00  0.00    -0.274 NA
ATOM     30  C   UNL     1      -2.796  -1.039  26.567  0.00  0.00    +0.130 C 
ATOM     31  C   UNL     1      -3.177  -1.705  26.264  0.00  0.00    +0.053 C 
BRANCH   3   2
ATOM      1  C   UNL     1      -4.499  -3.258  23.477  0.00  0.00    +0.252 C 
ATOM      2  O   UNL     1      -3.901  -3.345  24.038  0.00  0.00    -0.471 OA
ENDBRANCH   3   2
ENDBRANCH  10   9
ENDBRANCH  11  10
BRANCH  16  17
ATOM     17  C   UNL     1      -0.713   0.886  24.875  0.00  0.00    +0.114 C 
BRANCH  17  18
ATOM     18  C   UNL     1      -0.079   1.402  24.764  0.00  0.00    +0.365 C 
ATOM     19  O   UNL     1       0.224   1.828  25.402  0.00  0.00    -0.246 OA
ATOM     20  O   UNL     1       0.253   1.492  24.013  0.00  0.00    -0.246 OA
ENDBRANCH  17  18
ENDBRANCH  16  17
TORSDOF 6
ENDMDL
MODEL 10
REMARK VINA RESULT:      -8.7      2.101      3.233
REMARK  Name = 
REMARK  6 active torsions:
REMARK  status: ('A' for Active; 'I' for Inactive)
REMARK    1  A    between atoms: O_2  and  C_3
REMARK    2  A    between atoms: C_9  and  C_10
REMARK    3  A    between atoms: C_10  and  C_11
REMARK    4  A    between atoms: C_16  and  C_17
REMARK    5  A    between atoms: C_17  and  C_18
REMARK    6  A    between atoms: C_21  and  C_23
REMARK                            x       y       z     vdW  Elec       q    Type
REMARK                         _______ _______ _______ _____ _____    ______ ____
ROOT
ATOM     11  C   UNL     1      -3.213   0.502  24.453  0.00  0.00    +0.026 C 
ATOM     12  C   UNL     1      -2.446   0.804  24.460  0.00  0.00    +0.094 C 
ATOM     13  N   UNL     1      -1.806   0.309  24.297  0.00  0.00    -0.276 N 
ATOM     14  C   UNL     1      -1.934  -0.488  24.128  0.00  0.00    +0.094 C 
ATOM     15  C   UNL     1      -2.700  -0.790  24.122  0.00  0.00    +0.022 C 
ATOM     16  C   UNL     1      -3.340  -0.296  24.284  0.00  0.00    +0.015 C 
ATOM     21  C   UNL     1      -1.038   0.612  24.303  0.00  0.00    +0.251 C 
ATOM     22  O   UNL     1      -0.911   1.410  24.472  0.00  0.00    -0.270 OA
ENDROOT
BRANCH  21  23
ATOM     23  C   UNL     1      -0.399   0.117  24.141  0.00  0.00    +0.073 A 
ATOM     24  C   UNL     1       0.051   0.235  23.459  0.00  0.00    +0.008 A 
ATOM     25  C   UNL     1       0.691  -0.260  23.296  0.00  0.00    +0.021 A 
ATOM     26  C   UNL     1       0.881  -0.872  23.816  0.00  0.00    +0.099 A 
ATOM     27  N   UNL     1       0.431  -0.990  24.497  0.00  0.00    -0.242 NA
ATOM     28  C   UNL     1      -0.208  -0.495  24.660  0.00  0.00    +0.103 A 
ENDBRANCH  21  23
BRANCH  11  10
ATOM     10  C   UNL     1      -3.853   0.996  24.615  0.00  0.00    +0.047 C 
BRANCH  10   9
ATOM      3  C   UNL     1      -5.011   3.606  25.450  0.00  0.00    +0.138 A 
ATOM      4  C   UNL     1      -4.689   3.727  24.700  0.00  0.00    +0.033 A 
ATOM      5  C   UNL     1      -4.318   3.106  24.304  0.00  0.00    -0.016 A 
ATOM      6  C   UNL     1      -4.271   2.361  24.658  0.00  0.00    +0.009 A 
ATOM      7  C   UNL     1      -4.593   2.240  25.407  0.00  0.00    +0.004 A 
ATOM      8  C   UNL     1      -4.963   2.861  25.804  0.00  0.00    +0.037 A 
ATOM      9  C   UNL     1      -3.901   1.740  24.262  0.00  0.00    +0.053 C 
ATOM     29  N   UNL     1      -3.579   1.861  23.513  0.00  0.00    -0.274 NA
ATOM     30  C   UNL     1      -3.627   2.606  23.159  0.00  0.00    +0.130 C 
ATOM     31  C   UNL     1      -3.996   3.227  23.555  0.00  0.00    +0.053 C 
BRANCH   3   2
ATOM      1  C   UNL     1      -6.199   4.319  25.797  0.00  0.00    +0.252 C 
ATOM      2  O   UNL     1      -5.381   4.228  25.846  0.00  0.00    -0.471 OA
ENDBRANCH   3   2
ENDBRANCH  10   9
ENDBRANCH  11  10
BRANCH  16  17
ATOM     17  C   UNL     1      -4.108  -0.599  24.278  0.00  0.00    +0.114 C 
BRANCH  17  18
ATOM     18  C   UNL     1      -4.229  -1.413  24.236  0.00  0.00    +0.365 C 
ATOM     19  O   UNL     1      -4.384  -1.772  23.509  0.00  0.00    -0.246 OA
ATOM     20  O   UNL     1      -4.195  -1.871  24.923  0.00  0.00    -0.246 OA
ENDBRANCH  17  18
ENDBRANCH  16  17
TORSDOF 6
ENDMDL
