REMARK  Name = 
REMARK  4 active torsions:
REMARK  status: ('A' for Active; 'I' for Inactive)
REMARK    1  A    between atoms: O_2  and  C_3
REMARK    2  A    between atoms: C_6  and  C_9
REMARK    3  A    between atoms: C_20  and  N_21
REMARK    4  A    between atoms: N_24  and  C_25
REMARK                            x       y       z     vdW  Elec       q    Type
REMARK                         _______ _______ _______ _____ _____    ______ ____
ROOT
ATOM      9  C   UNL     1       0.200  -2.652   0.000  0.00  0.00    +0.249 C 
ATOM     10  O   UNL     1       0.718  -3.355   0.000  0.00  0.00    -0.270 OA
ATOM     11  N   UNL     1       0.813  -2.091   0.000  0.00  0.00    -0.276 N 
ATOM     12  C   UNL     1       1.629  -1.912   0.000  0.00  0.00    +0.096 C 
ATOM     13  C   UNL     1       1.582  -0.925   0.000  0.00  0.00    +0.043 C 
ATOM     14  C   UNL     1       1.713  -0.121   0.000  0.00  0.00    +0.011 C 
ATOM     15  C   UNL     1       1.163  -0.557   0.000  0.00  0.00    +0.058 C 
ATOM     16  C   UNL     1       1.225  -1.510   0.000  0.00  0.00    +0.099 C 
ATOM     17  C   UNL     1       0.244  -0.558   0.000  0.00  0.00    +0.041 A 
ATOM     18  C   UNL     1      -0.397  -0.039   0.000  0.00  0.00    +0.014 A 
ATOM     19  C   UNL     1      -1.167  -0.335   0.000  0.00  0.00    +0.023 A 
ATOM     20  C   UNL     1      -1.296  -1.150   0.000  0.00  0.00    +0.131 A 
ATOM     32  C   UNL     1      -0.655  -1.669   0.000  0.00  0.00    +0.276 A 
ATOM     33  O   UNL     1      -0.535  -2.699   0.000  0.00  0.00    -0.266 OA
ATOM     34  N   UNL     1       0.115  -1.373   0.000  0.00  0.00    -0.298 N 
ATOM     35  C   UNL     1       0.622  -0.936   0.000  0.00  0.00    +0.110 C 
ENDROOT
BRANCH   9   6
ATOM      3  C   UNL     1      -2.338  -1.196   0.000  0.00  0.00    +0.139 A 
ATOM      4  C   UNL     1      -1.485  -0.905   0.000  0.00  0.00    +0.037 A 
ATOM      5  C   UNL     1      -0.664  -1.356   0.000  0.00  0.00    +0.008 A 
ATOM      6  C   UNL     1      -0.614  -2.179   0.000  0.00  0.00    +0.054 A 
ATOM      7  C   UNL     1      -1.301  -2.635   0.000  0.00  0.00    +0.008 A 
ATOM      8  C   UNL     1      -2.040  -2.267   0.000  0.00  0.00    +0.037 A 
BRANCH   3   2
ATOM      1  C   UNL     1      -2.135   0.547   0.000  0.00  0.00    +0.252 C 
ATOM      2  O   UNL     1      -2.396  -0.340   0.000  0.00  0.00    -0.471 OA
ENDBRANCH   3   2
ENDBRANCH   9   6
BRANCH  20  21
ATOM     21  N   UNL     1      -2.147  -1.670   0.000  0.00  0.00    -0.156 NA
ATOM     22  C   UNL     1      -3.007  -1.312   0.000  0.00  0.00    +0.348 C 
ATOM     23  O   UNL     1      -3.064  -0.322   0.000  0.00  0.00    -0.248 OA
ATOM     24  N   UNL     1      -3.862  -1.501   0.000  0.00  0.00    -0.161 NA
BRANCH  24  25
ATOM     25  C   UNL     1      -4.119  -0.703   0.000  0.00  0.00    +0.075 A 
ATOM     26  C   UNL     1      -4.940  -0.629   0.000  0.00  0.00    +0.018 A 
ATOM     27  C   UNL     1      -5.287   0.120   0.000  0.00  0.00    +0.013 A 
ATOM     28  C   UNL     1      -4.812   0.794   0.000  0.00  0.00    +0.058 A 
ATOM     29 CL   UNL     1      -5.159   1.543   0.000  0.00  0.00    -0.082 Cl
ATOM     30  C   UNL     1      -3.991   0.720   0.000  0.00  0.00    +0.013 A 
ATOM     31  C   UNL     1      -3.644  -0.028   0.000  0.00  0.00    +0.018 A 
ENDBRANCH  24  25
ENDBRANCH  20  21
TORSDOF 4
