REMARK  Name = 
REMARK  3 active torsions:
REMARK  status: ('A' for Active; 'I' for Inactive)
REMARK    1  A    between atoms: O_2  and  C_3
REMARK    2  A    between atoms: C_6  and  C_9
REMARK    3  A    between atoms: C_20  and  C_21
REMARK                            x       y       z     vdW  Elec       q    Type
REMARK                         _______ _______ _______ _____ _____    ______ ____
ROOT
ATOM      9  C   UNL     1       0.211  -2.662   0.000  0.00  0.00    +0.249 C 
ATOM     10  O   UNL     1       0.667  -3.424   0.000  0.00  0.00    -0.270 OA
ATOM     11  N   UNL     1       0.813  -2.091   0.000  0.00  0.00    -0.276 N 
ATOM     12  C   UNL     1       1.629  -1.912   0.000  0.00  0.00    +0.096 C 
ATOM     13  C   UNL     1       1.582  -0.925   0.000  0.00  0.00    +0.043 C 
ATOM     14  C   UNL     1       1.713  -0.121   0.000  0.00  0.00    +0.011 C 
ATOM     15  C   UNL     1       1.163  -0.557   0.000  0.00  0.00    +0.058 C 
ATOM     16  C   UNL     1       1.225  -1.510   0.000  0.00  0.00    +0.099 C 
ATOM     17  C   UNL     1       0.244  -0.558   0.000  0.00  0.00    +0.041 A 
ATOM     18  C   UNL     1      -0.397  -0.039   0.000  0.00  0.00    +0.013 A 
ATOM     19  C   UNL     1      -1.167  -0.335   0.000  0.00  0.00    +0.002 A 
ATOM     20  C   UNL     1      -1.296  -1.150   0.000  0.00  0.00    +0.034 A 
ATOM     27  C   UNL     1      -0.655  -1.669   0.000  0.00  0.00    +0.257 A 
ATOM     28  O   UNL     1      -0.488  -2.681   0.000  0.00  0.00    -0.267 OA
ATOM     29  N   UNL     1       0.115  -1.373   0.000  0.00  0.00    -0.299 N 
ATOM     30  C   UNL     1       0.622  -0.936   0.000  0.00  0.00    +0.110 C 
ENDROOT
BRANCH   9   6
ATOM      3  C   UNL     1      -2.338  -1.196   0.000  0.00  0.00    +0.139 A 
ATOM      4  C   UNL     1      -1.485  -0.905   0.000  0.00  0.00    +0.037 A 
ATOM      5  C   UNL     1      -0.664  -1.356   0.000  0.00  0.00    +0.008 A 
ATOM      6  C   UNL     1      -0.614  -2.179   0.000  0.00  0.00    +0.054 A 
ATOM      7  C   UNL     1      -1.301  -2.635   0.000  0.00  0.00    +0.008 A 
ATOM      8  C   UNL     1      -1.875  -2.432   0.000  0.00  0.00    +0.037 A 
BRANCH   3   2
ATOM      1  C   UNL     1      -3.662   0.206   0.000  0.00  0.00    +0.252 C 
ATOM      2  O   UNL     1      -3.255  -0.624   0.000  0.00  0.00    -0.471 OA
ENDBRANCH   3   2
ENDBRANCH   9   6
BRANCH  20  21
ATOM     21  C   UNL     1      -2.066  -1.445   0.000  0.00  0.00    +0.027 C 
ATOM     22  C   UNL     1      -2.195  -2.260   0.000  0.00  0.00    +0.005 C 
ATOM     23  C   UNL     1      -2.965  -2.556   0.000  0.00  0.00    +0.000 C 
ATOM     24  C   UNL     1      -3.606  -2.037   0.000  0.00  0.00    +0.000 C 
ATOM     25  C   UNL     1      -3.478  -1.222   0.000  0.00  0.00    +0.000 C 
ATOM     26  C   UNL     1      -2.707  -0.926   0.000  0.00  0.00    +0.005 C 
ENDBRANCH  20  21
TORSDOF 3
