REMARK  Name = 
REMARK  6 active torsions:
REMARK  status: ('A' for Active; 'I' for Inactive)
REMARK    1  A    between atoms: N_2  and  C_4
REMARK    2  A    between atoms: C_4  and  C_5
REMARK    3  A    between atoms: C_7  and  C_8
REMARK    4  A    between atoms: C_8  and  C_9
REMARK    5  A    between atoms: C_9  and  N_13
REMARK    6  A    between atoms: N_13  and  C_14
REMARK                            x       y       z     vdW  Elec       q    Type
REMARK                         _______ _______ _______ _____ _____    ______ ____
ROOT
ATOM      9  C   UNL     1       1.992  -0.916   0.000  0.00  0.00    +0.119 C 
ATOM     10  C   UNL     1       2.576  -1.499   0.000  0.00  0.00    +0.161 C 
ATOM     11  O   UNL     1       1.992  -2.082   0.000  0.00  0.00    -0.351 OA
ATOM     12  C   UNL     1       1.409  -1.499   0.000  0.00  0.00    +0.161 C 
ENDROOT
BRANCH   9   8
ATOM      8  C   UNL     1       1.409  -0.332   0.000  0.00  0.00    +0.070 C 
BRANCH   8   7
ATOM      5  C   UNL     1       2.350   1.584   0.000  0.00  0.00    +0.170 A 
ATOM      6  C   UNL     1       2.393   0.760   0.000  0.00  0.00    +0.055 A 
ATOM      7  C   UNL     1       1.623   0.465   0.000  0.00  0.00    +0.102 A 
ATOM     23  N   UNL     1       1.103   1.106   0.000  0.00  0.00    -0.082 NA
ATOM     24  O   UNL     1       1.553   1.798   0.000  0.00  0.00    -0.357 OA
BRANCH   5   4
ATOM      4  C   UNL     1       2.991   2.103   0.000  0.00  0.00    +0.141 C 
BRANCH   4   2
ATOM      1  C   UNL     1       3.503   3.437   0.000  0.00  0.00    +0.090 C 
ATOM      2  N   UNL     1       2.862   2.918   0.000  0.00  0.00    -0.264 NA
ATOM      3  C   UNL     1       2.091   3.214   0.000  0.00  0.00    +0.090 C 
ENDBRANCH   4   2
ENDBRANCH   5   4
ENDBRANCH   8   7
ENDBRANCH   9   8
BRANCH   9  13
ATOM     13  N   UNL     1       2.576  -0.332   0.000  0.00  0.00    -0.217 NA
BRANCH  13  14
ATOM     14  C   UNL     1       3.373  -0.546   0.000  0.00  0.00    +0.076 C 
ATOM     15  C   UNL     1       3.956   0.037   0.000  0.00  0.00    +0.039 C 
ATOM     16  C   UNL     1       4.753  -0.176   0.000  0.00  0.00    +0.095 C 
ATOM     17  N   UNL     1       4.966  -0.973   0.000  0.00  0.00    -0.279 N 
ATOM     18  C   UNL     1       4.383  -1.556   0.000  0.00  0.00    +0.095 C 
ATOM     19  C   UNL     1       3.586  -1.343   0.000  0.00  0.00    +0.039 C 
ATOM     20  C   UNL     1       5.763  -1.186   0.000  0.00  0.00    +0.226 C 
ATOM     21  C   UNL     1       5.977  -1.983   0.000  0.00  0.00    +0.095 C 
ATOM     22  O   UNL     1       6.347  -0.603   0.000  0.00  0.00    -0.275 OA
ENDBRANCH  13  14
ENDBRANCH   9  13
TORSDOF 6
