MODEL 1
REMARK VINA RESULT:      -9.2      0.000      0.000
REMARK  Name = 
REMARK  7 active torsions:
REMARK  status: ('A' for Active; 'I' for Inactive)
REMARK    1  A    between atoms: O_2  and  C_3
REMARK    2  A    between atoms: C_3  and  C_4
REMARK    3  A    between atoms: C_10  and  C_13
REMARK    4  A    between atoms: C_16  and  C_18
REMARK    5  A    between atoms: N_22  and  C_23
REMARK    6  A    between atoms: C_23  and  C_24
REMARK    7  A    between atoms: C_27  and  N_30
REMARK                            x       y       z     vdW  Elec       q    Type
REMARK                         _______ _______ _______ _____ _____    ______ ____
ROOT
ATOM     13  C   UNL     1      -0.953  -0.578  24.427  0.00  0.00    +0.205 A 
ATOM     14  N   UNL     1      -1.012  -0.992  25.139  0.00  0.00    -0.056 NA
ATOM     15  O   UNL     1      -1.796  -1.233  25.229  0.00  0.00    -0.336 OA
ATOM     16  C   UNL     1      -2.221  -0.968  24.574  0.00  0.00    +0.251 A 
ATOM     17  N   UNL     1      -1.700  -0.563  24.078  0.00  0.00    -0.190 NA
ENDROOT
BRANCH  13  10
ATOM      4  C   UNL     1       2.354   0.306  22.823  0.00  0.00    +0.277 C 
ATOM      5  O   UNL     1       2.231  -0.506  22.757  0.00  0.00    -0.270 OA
ATOM      6  N   UNL     1       1.791   0.780  23.197  0.00  0.00    -0.158 NA
ATOM      7  C   UNL     1       1.105   0.441  23.504  0.00  0.00    +0.155 A 
ATOM      8  N   UNL     1       0.542   0.914  23.878  0.00  0.00    -0.227 NA
ATOM      9  C   UNL     1      -0.144   0.574  24.186  0.00  0.00    +0.103 A 
ATOM     10  C   UNL     1      -0.267  -0.238  24.120  0.00  0.00    +0.058 A 
ATOM     11  C   UNL     1       0.296  -0.712  23.746  0.00  0.00    +0.008 A 
ATOM     12  C   UNL     1       0.982  -0.373  23.438  0.00  0.00    +0.036 A 
BRANCH   4   3
ATOM      3  C   UNL     1       3.040   0.646  22.516  0.00  0.00    +0.229 C 
BRANCH   3   2
ATOM      1  C   UNL     1       4.445   0.822  22.708  0.00  0.00    +0.175 C 
ATOM      2  O   UNL     1       3.779   0.336  22.712  0.00  0.00    -0.342 OA
ENDBRANCH   3   2
ENDBRANCH   4   3
ENDBRANCH  13  10
BRANCH  16  18
ATOM     18  C   UNL     1      -3.026  -1.087  24.437  0.00  0.00    +0.138 C 
ATOM     19  C   UNL     1      -3.364  -1.750  24.080  0.00  0.00    +0.027 C 
ATOM     20  C   UNL     1      -4.181  -1.637  24.055  0.00  0.00    +0.019 C 
ATOM     21  C   UNL     1      -4.348  -0.904  24.397  0.00  0.00    +0.073 C 
ATOM     22  N   UNL     1      -3.633  -0.565  24.632  0.00  0.00    -0.263 NA
BRANCH  22  23
ATOM     23  C   UNL     1      -3.543   0.169  24.999  0.00  0.00    +0.099 C 
BRANCH  23  24
ATOM     24  C   UNL     1      -4.170   0.704  25.011  0.00  0.00    -0.006 A 
ATOM     25  C   UNL     1      -4.185   1.334  24.479  0.00  0.00    -0.001 A 
ATOM     26  C   UNL     1      -4.813   1.870  24.491  0.00  0.00    +0.024 A 
ATOM     27  C   UNL     1      -5.426   1.775  25.035  0.00  0.00    +0.143 A 
ATOM     28  C   UNL     1      -5.411   1.144  25.566  0.00  0.00    +0.024 A 
ATOM     29  C   UNL     1      -4.784   0.609  25.555  0.00  0.00    -0.001 A 
BRANCH  27  30
ATOM     30  N   UNL     1      -6.053   2.311  25.047  0.00  0.00    +0.058 N 
ATOM     31  O   UNL     1      -5.938   3.073  25.339  0.00  0.00    -0.126 OA
ATOM     32  O   UNL     1      -6.795   2.083  24.765  0.00  0.00    -0.126 OA
ENDBRANCH  27  30
ENDBRANCH  23  24
ENDBRANCH  22  23
ENDBRANCH  16  18
TORSDOF 7
ENDMDL
MODEL 2
REMARK VINA RESULT:      -8.9      1.038      1.296
REMARK  Name = 
REMARK  7 active torsions:
REMARK  status: ('A' for Active; 'I' for Inactive)
REMARK    1  A    between atoms: O_2  and  C_3
REMARK    2  A    between atoms: C_3  and  C_4
REMARK    3  A    between atoms: C_10  and  C_13
REMARK    4  A    between atoms: C_16  and  C_18
REMARK    5  A    between atoms: N_22  and  C_23
REMARK    6  A    between atoms: C_23  and  C_24
REMARK    7  A    between atoms: C_27  and  N_30
REMARK                            x       y       z     vdW  Elec       q    Type
REMARK                         _______ _______ _______ _____ _____    ______ ____
ROOT
ATOM     13  C   UNL     1      -0.979   0.026  24.495  0.00  0.00    +0.205 A 
ATOM     14  N   UNL     1      -1.075   0.045  25.315  0.00  0.00    -0.056 NA
ATOM     15  O   UNL     1      -1.884   0.043  25.478  0.00  0.00    -0.336 OA
ATOM     16  C   UNL     1      -2.288   0.024  24.759  0.00  0.00    +0.251 A 
ATOM     17  N   UNL     1      -1.729   0.014  24.152  0.00  0.00    -0.190 NA
ENDROOT
BRANCH  13  10
ATOM      4  C   UNL     1       2.407   0.654  22.936  0.00  0.00    +0.277 C 
ATOM      5  O   UNL     1       2.198   1.304  23.398  0.00  0.00    -0.270 OA
ATOM      6  N   UNL     1       1.897   0.007  22.878  0.00  0.00    -0.158 NA
ATOM      7  C   UNL     1       1.178   0.012  23.282  0.00  0.00    +0.155 A 
ATOM      8  N   UNL     1       0.668  -0.633  23.225  0.00  0.00    -0.227 NA
ATOM      9  C   UNL     1      -0.052  -0.629  23.629  0.00  0.00    +0.103 A 
ATOM     10  C   UNL     1      -0.260   0.022  24.091  0.00  0.00    +0.058 A 
ATOM     11  C   UNL     1       0.249   0.668  24.149  0.00  0.00    +0.008 A 
ATOM     12  C   UNL     1       0.969   0.663  23.745  0.00  0.00    +0.036 A 
BRANCH   4   3
ATOM      3  C   UNL     1       3.126   0.649  22.531  0.00  0.00    +0.229 C 
BRANCH   3   2
ATOM      1  C   UNL     1       4.542   0.626  22.721  0.00  0.00    +0.175 C 
ATOM      2  O   UNL     1       3.804   0.952  22.891  0.00  0.00    -0.342 OA
ENDBRANCH   3   2
ENDBRANCH   4   3
ENDBRANCH  13  10
BRANCH  16  18
ATOM     18  C   UNL     1      -3.107   0.017  24.663  0.00  0.00    +0.138 C 
ATOM     19  C   UNL     1      -3.583  -0.656  24.610  0.00  0.00    +0.027 C 
ATOM     20  C   UNL     1      -4.365  -0.409  24.518  0.00  0.00    +0.019 C 
ATOM     21  C   UNL     1      -4.372   0.417  24.514  0.00  0.00    +0.073 C 
ATOM     22  N   UNL     1      -3.595   0.679  24.603  0.00  0.00    -0.263 NA
BRANCH  22  23
ATOM     23  C   UNL     1      -3.349   1.466  24.629  0.00  0.00    +0.099 C 
BRANCH  23  24
ATOM     24  C   UNL     1      -3.885   2.060  24.830  0.00  0.00    -0.006 A 
ATOM     25  C   UNL     1      -4.276   2.481  24.239  0.00  0.00    -0.001 A 
ATOM     26  C   UNL     1      -4.812   3.075  24.441  0.00  0.00    +0.024 A 
ATOM     27  C   UNL     1      -4.957   3.247  25.234  0.00  0.00    +0.143 A 
ATOM     28  C   UNL     1      -4.566   2.826  25.826  0.00  0.00    +0.024 A 
ATOM     29  C   UNL     1      -4.030   2.232  25.624  0.00  0.00    -0.001 A 
BRANCH  27  30
ATOM     30  N   UNL     1      -5.493   3.841  25.436  0.00  0.00    +0.058 N 
ATOM     31  O   UNL     1      -6.203   3.646  25.810  0.00  0.00    -0.126 OA
ATOM     32  O   UNL     1      -5.320   4.630  25.264  0.00  0.00    -0.126 OA
ENDBRANCH  27  30
ENDBRANCH  23  24
ENDBRANCH  22  23
ENDBRANCH  16  18
TORSDOF 7
ENDMDL
MODEL 3
REMARK VINA RESULT:      -8.4      2.549      4.249
REMARK  Name = 
REMARK  7 active torsions:
REMARK  status: ('A' for Active; 'I' for Inactive)
REMARK    1  A    between atoms: O_2  and  C_3
REMARK    2  A    between atoms: C_3  and  C_4
REMARK    3  A    between atoms: C_10  and  C_13
REMARK    4  A    between atoms: C_16  and  C_18
REMARK    5  A    between atoms: N_22  and  C_23
REMARK    6  A    between atoms: C_23  and  C_24
REMARK    7  A    between atoms: C_27  and  N_30
REMARK                            x       y       z     vdW  Elec       q    Type
REMARK                         _______ _______ _______ _____ _____    ______ ____
ROOT
ATOM     13  C   UNL     1      -0.390   1.920  25.068  0.00  0.00    +0.205 A 
ATOM     14  N   UNL     1       0.249   2.255  25.468  0.00  0.00    -0.056 NA
ATOM     15  O   UNL     1       0.100   3.062  25.557  0.00  0.00    -0.336 OA
ATOM     16  C   UNL     1      -0.631   3.225  25.211  0.00  0.00    +0.251 A 
ATOM     17  N   UNL     1      -0.934   2.519  24.909  0.00  0.00    -0.190 NA
ENDROOT
BRANCH  13  10
ATOM      4  C   UNL     1      -1.250  -1.738  24.654  0.00  0.00    +0.277 C 
ATOM      5  O   UNL     1      -1.704  -1.422  25.265  0.00  0.00    -0.270 OA
ATOM      6  N   UNL     1      -0.714  -1.260  24.247  0.00  0.00    -0.158 NA
ATOM      7  C   UNL     1      -0.633  -0.465  24.452  0.00  0.00    +0.155 A 
ATOM      8  N   UNL     1      -0.097   0.013  24.047  0.00  0.00    -0.227 NA
ATOM      9  C   UNL     1      -0.017   0.808  24.252  0.00  0.00    +0.103 A 
ATOM     10  C   UNL     1      -0.471   1.125  24.863  0.00  0.00    +0.058 A 
ATOM     11  C   UNL     1      -1.007   0.647  25.269  0.00  0.00    +0.008 A 
ATOM     12  C   UNL     1      -1.088  -0.148  25.064  0.00  0.00    +0.036 A 
BRANCH   4   3
ATOM      3  C   UNL     1      -1.331  -2.533  24.449  0.00  0.00    +0.229 C 
BRANCH   3   2
ATOM      1  C   UNL     1      -2.433  -3.320  23.991  0.00  0.00    +0.175 C 
ATOM      2  O   UNL     1      -2.038  -2.929  24.601  0.00  0.00    -0.342 OA
ENDBRANCH   3   2
ENDBRANCH   4   3
ENDBRANCH  13  10
BRANCH  16  18
ATOM     18  C   UNL     1      -0.995   3.964  25.173  0.00  0.00    +0.138 C 
ATOM     19  C   UNL     1      -0.691   4.637  24.804  0.00  0.00    +0.027 C 
ATOM     20  C   UNL     1      -1.235   5.249  24.901  0.00  0.00    +0.019 C 
ATOM     21  C   UNL     1      -1.876   4.955  25.330  0.00  0.00    +0.073 C 
ATOM     22  N   UNL     1      -1.727   4.161  25.498  0.00  0.00    -0.263 NA
BRANCH  22  23
ATOM     23  C   UNL     1      -2.224   3.654  25.918  0.00  0.00    +0.099 C 
BRANCH  23  24
ATOM     24  C   UNL     1      -3.042   3.704  25.822  0.00  0.00    -0.006 A 
ATOM     25  C   UNL     1      -3.501   4.086  26.390  0.00  0.00    -0.001 A 
ATOM     26  C   UNL     1      -4.319   4.136  26.294  0.00  0.00    +0.024 A 
ATOM     27  C   UNL     1      -4.677   3.804  25.630  0.00  0.00    +0.143 A 
ATOM     28  C   UNL     1      -4.218   3.421  25.062  0.00  0.00    +0.024 A 
ATOM     29  C   UNL     1      -3.400   3.371  25.157  0.00  0.00    -0.001 A 
BRANCH  27  30
ATOM     30  N   UNL     1      -5.496   3.854  25.534  0.00  0.00    +0.058 N 
ATOM     31  O   UNL     1      -5.926   3.186  25.310  0.00  0.00    -0.126 OA
ATOM     32  O   UNL     1      -5.883   4.572  25.662  0.00  0.00    -0.126 OA
ENDBRANCH  27  30
ENDBRANCH  23  24
ENDBRANCH  22  23
ENDBRANCH  16  18
TORSDOF 7
ENDMDL
MODEL 4
REMARK VINA RESULT:      -8.2      1.772      2.162
REMARK  Name = 
REMARK  7 active torsions:
REMARK  status: ('A' for Active; 'I' for Inactive)
REMARK    1  A    between atoms: O_2  and  C_3
REMARK    2  A    between atoms: C_3  and  C_4
REMARK    3  A    between atoms: C_10  and  C_13
REMARK    4  A    between atoms: C_16  and  C_18
REMARK    5  A    between atoms: N_22  and  C_23
REMARK    6  A    between atoms: C_23  and  C_24
REMARK    7  A    between atoms: C_27  and  N_30
REMARK                            x       y       z     vdW  Elec       q    Type
REMARK                         _______ _______ _______ _____ _____    ______ ____
ROOT
ATOM     13  C   UNL     1      -0.415   0.828  23.555  0.00  0.00    +0.205 A 
ATOM     14  N   UNL     1      -0.834   0.605  24.231  0.00  0.00    -0.056 NA
ATOM     15  O   UNL     1      -1.591   0.931  24.180  0.00  0.00    -0.336 OA
ATOM     16  C   UNL     1      -1.639   1.355  23.474  0.00  0.00    +0.251 A 
ATOM     17  N   UNL     1      -0.913   1.291  23.088  0.00  0.00    -0.190 NA
ENDROOT
BRANCH  13  10
ATOM      4  C   UNL     1       3.308   0.557  22.961  0.00  0.00    +0.277 C 
ATOM      5  O   UNL     1       3.135   1.310  23.247  0.00  0.00    -0.270 OA
ATOM      6  N   UNL     1       2.702   0.007  22.850  0.00  0.00    -0.158 NA
ATOM      7  C   UNL     1       1.923   0.212  23.026  0.00  0.00    +0.155 A 
ATOM      8  N   UNL     1       1.317  -0.336  22.916  0.00  0.00    -0.227 NA
ATOM      9  C   UNL     1       0.537  -0.131  23.092  0.00  0.00    +0.103 A 
ATOM     10  C   UNL     1       0.364   0.623  23.379  0.00  0.00    +0.058 A 
ATOM     11  C   UNL     1       0.970   1.172  23.490  0.00  0.00    +0.008 A 
ATOM     12  C   UNL     1       1.749   0.967  23.313  0.00  0.00    +0.036 A 
BRANCH   4   3
ATOM      3  C   UNL     1       4.087   0.352  22.785  0.00  0.00    +0.229 C 
BRANCH   3   2
ATOM      1  C   UNL     1       5.414   0.189  23.291  0.00  0.00    +0.175 C 
ATOM      2  O   UNL     1       4.702   0.605  23.273  0.00  0.00    -0.342 OA
ENDBRANCH   3   2
ENDBRANCH   4   3
ENDBRANCH  13  10
BRANCH  16  18
ATOM     18  C   UNL     1      -2.298   1.769  23.201  0.00  0.00    +0.138 C 
ATOM     19  C   UNL     1      -2.451   1.975  22.416  0.00  0.00    +0.027 C 
ATOM     20  C   UNL     1      -3.167   2.384  22.394  0.00  0.00    +0.019 C 
ATOM     21  C   UNL     1      -3.457   2.432  23.166  0.00  0.00    +0.073 C 
ATOM     22  N   UNL     1      -2.919   2.052  23.664  0.00  0.00    -0.263 NA
BRANCH  22  23
ATOM     23  C   UNL     1      -2.991   1.970  24.481  0.00  0.00    +0.099 C 
BRANCH  23  24
ATOM     24  C   UNL     1      -3.664   2.250  24.867  0.00  0.00    -0.006 A 
ATOM     25  C   UNL     1      -4.329   1.767  24.939  0.00  0.00    -0.001 A 
ATOM     26  C   UNL     1      -5.003   2.048  25.325  0.00  0.00    +0.024 A 
ATOM     27  C   UNL     1      -5.011   2.811  25.638  0.00  0.00    +0.143 A 
ATOM     28  C   UNL     1      -4.346   3.294  25.565  0.00  0.00    +0.024 A 
ATOM     29  C   UNL     1      -3.673   3.014  25.180  0.00  0.00    -0.001 A 
BRANCH  27  30
ATOM     30  N   UNL     1      -5.685   3.092  26.024  0.00  0.00    +0.058 N 
ATOM     31  O   UNL     1      -6.038   2.639  26.617  0.00  0.00    -0.126 OA
ATOM     32  O   UNL     1      -6.005   3.823  25.816  0.00  0.00    -0.126 OA
ENDBRANCH  27  30
ENDBRANCH  23  24
ENDBRANCH  22  23
ENDBRANCH  16  18
TORSDOF 7
ENDMDL
MODEL 5
REMARK VINA RESULT:      -7.9      1.681      2.965
REMARK  Name = 
REMARK  7 active torsions:
REMARK  status: ('A' for Active; 'I' for Inactive)
REMARK    1  A    between atoms: O_2  and  C_3
REMARK    2  A    between atoms: C_3  and  C_4
REMARK    3  A    between atoms: C_10  and  C_13
REMARK    4  A    between atoms: C_16  and  C_18
REMARK    5  A    between atoms: N_22  and  C_23
REMARK    6  A    between atoms: C_23  and  C_24
REMARK    7  A    between atoms: C_27  and  N_30
REMARK                            x       y       z     vdW  Elec       q    Type
REMARK                         _______ _______ _______ _____ _____    ______ ____
ROOT
ATOM     13  C   UNL     1      -1.569   2.125  24.804  0.00  0.00    +0.205 A 
ATOM     14  N   UNL     1      -1.817   2.691  25.351  0.00  0.00    -0.056 NA
ATOM     15  O   UNL     1      -2.637   2.632  25.425  0.00  0.00    -0.336 OA
ATOM     16  C   UNL     1      -2.895   2.030  24.924  0.00  0.00    +0.251 A 
ATOM     17  N   UNL     1      -2.235   1.716  24.540  0.00  0.00    -0.190 NA
ENDROOT
BRANCH  13  10
ATOM      4  C   UNL     1       1.718   0.948  23.353  0.00  0.00    +0.277 C 
ATOM      5  O   UNL     1       1.117   0.440  23.106  0.00  0.00    -0.270 OA
ATOM      6  N   UNL     1       1.542   1.590  23.841  0.00  0.00    -0.158 NA
ATOM      7  C   UNL     1       0.764   1.724  24.082  0.00  0.00    +0.155 A 
ATOM      8  N   UNL     1       0.587   2.365  24.569  0.00  0.00    -0.227 NA
ATOM      9  C   UNL     1      -0.190   2.499  24.810  0.00  0.00    +0.103 A 
ATOM     10  C   UNL     1      -0.791   1.991  24.563  0.00  0.00    +0.058 A 
ATOM     11  C   UNL     1      -0.615   1.349  24.075  0.00  0.00    +0.008 A 
ATOM     12  C   UNL     1       0.162   1.215  23.835  0.00  0.00    +0.036 A 
BRANCH   4   3
ATOM      3  C   UNL     1       2.495   0.815  23.112  0.00  0.00    +0.229 C 
BRANCH   3   2
ATOM      1  C   UNL     1       3.427   0.159  22.250  0.00  0.00    +0.175 C 
ATOM      2  O   UNL     1       2.656   0.257  22.526  0.00  0.00    -0.342 OA
ENDBRANCH   3   2
ENDBRANCH   4   3
ENDBRANCH  13  10
BRANCH  16  18
ATOM     18  C   UNL     1      -3.676   1.783  24.824  0.00  0.00    +0.138 C 
ATOM     19  C   UNL     1      -4.299   2.248  24.548  0.00  0.00    +0.027 C 
ATOM     20  C   UNL     1      -4.979   1.782  24.536  0.00  0.00    +0.019 C 
ATOM     21  C   UNL     1      -4.777   1.029  24.805  0.00  0.00    +0.073 C 
ATOM     22  N   UNL     1      -3.971   1.030  24.983  0.00  0.00    -0.263 NA
BRANCH  22  23
ATOM     23  C   UNL     1      -3.538   0.389  25.270  0.00  0.00    +0.099 C 
BRANCH  23  24
ATOM     24  C   UNL     1      -3.680  -0.369  24.979  0.00  0.00    -0.006 A 
ATOM     25  C   UNL     1      -3.827  -0.482  24.176  0.00  0.00    -0.001 A 
ATOM     26  C   UNL     1      -3.969  -1.241  23.885  0.00  0.00    +0.024 A 
ATOM     27  C   UNL     1      -3.965  -1.887  24.398  0.00  0.00    +0.143 A 
ATOM     28  C   UNL     1      -3.818  -1.774  25.202  0.00  0.00    +0.024 A 
ATOM     29  C   UNL     1      -3.676  -1.015  25.493  0.00  0.00    -0.001 A 
BRANCH  27  30
ATOM     30  N   UNL     1      -4.108  -2.646  24.107  0.00  0.00    +0.058 N 
ATOM     31  O   UNL     1      -3.666  -3.284  24.388  0.00  0.00    -0.126 OA
ATOM     32  O   UNL     1      -4.691  -2.766  23.536  0.00  0.00    -0.126 OA
ENDBRANCH  27  30
ENDBRANCH  23  24
ENDBRANCH  22  23
ENDBRANCH  16  18
TORSDOF 7
ENDMDL
MODEL 6
REMARK VINA RESULT:      -7.7      2.455      2.984
REMARK  Name = 
REMARK  7 active torsions:
REMARK  status: ('A' for Active; 'I' for Inactive)
REMARK    1  A    between atoms: O_2  and  C_3
REMARK    2  A    between atoms: C_3  and  C_4
REMARK    3  A    between atoms: C_10  and  C_13
REMARK    4  A    between atoms: C_16  and  C_18
REMARK    5  A    between atoms: N_22  and  C_23
REMARK    6  A    between atoms: C_23  and  C_24
REMARK    7  A    between atoms: C_27  and  N_30
REMARK                            x       y       z     vdW  Elec       q    Type
REMARK                         _______ _______ _______ _____ _____    ______ ____
ROOT
ATOM     13  C   UNL     1      -0.455   0.281  23.826  0.00  0.00    +0.205 A 
ATOM     14  N   UNL     1      -0.816  -0.247  24.347  0.00  0.00    -0.056 NA
ATOM     15  O   UNL     1      -1.578   0.028  24.502  0.00  0.00    -0.336 OA
ATOM     16  C   UNL     1      -1.688   0.727  24.077  0.00  0.00    +0.251 A 
ATOM     17  N   UNL     1      -0.993   0.883  23.659  0.00  0.00    -0.190 NA
ENDROOT
BRANCH  13  10
ATOM      4  C   UNL     1       3.178   0.591  22.826  0.00  0.00    +0.277 C 
ATOM      5  O   UNL     1       2.983   1.213  23.330  0.00  0.00    -0.270 OA
ATOM      6  N   UNL     1       2.608   0.030  22.622  0.00  0.00    -0.158 NA
ATOM      7  C   UNL     1       1.842   0.093  22.923  0.00  0.00    +0.155 A 
ATOM      8  N   UNL     1       1.271  -0.466  22.719  0.00  0.00    -0.227 NA
ATOM      9  C   UNL     1       0.506  -0.404  23.021  0.00  0.00    +0.103 A 
ATOM     10  C   UNL     1       0.311   0.219  23.525  0.00  0.00    +0.058 A 
ATOM     11  C   UNL     1       0.881   0.779  23.729  0.00  0.00    +0.008 A 
ATOM     12  C   UNL     1       1.647   0.716  23.428  0.00  0.00    +0.036 A 
BRANCH   4   3
ATOM      3  C   UNL     1       3.943   0.528  22.525  0.00  0.00    +0.229 C 
BRANCH   3   2
ATOM      1  C   UNL     1       5.256   0.187  22.977  0.00  0.00    +0.175 C 
ATOM      2  O   UNL     1       4.592   0.677  23.012  0.00  0.00    -0.342 OA
ENDBRANCH   3   2
ENDBRANCH   4   3
ENDBRANCH  13  10
BRANCH  16  18
ATOM     18  C   UNL     1      -2.371   1.189  24.071  0.00  0.00    +0.138 C 
ATOM     19  C   UNL     1      -3.038   1.061  23.602  0.00  0.00    +0.027 C 
ATOM     20  C   UNL     1      -3.588   1.652  23.773  0.00  0.00    +0.019 C 
ATOM     21  C   UNL     1      -3.260   2.145  24.348  0.00  0.00    +0.073 C 
ATOM     22  N   UNL     1      -2.509   1.859  24.532  0.00  0.00    -0.263 NA
BRANCH  22  23
ATOM     23  C   UNL     1      -1.987   2.185  25.081  0.00  0.00    +0.099 C 
BRANCH  23  24
ATOM     24  C   UNL     1      -1.887   3.003  25.120  0.00  0.00    -0.006 A 
ATOM     25  C   UNL     1      -2.419   3.464  25.549  0.00  0.00    -0.001 A 
ATOM     26  C   UNL     1      -2.319   4.282  25.588  0.00  0.00    +0.024 A 
ATOM     27  C   UNL     1      -1.686   4.639  25.197  0.00  0.00    +0.143 A 
ATOM     28  C   UNL     1      -1.154   4.178  24.767  0.00  0.00    +0.024 A 
ATOM     29  C   UNL     1      -1.254   3.360  24.728  0.00  0.00    -0.001 A 
BRANCH  27  30
ATOM     30  N   UNL     1      -1.586   5.457  25.236  0.00  0.00    +0.058 N 
ATOM     31  O   UNL     1      -0.881   5.799  24.977  0.00  0.00    -0.126 OA
ATOM     32  O   UNL     1      -2.191   5.933  25.533  0.00  0.00    -0.126 OA
ENDBRANCH  27  30
ENDBRANCH  23  24
ENDBRANCH  22  23
ENDBRANCH  16  18
TORSDOF 7
ENDMDL
MODEL 7
REMARK VINA RESULT:      -7.5      1.225      6.329
REMARK  Name = 
REMARK  7 active torsions:
REMARK  status: ('A' for Active; 'I' for Inactive)
REMARK    1  A    between atoms: O_2  and  C_3
REMARK    2  A    between atoms: C_3  and  C_4
REMARK    3  A    between atoms: C_10  and  C_13
REMARK    4  A    between atoms: C_16  and  C_18
REMARK    5  A    between atoms: N_22  and  C_23
REMARK    6  A    between atoms: C_23  and  C_24
REMARK    7  A    between atoms: C_27  and  N_30
REMARK                            x       y       z     vdW  Elec       q    Type
REMARK                         _______ _______ _______ _____ _____    ______ ____
ROOT
ATOM     13  C   UNL     1      -3.319   0.060  24.620  0.00  0.00    +0.205 A 
ATOM     14  N   UNL     1      -3.420  -0.523  24.045  0.00  0.00    -0.056 NA
ATOM     15  O   UNL     1      -2.742  -0.993  24.036  0.00  0.00    -0.336 OA
ATOM     16  C   UNL     1      -2.222  -0.701  24.606  0.00  0.00    +0.251 A 
ATOM     17  N   UNL     1      -2.579  -0.050  24.967  0.00  0.00    -0.190 NA
ENDROOT
BRANCH  13  10
ATOM      4  C   UNL     1      -5.266   3.208  25.386  0.00  0.00    +0.277 C 
ATOM      5  O   UNL     1      -4.495   3.412  25.180  0.00  0.00    -0.270 OA
ATOM      6  N   UNL     1      -5.495   2.415  25.398  0.00  0.00    -0.158 NA
ATOM      7  C   UNL     1      -4.951   1.826  25.204  0.00  0.00    +0.155 A 
ATOM      8  N   UNL     1      -5.179   1.034  25.216  0.00  0.00    -0.227 NA
ATOM      9  C   UNL     1      -4.635   0.445  25.021  0.00  0.00    +0.103 A 
ATOM     10  C   UNL     1      -3.863   0.649  24.815  0.00  0.00    +0.058 A 
ATOM     11  C   UNL     1      -3.634   1.441  24.803  0.00  0.00    +0.008 A 
ATOM     12  C   UNL     1      -4.178   2.030  24.997  0.00  0.00    +0.036 A 
BRANCH   4   3
ATOM      3  C   UNL     1      -5.810   3.797  25.580  0.00  0.00    +0.229 C 
BRANCH   3   2
ATOM      1  C   UNL     1      -6.190   5.173  25.512  0.00  0.00    +0.175 C 
ATOM      2  O   UNL     1      -5.605   4.592  25.500  0.00  0.00    -0.342 OA
ENDBRANCH   3   2
ENDBRANCH   4   3
ENDBRANCH  13  10
BRANCH  16  18
ATOM     18  C   UNL     1      -1.476  -1.005  24.783  0.00  0.00    +0.138 C 
ATOM     19  C   UNL     1      -1.315  -1.615  25.316  0.00  0.00    +0.027 C 
ATOM     20  C   UNL     1      -0.500  -1.740  25.322  0.00  0.00    +0.019 C 
ATOM     21  C   UNL     1      -0.156  -1.208  24.793  0.00  0.00    +0.073 C 
ATOM     22  N   UNL     1      -0.760  -0.754  24.460  0.00  0.00    -0.263 NA
BRANCH  22  23
ATOM     23  C   UNL     1      -0.663  -0.154  23.902  0.00  0.00    +0.099 C 
BRANCH  23  24
ATOM     24  C   UNL     1       0.091   0.040  23.631  0.00  0.00    -0.006 A 
ATOM     25  C   UNL     1       0.449  -0.417  23.046  0.00  0.00    -0.001 A 
ATOM     26  C   UNL     1       1.204  -0.223  22.774  0.00  0.00    +0.024 A 
ATOM     27  C   UNL     1       1.600   0.429  23.089  0.00  0.00    +0.143 A 
ATOM     28  C   UNL     1       1.241   0.886  23.674  0.00  0.00    +0.024 A 
ATOM     29  C   UNL     1       0.487   0.692  23.946  0.00  0.00    -0.001 A 
BRANCH  27  30
ATOM     30  N   UNL     1       2.355   0.624  22.818  0.00  0.00    +0.058 N 
ATOM     31  O   UNL     1       2.763   1.256  23.155  0.00  0.00    -0.126 OA
ATOM     32  O   UNL     1       2.700   0.185  22.209  0.00  0.00    -0.126 OA
ENDBRANCH  27  30
ENDBRANCH  23  24
ENDBRANCH  22  23
ENDBRANCH  16  18
TORSDOF 7
ENDMDL
