MODEL 1
REMARK VINA RESULT:     -16.3      0.000      0.000
REMARK  Name = 
REMARK  3 active torsions:
REMARK  status: ('A' for Active; 'I' for Inactive)
REMARK    1  A    between atoms: C_2  and  C_25
REMARK    2  A    between atoms: C_12  and  C_17
REMARK    3  A    between atoms: C_21  and  C_23
REMARK                            x       y       z     vdW  Elec       q    Type
REMARK                         _______ _______ _______ _____ _____    ______ ____
ROOT
ATOM      1  O   UNL     1      -1.274  -0.423  25.478  0.00  0.00    -0.267 OA
ATOM      2  C   UNL     1      -2.071  -0.550  25.135  0.00  0.00    +0.284 C 
ATOM      3  N   UNL     1      -2.279  -1.364  24.991  0.00  0.00    -0.273 N 
ATOM      4  C   UNL     1      -2.071  -2.172  25.023  0.00  0.00    +0.096 C 
ATOM      5  C   UNL     1      -2.895  -2.570  24.650  0.00  0.00    +0.043 C 
ATOM      6  C   UNL     1      -3.493  -3.045  24.366  0.00  0.00    +0.011 C 
ATOM      7  C   UNL     1      -3.377  -2.359  24.462  0.00  0.00    +0.058 C 
ATOM      8  C   UNL     1      -2.574  -1.990  24.825  0.00  0.00    +0.100 C 
ATOM      9  C   UNL     1      -3.774  -1.538  24.352  0.00  0.00    +0.041 A 
ATOM     10  C   UNL     1      -4.475  -1.197  24.082  0.00  0.00    +0.013 A 
ATOM     11  C   UNL     1      -4.567  -0.377  24.099  0.00  0.00    +0.006 A 
ATOM     12  C   UNL     1      -3.960   0.101  24.387  0.00  0.00    +0.056 A 
ATOM     13  C   UNL     1      -3.259  -0.240  24.657  0.00  0.00    +0.261 A 
ATOM     14  O   UNL     1      -2.382   0.126  25.051  0.00  0.00    -0.267 OA
ATOM     15  N   UNL     1      -3.166  -1.060  24.640  0.00  0.00    -0.299 N 
ATOM     16  C   UNL     1      -3.303  -1.707  24.538  0.00  0.00    +0.110 C 
ENDROOT
BRANCH  12  17
ATOM     17  C   UNL     1      -4.053   0.920  24.404  0.00  0.00    +0.005 A 
ATOM     18  C   UNL     1      -3.661   1.391  23.852  0.00  0.00    +0.000 A 
ATOM     19  C   UNL     1      -3.754   2.211  23.868  0.00  0.00    +0.001 A 
ATOM     20  C   UNL     1      -4.239   2.559  24.437  0.00  0.00    +0.010 A 
ATOM     21  C   UNL     1      -4.632   2.089  24.989  0.00  0.00    +0.068 A 
ATOM     22  C   UNL     1      -4.538   1.268  24.973  0.00  0.00    +0.010 A 
BRANCH  21  23
ATOM     23  C   UNL     1      -5.131   2.486  25.570  0.00  0.00    +0.100 C 
ATOM     24  N   UNL     1      -5.609   2.926  26.101  0.00  0.00    -0.191 NA
ENDBRANCH  21  23
ENDBRANCH  12  17
BRANCH   2  25
ATOM     25  C   UNL     1      -2.826  -0.050  24.852  0.00  0.00    +0.199 A 
ATOM     26  C   UNL     1      -3.525   0.144  25.244  0.00  0.00    +0.045 A 
ATOM     27  C   UNL     1      -3.989   0.592  24.730  0.00  0.00    +0.044 A 
ATOM     28  C   UNL     1      -3.577   0.675  24.021  0.00  0.00    +0.180 A 
ATOM     29  O   UNL     1      -2.857   0.277  24.096  0.00  0.00    -0.446 OA
ENDBRANCH   2  25
TORSDOF 3
ENDMDL
MODEL 2
REMARK VINA RESULT:     -16.0      1.219      3.647
REMARK  Name = 
REMARK  3 active torsions:
REMARK  status: ('A' for Active; 'I' for Inactive)
REMARK    1  A    between atoms: C_2  and  C_25
REMARK    2  A    between atoms: C_12  and  C_17
REMARK    3  A    between atoms: C_21  and  C_23
REMARK                            x       y       z     vdW  Elec       q    Type
REMARK                         _______ _______ _______ _____ _____    ______ ____
ROOT
ATOM      1  O   UNL     1      -1.739   1.601  23.504  0.00  0.00    -0.267 OA
ATOM      2  C   UNL     1      -2.518   1.499  23.895  0.00  0.00    +0.284 C 
ATOM      3  N   UNL     1      -2.981   2.209  23.972  0.00  0.00    -0.273 N 
ATOM      4  C   UNL     1      -3.059   3.031  23.843  0.00  0.00    +0.096 C 
ATOM      5  C   UNL     1      -3.953   3.176  24.238  0.00  0.00    +0.043 C 
ATOM      6  C   UNL     1      -4.664   3.458  24.519  0.00  0.00    +0.011 C 
ATOM      7  C   UNL     1      -4.328   2.843  24.483  0.00  0.00    +0.058 C 
ATOM      8  C   UNL     1      -3.463   2.719  24.097  0.00  0.00    +0.100 C 
ATOM      9  C   UNL     1      -4.421   1.957  24.706  0.00  0.00    +0.041 A 
ATOM     10  C   UNL     1      -4.954   1.439  25.063  0.00  0.00    +0.013 A 
ATOM     11  C   UNL     1      -4.766   0.639  25.135  0.00  0.00    +0.006 A 
ATOM     12  C   UNL     1      -4.045   0.357  24.850  0.00  0.00    +0.056 A 
ATOM     13  C   UNL     1      -3.512   0.875  24.492  0.00  0.00    +0.261 A 
ATOM     14  O   UNL     1      -2.579   0.773  24.070  0.00  0.00    -0.267 OA
ATOM     15  N   UNL     1      -3.700   1.675  24.420  0.00  0.00    -0.299 N 
ATOM     16  C   UNL     1      -4.041   2.248  24.467  0.00  0.00    +0.110 C 
ENDROOT
BRANCH  12  17
ATOM     17  C   UNL     1      -3.858  -0.443  24.922  0.00  0.00    +0.005 A 
ATOM     18  C   UNL     1      -3.412  -0.705  25.565  0.00  0.00    +0.000 A 
ATOM     19  C   UNL     1      -3.225  -1.505  25.638  0.00  0.00    +0.001 A 
ATOM     20  C   UNL     1      -3.483  -2.043  25.069  0.00  0.00    +0.010 A 
ATOM     21  C   UNL     1      -3.930  -1.782  24.426  0.00  0.00    +0.068 A 
ATOM     22  C   UNL     1      -4.117  -0.981  24.353  0.00  0.00    +0.010 A 
BRANCH  21  23
ATOM     23  C   UNL     1      -4.184  -2.371  23.849  0.00  0.00    +0.100 C 
ATOM     24  N   UNL     1      -4.426  -2.988  23.335  0.00  0.00    -0.191 NA
ENDBRANCH  21  23
ENDBRANCH  12  17
BRANCH   2  25
ATOM     25  C   UNL     1      -3.048   0.815  24.284  0.00  0.00    +0.199 A 
ATOM     26  C   UNL     1      -3.665   0.365  23.974  0.00  0.00    +0.045 A 
ATOM     27  C   UNL     1      -3.926  -0.150  24.563  0.00  0.00    +0.044 A 
ATOM     28  C   UNL     1      -3.470  -0.018  25.237  0.00  0.00    +0.180 A 
ATOM     29  O   UNL     1      -2.927   0.580  25.065  0.00  0.00    -0.446 OA
ENDBRANCH   2  25
TORSDOF 3
ENDMDL
MODEL 3
REMARK VINA RESULT:     -15.9      1.148      3.892
REMARK  Name = 
REMARK  3 active torsions:
REMARK  status: ('A' for Active; 'I' for Inactive)
REMARK    1  A    between atoms: C_2  and  C_25
REMARK    2  A    between atoms: C_12  and  C_17
REMARK    3  A    between atoms: C_21  and  C_23
REMARK                            x       y       z     vdW  Elec       q    Type
REMARK                         _______ _______ _______ _____ _____    ______ ____
ROOT
ATOM      1  O   UNL     1      -5.712   1.353  25.988  0.00  0.00    -0.267 OA
ATOM      2  C   UNL     1      -5.072   1.357  25.388  0.00  0.00    +0.284 C 
ATOM      3  N   UNL     1      -4.843   2.127  25.106  0.00  0.00    -0.273 N 
ATOM      4  C   UNL     1      -4.943   2.956  25.126  0.00  0.00    +0.096 C 
ATOM      5  C   UNL     1      -4.260   3.222  24.463  0.00  0.00    +0.043 C 
ATOM      6  C   UNL     1      -3.750   3.599  23.952  0.00  0.00    +0.011 C 
ATOM      7  C   UNL     1      -3.896   2.941  24.148  0.00  0.00    +0.058 C 
ATOM      8  C   UNL     1      -4.560   2.700  24.791  0.00  0.00    +0.100 C 
ATOM      9  C   UNL     1      -3.647   2.070  23.992  0.00  0.00    +0.041 A 
ATOM     10  C   UNL     1      -3.120   1.626  23.538  0.00  0.00    +0.013 A 
ATOM     11  C   UNL     1      -3.112   0.804  23.604  0.00  0.00    +0.006 A 
ATOM     12  C   UNL     1      -3.630   0.426  24.122  0.00  0.00    +0.056 A 
ATOM     13  C   UNL     1      -4.157   0.869  24.576  0.00  0.00    +0.261 A 
ATOM     14  O   UNL     1      -4.880   0.642  25.272  0.00  0.00    -0.267 OA
ATOM     15  N   UNL     1      -4.165   1.692  24.511  0.00  0.00    -0.299 N 
ATOM     16  C   UNL     1      -4.007   2.309  24.307  0.00  0.00    +0.110 C 
ENDROOT
BRANCH  12  17
ATOM     17  C   UNL     1      -3.621  -0.396  24.187  0.00  0.00    +0.005 A 
ATOM     18  C   UNL     1      -4.295  -0.832  23.995  0.00  0.00    +0.000 A 
ATOM     19  C   UNL     1      -4.287  -1.655  24.059  0.00  0.00    +0.001 A 
ATOM     20  C   UNL     1      -3.604  -2.041  24.315  0.00  0.00    +0.010 A 
ATOM     21  C   UNL     1      -2.930  -1.606  24.507  0.00  0.00    +0.068 A 
ATOM     22  C   UNL     1      -2.939  -0.783  24.443  0.00  0.00    +0.010 A 
BRANCH  21  23
ATOM     23  C   UNL     1      -2.234  -2.043  24.771  0.00  0.00    +0.100 C 
ATOM     24  N   UNL     1      -1.553  -2.491  24.969  0.00  0.00    -0.191 NA
ENDBRANCH  21  23
ENDBRANCH  12  17
BRANCH   2  25
ATOM     25  C   UNL     1      -4.514   0.748  24.921  0.00  0.00    +0.199 A 
ATOM     26  C   UNL     1      -4.586   0.414  24.171  0.00  0.00    +0.045 A 
ATOM     27  C   UNL     1      -3.937  -0.080  24.049  0.00  0.00    +0.044 A 
ATOM     28  C   UNL     1      -3.465  -0.052  24.724  0.00  0.00    +0.180 A 
ATOM     29  O   UNL     1      -3.822   0.460  25.264  0.00  0.00    -0.446 OA
ENDBRANCH   2  25
TORSDOF 3
ENDMDL
MODEL 4
REMARK VINA RESULT:     -15.2      2.992      4.406
REMARK  Name = 
REMARK  3 active torsions:
REMARK  status: ('A' for Active; 'I' for Inactive)
REMARK    1  A    between atoms: C_2  and  C_25
REMARK    2  A    between atoms: C_12  and  C_17
REMARK    3  A    between atoms: C_21  and  C_23
REMARK                            x       y       z     vdW  Elec       q    Type
REMARK                         _______ _______ _______ _____ _____    ______ ____
ROOT
ATOM      1  O   UNL     1      -3.544   1.636  23.419  0.00  0.00    -0.267 OA
ATOM      2  C   UNL     1      -3.613   2.191  24.096  0.00  0.00    +0.284 C 
ATOM      3  N   UNL     1      -4.390   2.250  24.439  0.00  0.00    -0.273 N 
ATOM      4  C   UNL     1      -5.191   2.014  24.442  0.00  0.00    +0.096 C 
ATOM      5  C   UNL     1      -5.521   2.558  25.199  0.00  0.00    +0.043 C 
ATOM      6  C   UNL     1      -5.942   2.932  25.787  0.00  0.00    +0.011 C 
ATOM      7  C   UNL     1      -5.283   2.924  25.546  0.00  0.00    +0.058 C 
ATOM      8  C   UNL     1      -4.979   2.392  24.813  0.00  0.00    +0.100 C 
ATOM      9  C   UNL     1      -4.456   3.296  25.695  0.00  0.00    +0.041 A 
ATOM     10  C   UNL     1      -4.075   3.832  26.192  0.00  0.00    +0.013 A 
ATOM     11  C   UNL     1      -3.271   3.987  26.093  0.00  0.00    +0.006 A 
ATOM     12  C   UNL     1      -2.848   3.606  25.496  0.00  0.00    +0.056 A 
ATOM     13  C   UNL     1      -3.229   3.070  24.998  0.00  0.00    +0.261 A 
ATOM     14  O   UNL     1      -2.933   2.485  24.205  0.00  0.00    -0.267 OA
ATOM     15  N   UNL     1      -4.033   2.915  25.097  0.00  0.00    -0.299 N 
ATOM     16  C   UNL     1      -4.653   2.942  25.346  0.00  0.00    +0.110 C 
ENDROOT
BRANCH  12  17
ATOM     17  C   UNL     1      -2.044   3.762  25.397  0.00  0.00    +0.005 A 
ATOM     18  C   UNL     1      -1.802   4.416  24.956  0.00  0.00    +0.000 A 
ATOM     19  C   UNL     1      -0.998   4.573  24.857  0.00  0.00    +0.001 A 
ATOM     20  C   UNL     1      -0.436   4.075  25.199  0.00  0.00    +0.010 A 
ATOM     21  C   UNL     1      -0.677   3.420  25.639  0.00  0.00    +0.068 A 
ATOM     22  C   UNL     1      -1.482   3.264  25.739  0.00  0.00    +0.010 A 
BRANCH  21  23
ATOM     23  C   UNL     1      -0.063   2.921  25.983  0.00  0.00    +0.100 C 
ATOM     24  N   UNL     1       0.567   2.488  26.330  0.00  0.00    -0.191 NA
ENDBRANCH  21  23
ENDBRANCH  12  17
BRANCH   2  25
ATOM     25  C   UNL     1      -3.073   2.783  24.604  0.00  0.00    +0.199 A 
ATOM     26  C   UNL     1      -2.703   2.687  25.335  0.00  0.00    +0.045 A 
ATOM     27  C   UNL     1      -2.304   3.386  25.512  0.00  0.00    +0.044 A 
ATOM     28  C   UNL     1      -2.428   3.915  24.891  0.00  0.00    +0.180 A 
ATOM     29  O   UNL     1      -2.904   3.541  24.329  0.00  0.00    -0.446 OA
ENDBRANCH   2  25
TORSDOF 3
ENDMDL
MODEL 5
REMARK VINA RESULT:     -14.4      1.740      3.763
REMARK  Name = 
REMARK  3 active torsions:
REMARK  status: ('A' for Active; 'I' for Inactive)
REMARK    1  A    between atoms: C_2  and  C_25
REMARK    2  A    between atoms: C_12  and  C_17
REMARK    3  A    between atoms: C_21  and  C_23
REMARK                            x       y       z     vdW  Elec       q    Type
REMARK                         _______ _______ _______ _____ _____    ______ ____
ROOT
ATOM      1  O   UNL     1      -3.315   3.882  25.419  0.00  0.00    -0.267 OA
ATOM      2  C   UNL     1      -3.585   3.080  25.188  0.00  0.00    +0.284 C 
ATOM      3  N   UNL     1      -4.419   2.936  25.283  0.00  0.00    -0.273 N 
ATOM      4  C   UNL     1      -5.172   3.215  25.510  0.00  0.00    +0.096 C 
ATOM      5  C   UNL     1      -5.711   2.408  25.324  0.00  0.00    +0.043 C 
ATOM      6  C   UNL     1      -6.285   1.838  25.226  0.00  0.00    +0.011 C 
ATOM      7  C   UNL     1      -5.593   1.900  25.128  0.00  0.00    +0.058 C 
ATOM      8  C   UNL     1      -5.086   2.688  25.313  0.00  0.00    +0.100 C 
ATOM      9  C   UNL     1      -4.861   1.426  24.837  0.00  0.00    +0.041 A 
ATOM     10  C   UNL     1      -4.654   0.683  24.543  0.00  0.00    +0.013 A 
ATOM     11  C   UNL     1      -3.869   0.520  24.351  0.00  0.00    +0.006 A 
ATOM     12  C   UNL     1      -3.291   1.100  24.451  0.00  0.00    +0.056 A 
ATOM     13  C   UNL     1      -3.497   1.843  24.744  0.00  0.00    +0.261 A 
ATOM     14  O   UNL     1      -2.979   2.706  24.954  0.00  0.00    -0.267 OA
ATOM     15  N   UNL     1      -4.283   2.006  24.937  0.00  0.00    -0.299 N 
ATOM     16  C   UNL     1      -4.941   1.921  25.022  0.00  0.00    +0.110 C 
ENDROOT
BRANCH  12  17
ATOM     17  C   UNL     1      -2.506   0.936  24.258  0.00  0.00    +0.005 A 
ATOM     18  C   UNL     1      -2.121   1.384  23.681  0.00  0.00    +0.000 A 
ATOM     19  C   UNL     1      -1.336   1.220  23.487  0.00  0.00    +0.001 A 
ATOM     20  C   UNL     1      -0.935   0.610  23.871  0.00  0.00    +0.010 A 
ATOM     21  C   UNL     1      -1.319   0.162  24.448  0.00  0.00    +0.068 A 
ATOM     22  C   UNL     1      -2.105   0.326  24.642  0.00  0.00    +0.010 A 
BRANCH  21  23
ATOM     23  C   UNL     1      -0.870  -0.468  24.830  0.00  0.00    +0.100 C 
ATOM     24  N   UNL     1      -0.449  -1.119  25.151  0.00  0.00    -0.191 NA
ENDBRANCH  21  23
ENDBRANCH  12  17
BRANCH   2  25
ATOM     25  C   UNL     1      -3.232   2.268  24.846  0.00  0.00    +0.199 A 
ATOM     26  C   UNL     1      -3.210   1.968  24.078  0.00  0.00    +0.045 A 
ATOM     27  C   UNL     1      -2.835   1.234  24.102  0.00  0.00    +0.044 A 
ATOM     28  C   UNL     1      -2.625   1.081  24.885  0.00  0.00    +0.180 A 
ATOM     29  O   UNL     1      -2.871   1.721  25.346  0.00  0.00    -0.446 OA
ENDBRANCH   2  25
TORSDOF 3
ENDMDL
