MODEL 1
REMARK VINA RESULT:     -12.7      0.000      0.000
REMARK  Name = 
REMARK  4 active torsions:
REMARK  status: ('A' for Active; 'I' for Inactive)
REMARK    1  A    between atoms: C_4  and  N_18
REMARK    2  A    between atoms: C_6  and  C_7
REMARK    3  A    between atoms: C_9  and  C_12
REMARK    4  A    between atoms: C_19  and  C_21
REMARK                            x       y       z     vdW  Elec       q    Type
REMARK                         _______ _______ _______ _____ _____    ______ ____
ROOT
ATOM      1  C   UNL     1      -5.297   2.651  24.674  0.00  0.00    +0.090 C 
ATOM      2  N   UNL     1      -4.811   2.010  24.857  0.00  0.00    -0.264 NA
ATOM      3  C   UNL     1      -5.002   1.213  24.758  0.00  0.00    +0.094 C 
ATOM      4  C   UNL     1      -4.358   0.764  25.012  0.00  0.00    +0.113 C 
ATOM      5  C   UNL     1      -3.770   1.283  25.268  0.00  0.00    +0.049 C 
ATOM      6  C   UNL     1      -4.050   2.052  25.173  0.00  0.00    +0.139 C 
ENDROOT
BRANCH   6   7
ATOM      7  C   UNL     1      -3.641   2.743  25.360  0.00  0.00    +0.251 A 
ATOM      8  N   UNL     1      -2.916   2.979  25.043  0.00  0.00    -0.190 NA
ATOM      9  C   UNL     1      -2.712   3.702  25.384  0.00  0.00    +0.205 A 
ATOM     10  N   UNL     1      -3.310   3.913  25.912  0.00  0.00    -0.056 NA
ATOM     11  O   UNL     1      -3.884   3.321  25.897  0.00  0.00    -0.336 OA
BRANCH   9  12
ATOM     12  C   UNL     1      -2.028   4.137  25.225  0.00  0.00    +0.058 A 
ATOM     13  C   UNL     1      -2.062   4.961  25.199  0.00  0.00    +0.006 A 
ATOM     14  C   UNL     1      -1.379   5.396  25.041  0.00  0.00    +0.021 A 
ATOM     15  C   UNL     1      -0.663   5.007  24.908  0.00  0.00    +0.099 A 
ATOM     16  N   UNL     1      -0.631   4.183  24.935  0.00  0.00    -0.242 NA
ATOM     17  C   UNL     1      -1.313   3.748  25.093  0.00  0.00    +0.102 A 
ENDBRANCH   9  12
ENDBRANCH   6   7
BRANCH   4  18
ATOM     18  N   UNL     1      -4.311  -0.060  25.009  0.00  0.00    -0.206 NA
ATOM     19  C   UNL     1      -3.899  -0.448  24.409  0.00  0.00    +0.241 C 
ATOM     20  O   UNL     1      -3.534  -0.012  23.811  0.00  0.00    -0.273 OA
BRANCH  19  21
ATOM     21  C   UNL     1      -3.851  -1.272  24.406  0.00  0.00    +0.078 C 
ATOM     22  C   UNL     1      -4.266  -1.707  23.842  0.00  0.00    +0.009 C 
ATOM     23  C   UNL     1      -4.219  -2.530  23.840  0.00  0.00    +0.000 C 
ATOM     24  C   UNL     1      -3.756  -2.919  24.401  0.00  0.00    +0.000 C 
ATOM     25  C   UNL     1      -3.341  -2.483  24.966  0.00  0.00    +0.000 C 
ATOM     26  C   UNL     1      -3.388  -1.660  24.969  0.00  0.00    +0.009 C 
ENDBRANCH  19  21
ENDBRANCH   4  18
TORSDOF 4
ENDMDL
MODEL 2
REMARK VINA RESULT:     -12.2      0.867      5.453
REMARK  Name = 
REMARK  4 active torsions:
REMARK  status: ('A' for Active; 'I' for Inactive)
REMARK    1  A    between atoms: C_4  and  N_18
REMARK    2  A    between atoms: C_6  and  C_7
REMARK    3  A    between atoms: C_9  and  C_12
REMARK    4  A    between atoms: C_19  and  C_21
REMARK                            x       y       z     vdW  Elec       q    Type
REMARK                         _______ _______ _______ _____ _____    ______ ____
ROOT
ATOM      1  C   UNL     1      -5.372   2.067  24.694  0.00  0.00    +0.090 C 
ATOM      2  N   UNL     1      -4.554   2.177  24.682  0.00  0.00    -0.264 NA
ATOM      3  C   UNL     1      -4.163   2.891  24.552  0.00  0.00    +0.094 C 
ATOM      4  C   UNL     1      -3.352   2.747  24.588  0.00  0.00    +0.113 C 
ATOM      5  C   UNL     1      -3.242   1.944  24.741  0.00  0.00    +0.049 C 
ATOM      6  C   UNL     1      -3.985   1.591  24.799  0.00  0.00    +0.139 C 
ENDROOT
BRANCH   6   7
ATOM      7  C   UNL     1      -4.133   0.794  24.948  0.00  0.00    +0.251 A 
ATOM      8  N   UNL     1      -3.821   0.155  24.528  0.00  0.00    -0.190 NA
ATOM      9  C   UNL     1      -4.114  -0.538  24.863  0.00  0.00    +0.205 A 
ATOM     10  N   UNL     1      -4.607  -0.330  25.491  0.00  0.00    -0.056 NA
ATOM     11  O   UNL     1      -4.619   0.493  25.544  0.00  0.00    -0.336 OA
BRANCH   9  12
ATOM     12  C   UNL     1      -3.944  -1.307  24.615  0.00  0.00    +0.058 A 
ATOM     13  C   UNL     1      -3.387  -1.758  25.023  0.00  0.00    +0.006 A 
ATOM     14  C   UNL     1      -3.217  -2.527  24.774  0.00  0.00    +0.021 A 
ATOM     15  C   UNL     1      -3.604  -2.843  24.118  0.00  0.00    +0.099 A 
ATOM     16  N   UNL     1      -4.161  -2.391  23.710  0.00  0.00    -0.242 NA
ATOM     17  C   UNL     1      -4.331  -1.623  23.958  0.00  0.00    +0.102 A 
ENDBRANCH   9  12
ENDBRANCH   6   7
BRANCH   4  18
ATOM     18  N   UNL     1      -2.754   3.308  24.489  0.00  0.00    -0.206 NA
ATOM     19  C   UNL     1      -2.380   3.633  25.149  0.00  0.00    +0.241 C 
ATOM     20  O   UNL     1      -2.603   3.397  25.907  0.00  0.00    -0.273 OA
BRANCH  19  21
ATOM     21  C   UNL     1      -1.783   4.193  25.050  0.00  0.00    +0.078 C 
ATOM     22  C   UNL     1      -1.021   3.953  24.846  0.00  0.00    +0.009 C 
ATOM     23  C   UNL     1      -0.424   4.514  24.748  0.00  0.00    +0.000 C 
ATOM     24  C   UNL     1      -0.589   5.316  24.853  0.00  0.00    +0.000 C 
ATOM     25  C   UNL     1      -1.352   5.556  25.057  0.00  0.00    +0.000 C 
ATOM     26  C   UNL     1      -1.949   4.995  25.156  0.00  0.00    +0.009 C 
ENDBRANCH  19  21
ENDBRANCH   4  18
TORSDOF 4
ENDMDL
MODEL 3
REMARK VINA RESULT:     -11.8      1.947      2.527
REMARK  Name = 
REMARK  4 active torsions:
REMARK  status: ('A' for Active; 'I' for Inactive)
REMARK    1  A    between atoms: C_4  and  N_18
REMARK    2  A    between atoms: C_6  and  C_7
REMARK    3  A    between atoms: C_9  and  C_12
REMARK    4  A    between atoms: C_19  and  C_21
REMARK                            x       y       z     vdW  Elec       q    Type
REMARK                         _______ _______ _______ _____ _____    ______ ____
ROOT
ATOM      1  C   UNL     1       0.323   0.917  24.100  0.00  0.00    +0.090 C 
ATOM      2  N   UNL     1      -0.365   0.599  24.425  0.00  0.00    -0.264 NA
ATOM      3  C   UNL     1      -0.666  -0.156  24.281  0.00  0.00    +0.094 C 
ATOM      4  C   UNL     1      -1.359  -0.242  24.719  0.00  0.00    +0.113 C 
ATOM      5  C   UNL     1      -1.488   0.460  25.133  0.00  0.00    +0.049 C 
ATOM      6  C   UNL     1      -0.874   0.979  24.952  0.00  0.00    +0.139 C 
ENDROOT
BRANCH   6   7
ATOM      7  C   UNL     1      -0.784   1.745  25.246  0.00  0.00    +0.251 A 
ATOM      8  N   UNL     1      -1.187   2.416  24.983  0.00  0.00    -0.190 NA
ATOM      9  C   UNL     1      -0.927   3.059  25.428  0.00  0.00    +0.205 A 
ATOM     10  N   UNL     1      -0.363   2.787  25.966  0.00  0.00    -0.056 NA
ATOM     11  O   UNL     1      -0.275   1.975  25.853  0.00  0.00    -0.336 OA
BRANCH   9  12
ATOM     12  C   UNL     1      -1.186   3.839  25.350  0.00  0.00    +0.058 A 
ATOM     13  C   UNL     1      -0.697   4.402  24.996  0.00  0.00    +0.006 A 
ATOM     14  C   UNL     1      -0.955   5.181  24.917  0.00  0.00    +0.021 A 
ATOM     15  C   UNL     1      -1.702   5.398  25.193  0.00  0.00    +0.099 A 
ATOM     16  N   UNL     1      -2.190   4.835  25.547  0.00  0.00    -0.242 NA
ATOM     17  C   UNL     1      -1.932   4.056  25.625  0.00  0.00    +0.102 A 
ENDBRANCH   9  12
ENDBRANCH   6   7
BRANCH   4  18
ATOM     18  N   UNL     1      -1.841  -0.912  24.738  0.00  0.00    -0.206 NA
ATOM     19  C   UNL     1      -2.575  -0.904  24.360  0.00  0.00    +0.241 C 
ATOM     20  O   UNL     1      -2.826  -0.226  23.963  0.00  0.00    -0.273 OA
BRANCH  19  21
ATOM     21  C   UNL     1      -3.056  -1.574  24.379  0.00  0.00    +0.078 C 
ATOM     22  C   UNL     1      -3.778  -1.574  23.982  0.00  0.00    +0.009 C 
ATOM     23  C   UNL     1      -4.260  -2.243  24.001  0.00  0.00    +0.000 C 
ATOM     24  C   UNL     1      -4.019  -2.913  24.418  0.00  0.00    +0.000 C 
ATOM     25  C   UNL     1      -3.295  -2.913  24.816  0.00  0.00    +0.000 C 
ATOM     26  C   UNL     1      -2.814  -2.244  24.797  0.00  0.00    +0.009 C 
ENDBRANCH  19  21
ENDBRANCH   4  18
TORSDOF 4
ENDMDL
MODEL 4
REMARK VINA RESULT:     -11.7      1.945      5.905
REMARK  Name = 
REMARK  4 active torsions:
REMARK  status: ('A' for Active; 'I' for Inactive)
REMARK    1  A    between atoms: C_4  and  N_18
REMARK    2  A    between atoms: C_6  and  C_7
REMARK    3  A    between atoms: C_9  and  C_12
REMARK    4  A    between atoms: C_19  and  C_21
REMARK                            x       y       z     vdW  Elec       q    Type
REMARK                         _______ _______ _______ _____ _____    ______ ____
ROOT
ATOM      1  C   UNL     1      -0.108  -0.123  24.316  0.00  0.00    +0.090 C 
ATOM      2  N   UNL     1      -0.545   0.490  24.653  0.00  0.00    -0.264 NA
ATOM      3  C   UNL     1      -0.324   1.285  24.680  0.00  0.00    +0.094 C 
ATOM      4  C   UNL     1      -0.922   1.702  25.066  0.00  0.00    +0.113 C 
ATOM      5  C   UNL     1      -1.511   1.165  25.278  0.00  0.00    +0.049 C 
ATOM      6  C   UNL     1      -1.279   0.417  25.024  0.00  0.00    +0.139 C 
ENDROOT
BRANCH   6   7
ATOM      7  C   UNL     1      -1.705  -0.283  25.121  0.00  0.00    +0.251 A 
ATOM      8  N   UNL     1      -2.277  -0.578  24.605  0.00  0.00    -0.190 NA
ATOM      9  C   UNL     1      -2.559  -1.288  24.916  0.00  0.00    +0.205 A 
ATOM     10  N   UNL     1      -2.162  -1.431  25.625  0.00  0.00    -0.056 NA
ATOM     11  O   UNL     1      -1.634  -0.810  25.752  0.00  0.00    -0.336 OA
BRANCH   9  12
ATOM     12  C   UNL     1      -3.137  -1.770  24.578  0.00  0.00    +0.058 A 
ATOM     13  C   UNL     1      -3.800  -1.431  24.222  0.00  0.00    +0.006 A 
ATOM     14  C   UNL     1      -4.378  -1.913  23.884  0.00  0.00    +0.021 A 
ATOM     15  C   UNL     1      -4.294  -2.733  23.903  0.00  0.00    +0.099 A 
ATOM     16  N   UNL     1      -3.631  -3.072  24.259  0.00  0.00    -0.242 NA
ATOM     17  C   UNL     1      -3.053  -2.590  24.597  0.00  0.00    +0.102 A 
ENDBRANCH   9  12
ENDBRANCH   6   7
BRANCH   4  18
ATOM     18  N   UNL     1      -0.928   2.514  25.215  0.00  0.00    -0.206 NA
ATOM     19  C   UNL     1      -1.309   3.026  24.691  0.00  0.00    +0.241 C 
ATOM     20  O   UNL     1      -1.682   2.725  24.019  0.00  0.00    -0.273 OA
BRANCH  19  21
ATOM     21  C   UNL     1      -1.316   3.837  24.838  0.00  0.00    +0.078 C 
ATOM     22  C   UNL     1      -0.667   4.301  24.627  0.00  0.00    +0.009 C 
ATOM     23  C   UNL     1      -0.674   5.112  24.775  0.00  0.00    +0.000 C 
ATOM     24  C   UNL     1      -1.330   5.461  25.134  0.00  0.00    +0.000 C 
ATOM     25  C   UNL     1      -1.979   4.997  25.346  0.00  0.00    +0.000 C 
ATOM     26  C   UNL     1      -1.972   4.185  25.198  0.00  0.00    +0.009 C 
ENDBRANCH  19  21
ENDBRANCH   4  18
TORSDOF 4
ENDMDL
