MODEL 1
REMARK VINA RESULT:     -15.0      0.000      0.000
REMARK  Name = 
REMARK  3 active torsions:
REMARK  status: ('A' for Active; 'I' for Inactive)
REMARK    1  A    between atoms: O_2  and  C_3
REMARK    2  A    between atoms: C_6  and  C_9
REMARK    3  A    between atoms: C_17  and  C_19
REMARK                            x       y       z     vdW  Elec       q    Type
REMARK                         _______ _______ _______ _____ _____    ______ ____
ROOT
ATOM      9  C   UNL     1      -3.283   2.138  25.013  0.00  0.00    +0.012 A 
ATOM     10  C   UNL     1      -2.802   1.480  24.887  0.00  0.00    +0.041 A 
ATOM     11  C   UNL     1      -1.916   1.251  24.796  0.00  0.00    +0.058 C 
ATOM     12  C   UNL     1      -1.273   1.531  24.795  0.00  0.00    +0.011 C 
ATOM     13  C   UNL     1      -1.609   0.794  24.710  0.00  0.00    +0.043 C 
ATOM     14  C   UNL     1      -1.822  -0.163  24.586  0.00  0.00    +0.095 C 
ATOM     15  N   UNL     1      -2.654  -0.130  24.644  0.00  0.00    -0.279 N 
ATOM     16  C   UNL     1      -2.106   0.323  24.674  0.00  0.00    +0.099 C 
ATOM     17  C   UNL     1      -3.436  -0.394  24.656  0.00  0.00    +0.225 C 
ATOM     18  O   UNL     1      -4.052   0.143  24.774  0.00  0.00    -0.275 OA
ATOM     25  C   UNL     1      -2.536   1.024  24.804  0.00  0.00    +0.110 C 
ATOM     26  N   UNL     1      -3.139   0.732  24.800  0.00  0.00    -0.299 N 
ATOM     27  C   UNL     1      -3.958   0.642  24.840  0.00  0.00    +0.261 A 
ATOM     28  O   UNL     1      -4.510   0.031  24.787  0.00  0.00    -0.267 OA
ATOM     29  C   UNL     1      -4.440   1.299  24.966  0.00  0.00    +0.061 A 
ATOM     30  C   UNL     1      -4.102   2.047  25.052  0.00  0.00    +0.006 A 
ENDROOT
BRANCH   9   6
ATOM      3  C   UNL     1      -2.272   4.382  25.272  0.00  0.00    +0.139 A 
ATOM      4  C   UNL     1      -2.394   3.906  25.934  0.00  0.00    +0.037 A 
ATOM      5  C   UNL     1      -2.731   3.158  25.848  0.00  0.00    +0.003 A 
ATOM      6  C   UNL     1      -2.946   2.886  25.099  0.00  0.00    +0.001 A 
ATOM      7  C   UNL     1      -2.824   3.362  24.437  0.00  0.00    +0.003 A 
ATOM      8  C   UNL     1      -2.486   4.110  24.524  0.00  0.00    +0.037 A 
BRANCH   3   2
ATOM      1  C   UNL     1      -1.196   5.291  25.027  0.00  0.00    +0.252 C 
ATOM      2  O   UNL     1      -1.935   5.129  25.359  0.00  0.00    -0.471 OA
ENDBRANCH   3   2
ENDBRANCH   9   6
BRANCH  17  19
ATOM     19  C   UNL     1      -3.602  -1.195  24.551  0.00  0.00    +0.077 C 
ATOM     20  C   UNL     1      -3.438  -1.734  25.154  0.00  0.00    +0.009 C 
ATOM     21  C   UNL     1      -3.605  -2.535  25.049  0.00  0.00    +0.000 C 
ATOM     22  C   UNL     1      -3.935  -2.798  24.340  0.00  0.00    +0.000 C 
ATOM     23  C   UNL     1      -4.099  -2.260  23.737  0.00  0.00    +0.000 C 
ATOM     24  C   UNL     1      -3.933  -1.459  23.842  0.00  0.00    +0.009 C 
ENDBRANCH  17  19
TORSDOF 3
ENDMDL
MODEL 2
REMARK VINA RESULT:     -14.7      1.350      4.855
REMARK  Name = 
REMARK  3 active torsions:
REMARK  status: ('A' for Active; 'I' for Inactive)
REMARK    1  A    between atoms: O_2  and  C_3
REMARK    2  A    between atoms: C_6  and  C_9
REMARK    3  A    between atoms: C_17  and  C_19
REMARK                            x       y       z     vdW  Elec       q    Type
REMARK                         _______ _______ _______ _____ _____    ______ ____
ROOT
ATOM      9  C   UNL     1      -2.108   0.052  25.221  0.00  0.00    +0.012 A 
ATOM     10  C   UNL     1      -2.454   0.723  24.888  0.00  0.00    +0.041 A 
ATOM     11  C   UNL     1      -3.182   0.976  24.387  0.00  0.00    +0.058 C 
ATOM     12  C   UNL     1      -3.752   0.714  24.072  0.00  0.00    +0.011 C 
ATOM     13  C   UNL     1      -3.399   1.442  24.171  0.00  0.00    +0.043 C 
ATOM     14  C   UNL     1      -3.130   2.393  24.178  0.00  0.00    +0.095 C 
ATOM     15  N   UNL     1      -2.429   2.337  24.629  0.00  0.00    -0.279 N 
ATOM     16  C   UNL     1      -2.935   1.899  24.385  0.00  0.00    +0.099 C 
ATOM     17  C   UNL     1      -1.743   2.579  25.019  0.00  0.00    +0.225 C 
ATOM     18  O   UNL     1      -1.273   2.025  25.410  0.00  0.00    -0.275 OA
ATOM     25  C   UNL     1      -2.636   1.186  24.694  0.00  0.00    +0.110 C 
ATOM     26  N   UNL     1      -2.100   1.461  24.985  0.00  0.00    -0.299 N 
ATOM     27  C   UNL     1      -1.399   1.529  25.415  0.00  0.00    +0.261 A 
ATOM     28  O   UNL     1      -0.875   2.124  25.643  0.00  0.00    -0.267 OA
ATOM     29  C   UNL     1      -1.053   0.858  25.748  0.00  0.00    +0.061 A 
ATOM     30  C   UNL     1      -1.407   0.120  25.650  0.00  0.00    +0.006 A 
ENDROOT
BRANCH   9   6
ATOM      3  C   UNL     1      -3.173  -2.164  24.929  0.00  0.00    +0.139 A 
ATOM      4  C   UNL     1      -2.589  -1.914  24.402  0.00  0.00    +0.037 A 
ATOM      5  C   UNL     1      -2.234  -1.176  24.499  0.00  0.00    +0.003 A 
ATOM      6  C   UNL     1      -2.463  -0.687  25.123  0.00  0.00    +0.001 A 
ATOM      7  C   UNL     1      -3.047  -0.937  25.650  0.00  0.00    +0.003 A 
ATOM      8  C   UNL     1      -3.401  -1.675  25.553  0.00  0.00    +0.037 A 
BRANCH   3   2
ATOM      1  C   UNL     1      -3.960  -3.065  24.148  0.00  0.00    +0.252 C 
ATOM      2  O   UNL     1      -3.527  -2.902  24.831  0.00  0.00    -0.471 OA
ENDBRANCH   3   2
ENDBRANCH   9   6
BRANCH  17  19
ATOM     19  C   UNL     1      -1.529   3.375  25.018  0.00  0.00    +0.077 C 
ATOM     20  C   UNL     1      -0.921   3.639  24.526  0.00  0.00    +0.009 C 
ATOM     21  C   UNL     1      -0.706   4.436  24.526  0.00  0.00    +0.000 C 
ATOM     22  C   UNL     1      -1.099   4.969  25.018  0.00  0.00    +0.000 C 
ATOM     23  C   UNL     1      -1.706   4.706  25.510  0.00  0.00    +0.000 C 
ATOM     24  C   UNL     1      -1.921   3.909  25.510  0.00  0.00    +0.009 C 
ENDBRANCH  17  19
TORSDOF 3
ENDMDL
