MODEL 1
REMARK VINA RESULT:     -15.7      0.000      0.000
REMARK  Name = 
REMARK  4 active torsions:
REMARK  status: ('A' for Active; 'I' for Inactive)
REMARK    1  A    between atoms: O_2  and  C_3
REMARK    2  A    between atoms: C_8  and  N_9
REMARK    3  A    between atoms: C_19  and  C_20
REMARK    4  A    between atoms: C_21  and  C_22
REMARK                            x       y       z     vdW  Elec       q    Type
REMARK                         _______ _______ _______ _____ _____    ______ ____
ROOT
ATOM      9  N   UNL     1      -3.799   3.289  25.120  0.00  0.00    -0.159 NA
ATOM     10  C   UNL     1      -4.533   3.631  25.283  0.00  0.00    +0.328 C 
ATOM     11  O   UNL     1      -4.591   4.445  25.403  0.00  0.00    -0.250 OA
ATOM     12  N   UNL     1      -5.209   3.159  25.324  0.00  0.00    -0.262 N 
ATOM     13  C   UNL     1      -6.013   2.957  25.424  0.00  0.00    +0.097 C 
ATOM     14  C   UNL     1      -5.958   1.981  25.282  0.00  0.00    +0.043 C 
ATOM     15  C   UNL     1      -6.080   1.180  25.192  0.00  0.00    +0.011 C 
ATOM     16  C   UNL     1      -5.540   1.629  25.168  0.00  0.00    +0.058 C 
ATOM     17  C   UNL     1      -5.610   2.571  25.308  0.00  0.00    +0.101 C 
ATOM     18  C   UNL     1      -4.632   1.657  25.029  0.00  0.00    +0.041 A 
ATOM     19  C   UNL     1      -3.994   1.162  24.861  0.00  0.00    +0.012 A 
ATOM     29  C   UNL     1      -3.236   1.479  24.785  0.00  0.00    +0.006 A 
ATOM     30  C   UNL     1      -3.116   2.290  24.877  0.00  0.00    +0.061 A 
ATOM     31  C   UNL     1      -3.754   2.785  25.045  0.00  0.00    +0.261 A 
ATOM     32  O   UNL     1      -3.184   3.380  25.036  0.00  0.00    -0.267 OA
ATOM     33  N   UNL     1      -4.512   2.469  25.121  0.00  0.00    -0.299 N 
ATOM     34  C   UNL     1      -5.009   2.020  25.138  0.00  0.00    +0.110 C 
ENDROOT
BRANCH   9   8
ATOM      3  C   UNL     1      -2.755   4.014  25.772  0.00  0.00    +0.154 A 
ATOM      4  C   UNL     1      -2.080   4.487  25.731  0.00  0.00    +0.038 A 
ATOM      5  C   UNL     1      -1.775   4.707  24.997  0.00  0.00    +0.003 A 
ATOM      6  C   UNL     1      -2.144   4.454  24.303  0.00  0.00    +0.002 A 
ATOM      7  C   UNL     1      -2.819   3.981  24.345  0.00  0.00    +0.020 A 
ATOM      8  C   UNL     1      -3.125   3.761  25.079  0.00  0.00    +0.109 A 
BRANCH   3   2
ATOM      1  C   UNL     1      -2.706   4.067  27.199  0.00  0.00    +0.253 C 
ATOM      2  O   UNL     1      -3.060   3.795  26.506  0.00  0.00    -0.470 OA
ENDBRANCH   3   2
ENDBRANCH   9   8
BRANCH  19  20
ATOM     20  C   UNL     1      -4.114   0.351  24.769  0.00  0.00    +0.001 C 
ATOM     21  C   UNL     1      -3.473  -0.146  24.622  0.00  0.00    +0.000 C 
BRANCH  21  22
ATOM     22  C   UNL     1      -3.593  -0.958  24.530  0.00  0.00    +0.000 A 
ATOM     23  C   UNL     1      -3.964  -1.245  23.852  0.00  0.00    +0.001 A 
ATOM     24  C   UNL     1      -4.084  -2.057  23.760  0.00  0.00    +0.011 A 
ATOM     25  C   UNL     1      -3.833  -2.580  24.346  0.00  0.00    +0.058 A 
ATOM     26 CL   UNL     1      -3.953  -3.390  24.255  0.00  0.00    -0.082 Cl
ATOM     27  C   UNL     1      -3.462  -2.291  25.025  0.00  0.00    +0.011 A 
ATOM     28  C   UNL     1      -3.342  -1.481  25.116  0.00  0.00    +0.001 A 
ENDBRANCH  21  22
ENDBRANCH  19  20
TORSDOF 4
ENDMDL
MODEL 2
REMARK VINA RESULT:     -14.4      1.161      2.256
REMARK  Name = 
REMARK  4 active torsions:
REMARK  status: ('A' for Active; 'I' for Inactive)
REMARK    1  A    between atoms: O_2  and  C_3
REMARK    2  A    between atoms: C_8  and  N_9
REMARK    3  A    between atoms: C_19  and  C_20
REMARK    4  A    between atoms: C_21  and  C_22
REMARK                            x       y       z     vdW  Elec       q    Type
REMARK                         _______ _______ _______ _____ _____    ______ ____
ROOT
ATOM      9  N   UNL     1      -4.050   2.868  24.466  0.00  0.00    -0.159 NA
ATOM     10  C   UNL     1      -3.635   3.265  23.873  0.00  0.00    +0.328 C 
ATOM     11  O   UNL     1      -3.665   4.088  23.830  0.00  0.00    -0.250 OA
ATOM     12  N   UNL     1      -3.189   2.839  23.325  0.00  0.00    -0.262 N 
ATOM     13  C   UNL     1      -2.688   2.694  22.672  0.00  0.00    +0.097 C 
ATOM     14  C   UNL     1      -2.643   1.708  22.714  0.00  0.00    +0.043 C 
ATOM     15  C   UNL     1      -2.506   0.911  22.612  0.00  0.00    +0.011 C 
ATOM     16  C   UNL     1      -2.867   1.323  23.050  0.00  0.00    +0.058 C 
ATOM     17  C   UNL     1      -2.900   2.276  22.997  0.00  0.00    +0.101 C 
ATOM     18  C   UNL     1      -3.417   1.286  23.785  0.00  0.00    +0.041 A 
ATOM     19  C   UNL     1      -3.763   0.742  24.300  0.00  0.00    +0.012 A 
ATOM     29  C   UNL     1      -4.245   1.006  24.915  0.00  0.00    +0.006 A 
ATOM     30  C   UNL     1      -4.382   1.813  25.015  0.00  0.00    +0.061 A 
ATOM     31  C   UNL     1      -4.037   2.357  24.501  0.00  0.00    +0.261 A 
ATOM     32  O   UNL     1      -4.429   2.915  24.965  0.00  0.00    -0.267 OA
ATOM     33  N   UNL     1      -3.554   2.094  23.886  0.00  0.00    -0.299 N 
ATOM     34  C   UNL     1      -3.219   1.679  23.482  0.00  0.00    +0.110 C 
ENDROOT
BRANCH   9   8
ATOM      3  C   UNL     1      -4.119   3.672  25.644  0.00  0.00    +0.154 A 
ATOM      4  C   UNL     1      -4.564   4.099  26.193  0.00  0.00    +0.038 A 
ATOM      5  C   UNL     1      -5.383   4.148  26.112  0.00  0.00    +0.003 A 
ATOM      6  C   UNL     1      -5.758   3.770  25.481  0.00  0.00    +0.002 A 
ATOM      7  C   UNL     1      -5.314   3.343  24.933  0.00  0.00    +0.020 A 
ATOM      8  C   UNL     1      -4.495   3.294  25.014  0.00  0.00    +0.109 A 
BRANCH   3   2
ATOM      1  C   UNL     1      -2.922   4.023  26.341  0.00  0.00    +0.253 C 
ATOM      2  O   UNL     1      -3.300   3.624  25.726  0.00  0.00    -0.470 OA
ENDBRANCH   3   2
ENDBRANCH   9   8
BRANCH  19  20
ATOM     20  C   UNL     1      -3.625  -0.065  24.200  0.00  0.00    +0.001 C 
ATOM     21  C   UNL     1      -4.018  -0.612  24.676  0.00  0.00    +0.000 C 
BRANCH  21  22
ATOM     22  C   UNL     1      -3.881  -1.420  24.576  0.00  0.00    +0.000 A 
ATOM     23  C   UNL     1      -3.356  -1.814  25.075  0.00  0.00    +0.001 A 
ATOM     24  C   UNL     1      -3.219  -2.622  24.975  0.00  0.00    +0.011 A 
ATOM     25  C   UNL     1      -3.606  -3.035  24.375  0.00  0.00    +0.058 A 
ATOM     26 CL   UNL     1      -3.469  -3.841  24.275  0.00  0.00    -0.082 Cl
ATOM     27  C   UNL     1      -4.132  -2.640  23.876  0.00  0.00    +0.011 A 
ATOM     28  C   UNL     1      -4.269  -1.833  23.976  0.00  0.00    +0.001 A 
ENDBRANCH  21  22
ENDBRANCH  19  20
TORSDOF 4
ENDMDL
MODEL 3
REMARK VINA RESULT:     -13.7      1.596      2.855
REMARK  Name = 
REMARK  4 active torsions:
REMARK  status: ('A' for Active; 'I' for Inactive)
REMARK    1  A    between atoms: O_2  and  C_3
REMARK    2  A    between atoms: C_8  and  N_9
REMARK    3  A    between atoms: C_19  and  C_20
REMARK    4  A    between atoms: C_21  and  C_22
REMARK                            x       y       z     vdW  Elec       q    Type
REMARK                         _______ _______ _______ _____ _____    ______ ____
ROOT
ATOM      9  N   UNL     1      -2.065   2.752  25.020  0.00  0.00    -0.159 NA
ATOM     10  C   UNL     1      -1.302   2.923  24.756  0.00  0.00    +0.328 C 
ATOM     11  O   UNL     1      -1.006   3.691  24.819  0.00  0.00    -0.250 OA
ATOM     12  N   UNL     1      -0.835   2.327  24.428  0.00  0.00    -0.262 N 
ATOM     13  C   UNL     1      -0.171   1.962  24.077  0.00  0.00    +0.097 C 
ATOM     14  C   UNL     1      -0.513   1.038  23.995  0.00  0.00    +0.043 C 
ATOM     15  C   UNL     1      -0.643   0.246  23.860  0.00  0.00    +0.011 C 
ATOM     16  C   UNL     1      -0.994   0.790  24.129  0.00  0.00    +0.058 C 
ATOM     17  C   UNL     1      -0.649   1.678  24.201  0.00  0.00    +0.101 C 
ATOM     18  C   UNL     1      -1.803   1.011  24.504  0.00  0.00    +0.041 A 
ATOM     19  C   UNL     1      -2.526   0.673  24.713  0.00  0.00    +0.012 A 
ATOM     29  C   UNL     1      -3.114   1.138  25.058  0.00  0.00    +0.006 A 
ATOM     30  C   UNL     1      -2.979   1.941  25.194  0.00  0.00    +0.061 A 
ATOM     31  C   UNL     1      -2.257   2.279  24.985  0.00  0.00    +0.261 A 
ATOM     32  O   UNL     1      -2.592   2.971  25.282  0.00  0.00    -0.267 OA
ATOM     33  N   UNL     1      -1.669   1.814  24.640  0.00  0.00    -0.299 N 
ATOM     34  C   UNL     1      -1.355   1.279  24.388  0.00  0.00    +0.110 C 
ENDROOT
BRANCH   9   8
ATOM      3  C   UNL     1      -3.027   3.797  24.862  0.00  0.00    +0.154 A 
ATOM      4  C   UNL     1      -3.494   4.394  25.189  0.00  0.00    +0.038 A 
ATOM      5  C   UNL     1      -3.465   4.542  26.000  0.00  0.00    +0.003 A 
ATOM      6  C   UNL     1      -2.969   4.094  26.484  0.00  0.00    +0.002 A 
ATOM      7  C   UNL     1      -2.503   3.498  26.157  0.00  0.00    +0.020 A 
ATOM      8  C   UNL     1      -2.531   3.348  25.347  0.00  0.00    +0.109 A 
BRANCH   3   2
ATOM      1  C   UNL     1      -3.562   4.085  23.569  0.00  0.00    +0.253 C 
ATOM      2  O   UNL     1      -3.056   3.648  24.052  0.00  0.00    -0.470 OA
ENDBRANCH   3   2
ENDBRANCH   9   8
BRANCH  19  20
ATOM     20  C   UNL     1      -2.661  -0.129  24.577  0.00  0.00    +0.001 C 
ATOM     21  C   UNL     1      -3.395  -0.460  24.755  0.00  0.00    +0.000 C 
BRANCH  21  22
ATOM     22  C   UNL     1      -3.530  -1.263  24.619  0.00  0.00    +0.000 A 
ATOM     23  C   UNL     1      -3.951  -1.503  23.952  0.00  0.00    +0.001 A 
ATOM     24  C   UNL     1      -4.085  -2.306  23.816  0.00  0.00    +0.011 A 
ATOM     25  C   UNL     1      -3.800  -2.868  24.348  0.00  0.00    +0.058 A 
ATOM     26 CL   UNL     1      -3.934  -3.670  24.212  0.00  0.00    -0.082 Cl
ATOM     27  C   UNL     1      -3.379  -2.627  25.016  0.00  0.00    +0.011 A 
ATOM     28  C   UNL     1      -3.244  -1.825  25.151  0.00  0.00    +0.001 A 
ENDBRANCH  21  22
ENDBRANCH  19  20
TORSDOF 4
ENDMDL
MODEL 4
REMARK VINA RESULT:     -13.5      2.295      4.618
REMARK  Name = 
REMARK  4 active torsions:
REMARK  status: ('A' for Active; 'I' for Inactive)
REMARK    1  A    between atoms: O_2  and  C_3
REMARK    2  A    between atoms: C_8  and  N_9
REMARK    3  A    between atoms: C_19  and  C_20
REMARK    4  A    between atoms: C_21  and  C_22
REMARK                            x       y       z     vdW  Elec       q    Type
REMARK                         _______ _______ _______ _____ _____    ______ ____
ROOT
ATOM      9  N   UNL     1      -4.283   0.220  24.649  0.00  0.00    -0.159 NA
ATOM     10  C   UNL     1      -5.077   0.353  24.832  0.00  0.00    +0.328 C 
ATOM     11  O   UNL     1      -5.606  -0.280  24.858  0.00  0.00    -0.250 OA
ATOM     12  N   UNL     1      -5.342   1.118  24.991  0.00  0.00    -0.262 N 
ATOM     13  C   UNL     1      -5.871   1.735  25.184  0.00  0.00    +0.097 C 
ATOM     14  C   UNL     1      -5.248   2.502  25.157  0.00  0.00    +0.043 C 
ATOM     15  C   UNL     1      -4.872   3.224  25.176  0.00  0.00    +0.011 C 
ATOM     16  C   UNL     1      -4.703   2.555  25.051  0.00  0.00    +0.058 C 
ATOM     17  C   UNL     1      -5.318   1.824  25.081  0.00  0.00    +0.101 C 
ATOM     18  C   UNL     1      -3.988   2.021  24.830  0.00  0.00    +0.041 A 
ATOM     19  C   UNL     1      -3.181   2.067  24.667  0.00  0.00    +0.012 A 
ATOM     29  C   UNL     1      -2.757   1.383  24.487  0.00  0.00    +0.006 A 
ATOM     30  C   UNL     1      -3.141   0.652  24.469  0.00  0.00    +0.061 A 
ATOM     31  C   UNL     1      -3.948   0.606  24.631  0.00  0.00    +0.261 A 
ATOM     32  O   UNL     1      -3.841  -0.200  24.500  0.00  0.00    -0.267 OA
ATOM     33  N   UNL     1      -4.372   1.291  24.811  0.00  0.00    -0.299 N 
ATOM     34  C   UNL     1      -4.507   1.936  24.926  0.00  0.00    +0.110 C 
ENDROOT
BRANCH   9   8
ATOM      3  C   UNL     1      -3.761  -1.028  25.109  0.00  0.00    +0.154 A 
ATOM      4  C   UNL     1      -3.496  -1.793  24.951  0.00  0.00    +0.038 A 
ATOM      5  C   UNL     1      -3.491  -2.076  24.176  0.00  0.00    +0.003 A 
ATOM      6  C   UNL     1      -3.750  -1.594  23.559  0.00  0.00    +0.002 A 
ATOM      7  C   UNL     1      -4.014  -0.829  23.717  0.00  0.00    +0.020 A 
ATOM      8  C   UNL     1      -4.019  -0.545  24.491  0.00  0.00    +0.109 A 
BRANCH   3   2
ATOM      1  C   UNL     1      -3.492  -1.220  26.498  0.00  0.00    +0.253 C 
ATOM      2  O   UNL     1      -3.766  -0.745  25.883  0.00  0.00    -0.470 OA
ENDBRANCH   3   2
ENDBRANCH   9   8
BRANCH  19  20
ATOM     20  C   UNL     1      -2.797   2.797  24.685  0.00  0.00    +0.001 C 
ATOM     21  C   UNL     1      -1.980   2.831  24.788  0.00  0.00    +0.000 C 
BRANCH  21  22
ATOM     22  C   UNL     1      -1.596   3.561  24.807  0.00  0.00    +0.000 A 
ATOM     23  C   UNL     1      -1.892   4.171  25.277  0.00  0.00    +0.001 A 
ATOM     24  C   UNL     1      -1.508   4.901  25.295  0.00  0.00    +0.011 A 
ATOM     25  C   UNL     1      -0.828   5.022  24.843  0.00  0.00    +0.058 A 
ATOM     26 CL   UNL     1      -0.445   5.751  24.861  0.00  0.00    -0.082 Cl
ATOM     27  C   UNL     1      -0.533   4.411  24.373  0.00  0.00    +0.011 A 
ATOM     28  C   UNL     1      -0.916   3.682  24.355  0.00  0.00    +0.001 A 
ENDBRANCH  21  22
ENDBRANCH  19  20
TORSDOF 4
ENDMDL
