REMARK  Name = 
REMARK  3 active torsions:
REMARK  status: ('A' for Active; 'I' for Inactive)
REMARK    1  A    between atoms: C_3  and  N_5
REMARK    2  A    between atoms: C_10  and  O_12
REMARK    3  A    between atoms: O_12  and  C_13
REMARK                            x       y       z     vdW  Elec       q    Type
REMARK                         _______ _______ _______ _____ _____    ______ ____
ROOT
ATOM      5  N   UNL     1       0.332  -0.479   0.000  0.00  0.00    -0.269 NA
ATOM      6  C   UNL     1      -0.412  -0.121   0.000  0.00  0.00    +0.105 C 
ATOM      7  C   UNL     1      -0.595   0.683   0.000  0.00  0.00    +0.160 C 
ATOM      8  O   UNL     1      -0.081   1.328   0.000  0.00  0.00    -0.348 OA
ATOM      9  C   UNL     1       0.744   1.328   0.000  0.00  0.00    +0.187 C 
ATOM     10  C   UNL     1       1.258   0.683   0.000  0.00  0.00    +0.211 C 
ATOM     11  C   UNL     1       1.075  -0.121   0.000  0.00  0.00    +0.119 C 
ENDROOT
BRANCH   5   3
ATOM      1  C   UNL     1       0.332  -2.471   0.000  0.00  0.00    +0.003 C 
ATOM      2  C   UNL     1      -0.252  -1.887   0.000  0.00  0.00    +0.016 C 
ATOM      3  C   UNL     1       0.332  -1.304   0.000  0.00  0.00    +0.058 C 
ATOM      4  C   UNL     1       0.915  -1.887   0.000  0.00  0.00    +0.016 C 
ENDBRANCH   5   3
BRANCH  10  12
ATOM     12  O   UNL     1       2.063   0.867   0.000  0.00  0.00    -0.475 OA
BRANCH  12  13
ATOM     13  C   UNL     1       2.624   0.262   0.000  0.00  0.00    +0.139 A 
ATOM     14  C   UNL     1       3.428   0.446   0.000  0.00  0.00    +0.037 A 
ATOM     15  C   UNL     1       3.989  -0.159   0.000  0.00  0.00    +0.003 A 
ATOM     16  C   UNL     1       3.746  -0.948   0.000  0.00  0.00    +0.000 A 
ATOM     17  C   UNL     1       2.942  -1.131   0.000  0.00  0.00    +0.003 A 
ATOM     18  C   UNL     1       2.381  -0.526   0.000  0.00  0.00    +0.037 A 
ENDBRANCH  12  13
ENDBRANCH  10  12
TORSDOF 3
