MODEL 1
REMARK VINA RESULT:     -10.1      0.000      0.000
REMARK  Name = 
REMARK  5 active torsions:
REMARK  status: ('A' for Active; 'I' for Inactive)
REMARK    1  A    between atoms: O_2  and  C_3
REMARK    2  A    between atoms: C_4  and  C_10
REMARK    3  A    between atoms: C_19  and  N_25
REMARK    4  A    between atoms: N_28  and  C_29
REMARK    5  A    between atoms: C_29  and  C_30
REMARK                            x       y       z     vdW  Elec       q    Type
REMARK                         _______ _______ _______ _____ _____    ______ ____
ROOT
ATOM     10  C   UNL     1      -3.522   1.126  25.069  0.00  0.00    +0.003 A 
ATOM     11  C   UNL     1      -2.906   1.255  24.535  0.00  0.00    +0.006 A 
ATOM     12  C   UNL     1      -2.247   0.758  24.536  0.00  0.00    +0.069 A 
ATOM     13  C   UNL     1      -2.204   0.132  25.071  0.00  0.00    +0.078 A 
ATOM     14  N   UNL     1      -1.603  -0.425  25.165  0.00  0.00    -0.178 NA
ATOM     15  C   UNL     1      -0.895  -0.492  24.746  0.00  0.00    +0.264 C 
ATOM     16  O   UNL     1      -0.403  -1.115  24.972  0.00  0.00    -0.271 OA
ATOM     17  C   UNL     1      -0.614  -0.021  24.130  0.00  0.00    +0.156 C 
ATOM     18  C   UNL     1       0.122  -0.279  23.864  0.00  0.00    +0.051 C 
ATOM     19  C   UNL     1       0.501   0.119  23.248  0.00  0.00    +0.101 C 
ATOM     20  C   UNL     1       0.144   0.775  22.899  0.00  0.00    +0.043 C 
ATOM     21  C   UNL     1      -0.593   1.034  23.166  0.00  0.00    +0.096 C 
ATOM     22  N   UNL     1      -0.972   0.636  23.781  0.00  0.00    -0.269 N 
ATOM     23  C   UNL     1      -1.699   0.983  23.962  0.00  0.00    +0.251 C 
ATOM     24  O   UNL     1      -1.904   1.641  23.509  0.00  0.00    -0.270 OA
ATOM     32  C   UNL     1      -2.820   0.002  25.606  0.00  0.00    +0.017 A 
ATOM     33  C   UNL     1      -3.478   0.500  25.604  0.00  0.00    +0.001 A 
ENDROOT
BRANCH  10   4
ATOM      3  C   UNL     1      -4.112   2.396  25.348  0.00  0.00    +0.139 A 
ATOM      4  C   UNL     1      -4.179   1.623  25.067  0.00  0.00    +0.035 A 
ATOM      5  C   UNL     1      -4.904   1.349  24.785  0.00  0.00    +0.014 A 
ATOM      6  C   UNL     1      -5.562   1.846  24.783  0.00  0.00    +0.058 A 
ATOM      7 CL   UNL     1      -6.287   1.572  24.501  0.00  0.00    -0.082 Cl
ATOM      8  C   UNL     1      -5.495   2.620  25.064  0.00  0.00    +0.015 A 
ATOM      9  C   UNL     1      -4.770   2.894  25.347  0.00  0.00    +0.038 A 
BRANCH   3   2
ATOM      1  C   UNL     1      -3.322   3.442  25.915  0.00  0.00    +0.252 C 
ATOM      2  O   UNL     1      -3.388   2.671  25.631  0.00  0.00    -0.471 OA
ENDBRANCH   3   2
ENDBRANCH  10   4
BRANCH  19  25
ATOM     25  N   UNL     1       1.237  -0.140  22.981  0.00  0.00    -0.189 NA
ATOM     26  C   UNL     1       1.897   0.353  23.050  0.00  0.00    +0.340 C 
ATOM     27  O   UNL     1       1.818   1.102  23.386  0.00  0.00    -0.249 OA
ATOM     28  N   UNL     1       2.633   0.095  22.783  0.00  0.00    -0.182 NA
BRANCH  28  29
ATOM     29  C   UNL     1       3.292   0.587  22.853  0.00  0.00    +0.143 C 
BRANCH  29  30
ATOM     30  C   UNL     1       4.033   0.320  22.608  0.00  0.00    -0.003 C 
ATOM     31  C   UNL     1       4.707   0.516  23.044  0.00  0.00    -0.003 C 
ENDBRANCH  29  30
ENDBRANCH  28  29
ENDBRANCH  19  25
TORSDOF 5
ENDMDL
MODEL 2
REMARK VINA RESULT:      -9.5      1.050      1.739
REMARK  Name = 
REMARK  5 active torsions:
REMARK  status: ('A' for Active; 'I' for Inactive)
REMARK    1  A    between atoms: O_2  and  C_3
REMARK    2  A    between atoms: C_4  and  C_10
REMARK    3  A    between atoms: C_19  and  N_25
REMARK    4  A    between atoms: N_28  and  C_29
REMARK    5  A    between atoms: C_29  and  C_30
REMARK                            x       y       z     vdW  Elec       q    Type
REMARK                         _______ _______ _______ _____ _____    ______ ____
ROOT
ATOM     10  C   UNL     1      -4.107   2.300  24.542  0.00  0.00    +0.003 A 
ATOM     11  C   UNL     1      -3.451   1.831  24.719  0.00  0.00    +0.006 A 
ATOM     12  C   UNL     1      -2.864   1.711  24.151  0.00  0.00    +0.069 A 
ATOM     13  C   UNL     1      -2.932   2.060  23.407  0.00  0.00    +0.078 A 
ATOM     14  N   UNL     1      -2.415   2.012  22.767  0.00  0.00    -0.178 NA
ATOM     15  C   UNL     1      -1.700   1.603  22.714  0.00  0.00    +0.264 C 
ATOM     16  O   UNL     1      -1.306   1.664  21.991  0.00  0.00    -0.271 OA
ATOM     17  C   UNL     1      -1.326   1.141  23.286  0.00  0.00    +0.156 C 
ATOM     18  C   UNL     1      -0.617   0.829  23.006  0.00  0.00    +0.051 C 
ATOM     19  C   UNL     1      -0.156   0.349  23.494  0.00  0.00    +0.101 C 
ATOM     20  C   UNL     1      -0.405   0.182  24.263  0.00  0.00    +0.043 C 
ATOM     21  C   UNL     1      -1.116   0.495  24.543  0.00  0.00    +0.096 C 
ATOM     22  N   UNL     1      -1.576   0.975  24.055  0.00  0.00    -0.269 N 
ATOM     23  C   UNL     1      -2.260   1.228  24.440  0.00  0.00    +0.251 C 
ATOM     24  O   UNL     1      -2.353   0.963  25.216  0.00  0.00    -0.270 OA
ATOM     32  C   UNL     1      -3.588   2.529  23.229  0.00  0.00    +0.017 A 
ATOM     33  C   UNL     1      -4.175   2.648  23.797  0.00  0.00    +0.001 A 
ENDROOT
BRANCH  10   4
ATOM      3  C   UNL     1      -4.648   3.068  25.617  0.00  0.00    +0.139 A 
ATOM      4  C   UNL     1      -4.693   2.419  25.109  0.00  0.00    +0.035 A 
ATOM      5  C   UNL     1      -5.324   1.891  25.169  0.00  0.00    +0.014 A 
ATOM      6  C   UNL     1      -5.911   2.010  25.736  0.00  0.00    +0.058 A 
ATOM      7 CL   UNL     1      -6.541   1.483  25.796  0.00  0.00    -0.082 Cl
ATOM      8  C   UNL     1      -5.866   2.659  26.245  0.00  0.00    +0.015 A 
ATOM      9  C   UNL     1      -5.235   3.187  26.185  0.00  0.00    +0.038 A 
BRANCH   3   2
ATOM      1  C   UNL     1      -3.908   4.172  26.137  0.00  0.00    +0.252 C 
ATOM      2  O   UNL     1      -4.018   3.596  25.558  0.00  0.00    -0.471 OA
ENDBRANCH   3   2
ENDBRANCH  10   4
BRANCH  19  25
ATOM     25  N   UNL     1       0.554   0.036  23.215  0.00  0.00    -0.189 NA
ATOM     26  C   UNL     1       1.252   0.472  23.285  0.00  0.00    +0.340 C 
ATOM     27  O   UNL     1       1.239   1.219  23.634  0.00  0.00    -0.249 OA
ATOM     28  N   UNL     1       1.962   0.159  23.005  0.00  0.00    -0.182 NA
BRANCH  28  29
ATOM     29  C   UNL     1       2.661   0.594  23.076  0.00  0.00    +0.143 C 
BRANCH  29  30
ATOM     30  C   UNL     1       3.348   0.333  22.701  0.00  0.00    -0.003 C 
ATOM     31  C   UNL     1       4.030   0.798  22.722  0.00  0.00    -0.003 C 
ENDBRANCH  29  30
ENDBRANCH  28  29
ENDBRANCH  19  25
TORSDOF 5
ENDMDL
MODEL 3
REMARK VINA RESULT:      -9.3      1.697      2.484
REMARK  Name = 
REMARK  5 active torsions:
REMARK  status: ('A' for Active; 'I' for Inactive)
REMARK    1  A    between atoms: O_2  and  C_3
REMARK    2  A    between atoms: C_4  and  C_10
REMARK    3  A    between atoms: C_19  and  N_25
REMARK    4  A    between atoms: N_28  and  C_29
REMARK    5  A    between atoms: C_29  and  C_30
REMARK                            x       y       z     vdW  Elec       q    Type
REMARK                         _______ _______ _______ _____ _____    ______ ____
ROOT
ATOM     10  C   UNL     1      -2.245  -0.052  24.722  0.00  0.00    +0.003 A 
ATOM     11  C   UNL     1      -1.601  -0.235  24.238  0.00  0.00    +0.006 A 
ATOM     12  C   UNL     1      -0.927   0.241  24.254  0.00  0.00    +0.069 A 
ATOM     13  C   UNL     1      -0.896   0.897  24.752  0.00  0.00    +0.078 A 
ATOM     14  N   UNL     1      -0.282   1.439  24.851  0.00  0.00    -0.178 NA
ATOM     15  C   UNL     1       0.453   1.457  24.477  0.00  0.00    +0.264 C 
ATOM     16  O   UNL     1       0.952   2.077  24.698  0.00  0.00    -0.271 OA
ATOM     17  C   UNL     1       0.756   0.940  23.911  0.00  0.00    +0.156 C 
ATOM     18  C   UNL     1       1.516   1.157  23.679  0.00  0.00    +0.051 C 
ATOM     19  C   UNL     1       1.920   0.710  23.115  0.00  0.00    +0.101 C 
ATOM     20  C   UNL     1       1.562   0.045  22.783  0.00  0.00    +0.043 C 
ATOM     21  C   UNL     1       0.800  -0.173  23.015  0.00  0.00    +0.096 C 
ATOM     22  N   UNL     1       0.397   0.274  23.579  0.00  0.00    -0.269 N 
ATOM     23  C   UNL     1      -0.351  -0.037  23.731  0.00  0.00    +0.251 C 
ATOM     24  O   UNL     1      -0.551  -0.715  23.306  0.00  0.00    -0.270 OA
ATOM     32  C   UNL     1      -1.540   1.080  25.235  0.00  0.00    +0.017 A 
ATOM     33  C   UNL     1      -2.214   0.604  25.220  0.00  0.00    +0.001 A 
ENDROOT
BRANCH  10   4
ATOM      3  C   UNL     1      -3.633  -0.221  24.425  0.00  0.00    +0.139 A 
ATOM      4  C   UNL     1      -2.919  -0.527  24.706  0.00  0.00    +0.035 A 
ATOM      5  C   UNL     1      -2.881  -1.307  24.970  0.00  0.00    +0.014 A 
ATOM      6  C   UNL     1      -3.555  -1.783  24.955  0.00  0.00    +0.058 A 
ATOM      7 CL   UNL     1      -3.517  -2.563  25.219  0.00  0.00    -0.082 Cl
ATOM      8  C   UNL     1      -4.269  -1.477  24.674  0.00  0.00    +0.015 A 
ATOM      9  C   UNL     1      -4.307  -0.696  24.410  0.00  0.00    +0.038 A 
BRANCH   3   2
ATOM      1  C   UNL     1      -4.404   0.915  24.033  0.00  0.00    +0.252 C 
ATOM      2  O   UNL     1      -3.671   0.559  24.161  0.00  0.00    -0.471 OA
ENDBRANCH   3   2
ENDBRANCH  10   4
BRANCH  19  25
ATOM     25  N   UNL     1       2.681   0.927  22.882  0.00  0.00    -0.189 NA
ATOM     26  C   UNL     1       3.318   0.427  23.040  0.00  0.00    +0.340 C 
ATOM     27  O   UNL     1       3.194  -0.289  23.430  0.00  0.00    -0.249 OA
ATOM     28  N   UNL     1       4.079   0.644  22.808  0.00  0.00    -0.182 NA
BRANCH  28  29
ATOM     29  C   UNL     1       4.717   0.144  22.966  0.00  0.00    +0.143 C 
BRANCH  29  30
ATOM     30  C   UNL     1       5.425   0.457  23.250  0.00  0.00    -0.003 C 
ATOM     31  C   UNL     1       6.062  -0.044  23.410  0.00  0.00    -0.003 C 
ENDBRANCH  29  30
ENDBRANCH  28  29
ENDBRANCH  19  25
TORSDOF 5
ENDMDL
