MODEL 1
REMARK VINA RESULT:     -10.1      0.000      0.000
REMARK  Name = 
REMARK  7 active torsions:
REMARK  status: ('A' for Active; 'I' for Inactive)
REMARK    1  A    between atoms: C_2  and  C_4
REMARK    2  A    between atoms: C_4  and  C_5
REMARK    3  A    between atoms: C_4  and  N_12
REMARK    4  A    between atoms: C_5  and  C_6
REMARK    5  A    between atoms: C_13  and  C_15
REMARK    6  A    between atoms: N_23  and  C_24
REMARK    7  A    between atoms: N_32  and  C_33
REMARK                            x       y       z     vdW  Elec       q    Type
REMARK                         _______ _______ _______ _____ _____    ______ ____
ROOT
ATOM     15  C   UNL     1      -0.320   0.758  24.407  0.00  0.00    +0.175 C 
ATOM     16  C   UNL     1       0.443   0.710  24.095  0.00  0.00    +0.124 C 
ATOM     17  N   UNL     1       0.585   0.256  23.420  0.00  0.00    -0.259 N 
ATOM     18  C   UNL     1      -0.036  -0.150  23.059  0.00  0.00    +0.117 C 
ATOM     19  C   UNL     1      -0.798  -0.102  23.371  0.00  0.00    +0.117 C 
ATOM     20  N   UNL     1      -0.940   0.352  24.045  0.00  0.00    -0.253 N 
ATOM     21  C   UNL     1      -1.702   0.400  24.358  0.00  0.00    +0.324 C 
ATOM     22  O   UNL     1      -1.844   0.853  25.031  0.00  0.00    -0.251 OA
ATOM     23  N   UNL     1      -2.322  -0.007  23.996  0.00  0.00    -0.190 NA
ATOM     30  C   UNL     1       1.346   0.208  23.109  0.00  0.00    +0.328 C 
ATOM     31  O   UNL     1       1.488  -0.247  22.434  0.00  0.00    -0.250 OA
ATOM     32  N   UNL     1       1.967   0.614  23.470  0.00  0.00    -0.162 NA
ENDROOT
BRANCH  23  24
ATOM     24  C   UNL     1      -3.084   0.042  24.308  0.00  0.00    +0.097 C 
ATOM     25  C   UNL     1      -3.350  -0.536  24.835  0.00  0.00    +0.022 C 
ATOM     26  C   UNL     1      -4.113  -0.488  25.148  0.00  0.00    +0.002 C 
ATOM     27  C   UNL     1      -4.607   0.136  24.935  0.00  0.00    +0.000 C 
ATOM     28  C   UNL     1      -4.341   0.713  24.409  0.00  0.00    +0.002 C 
ATOM     29  C   UNL     1      -3.578   0.665  24.095  0.00  0.00    +0.022 C 
ENDBRANCH  23  24
BRANCH  32  33
ATOM     33  C   UNL     1       2.729   0.566  23.158  0.00  0.00    +0.075 A 
ATOM     34  C   UNL     1       3.161  -0.133  23.228  0.00  0.00    +0.017 A 
ATOM     35  C   UNL     1       3.923  -0.181  22.916  0.00  0.00    +0.001 A 
ATOM     36  C   UNL     1       4.254   0.472  22.533  0.00  0.00    +0.000 A 
ATOM     37  C   UNL     1       3.822   1.171  22.463  0.00  0.00    +0.001 A 
ATOM     38  C   UNL     1       3.060   1.219  22.775  0.00  0.00    +0.017 A 
ENDBRANCH  32  33
BRANCH  15  13
ATOM     12  N   UNL     1      -0.305   2.021  25.073  0.00  0.00    -0.196 NA
ATOM     13  C   UNL     1      -0.461   1.211  25.081  0.00  0.00    +0.262 C 
ATOM     14  O   UNL     1      -0.760   0.855  25.763  0.00  0.00    -0.271 OA
BRANCH  12   4
ATOM      4  C   UNL     1      -0.447   2.475  25.748  0.00  0.00    +0.179 C 
BRANCH   4   2
ATOM      1  N   UNL     1      -0.100   2.411  27.132  0.00  0.00    -0.086 NA
ATOM      2  C   UNL     1       0.121   2.515  26.344  0.00  0.00    +0.281 C 
ATOM      3  O   UNL     1       0.911   2.660  26.153  0.00  0.00    -0.270 OA
ENDBRANCH   4   2
BRANCH   4   5
ATOM      5  C   UNL     1      -1.157   2.889  25.824  0.00  0.00    +0.059 C 
BRANCH   5   6
ATOM      6  C   UNL     1      -1.221   3.656  25.524  0.00  0.00    -0.001 A 
ATOM      7  C   UNL     1      -1.882   4.114  25.705  0.00  0.00    -0.001 A 
ATOM      8  C   UNL     1      -1.947   4.880  25.406  0.00  0.00    +0.020 A 
ATOM      9  C   UNL     1      -1.351   5.188  24.926  0.00  0.00    +0.099 A 
ATOM     10  N   UNL     1      -0.689   4.728  24.745  0.00  0.00    -0.243 NA
ATOM     11  C   UNL     1      -0.624   3.962  25.044  0.00  0.00    +0.095 A 
ENDBRANCH   5   6
ENDBRANCH   4   5
ENDBRANCH  12   4
ENDBRANCH  15  13
TORSDOF 7
ENDMDL
MODEL 2
REMARK VINA RESULT:      -9.8      1.960      3.944
REMARK  Name = 
REMARK  7 active torsions:
REMARK  status: ('A' for Active; 'I' for Inactive)
REMARK    1  A    between atoms: C_2  and  C_4
REMARK    2  A    between atoms: C_4  and  C_5
REMARK    3  A    between atoms: C_4  and  N_12
REMARK    4  A    between atoms: C_5  and  C_6
REMARK    5  A    between atoms: C_13  and  C_15
REMARK    6  A    between atoms: N_23  and  C_24
REMARK    7  A    between atoms: N_32  and  C_33
REMARK                            x       y       z     vdW  Elec       q    Type
REMARK                         _______ _______ _______ _____ _____    ______ ____
ROOT
ATOM     15  C   UNL     1      -2.035   0.950  24.603  0.00  0.00    +0.175 C 
ATOM     16  C   UNL     1      -1.289   0.824  24.272  0.00  0.00    +0.124 C 
ATOM     17  N   UNL     1      -0.977   1.369  23.737  0.00  0.00    -0.259 N 
ATOM     18  C   UNL     1      -1.411   2.040  23.533  0.00  0.00    +0.117 C 
ATOM     19  C   UNL     1      -2.155   2.167  23.863  0.00  0.00    +0.117 C 
ATOM     20  N   UNL     1      -2.467   1.622  24.399  0.00  0.00    -0.253 N 
ATOM     21  C   UNL     1      -3.213   1.749  24.730  0.00  0.00    +0.324 C 
ATOM     22  O   UNL     1      -3.525   1.204  25.264  0.00  0.00    -0.251 OA
ATOM     23  N   UNL     1      -3.646   2.421  24.525  0.00  0.00    -0.190 NA
ATOM     30  C   UNL     1      -0.233   1.242  23.407  0.00  0.00    +0.328 C 
ATOM     31  O   UNL     1       0.080   1.787  22.871  0.00  0.00    -0.250 OA
ATOM     32  N   UNL     1       0.201   0.570  23.611  0.00  0.00    -0.162 NA
ENDROOT
BRANCH  23  24
ATOM     24  C   UNL     1      -4.391   2.547  24.856  0.00  0.00    +0.097 C 
ATOM     25  C   UNL     1      -4.485   3.103  25.458  0.00  0.00    +0.022 C 
ATOM     26  C   UNL     1      -5.230   3.230  25.790  0.00  0.00    +0.002 C 
ATOM     27  C   UNL     1      -5.880   2.801  25.520  0.00  0.00    +0.000 C 
ATOM     28  C   UNL     1      -5.786   2.244  24.918  0.00  0.00    +0.002 C 
ATOM     29  C   UNL     1      -5.040   2.118  24.586  0.00  0.00    +0.022 C 
ENDBRANCH  23  24
BRANCH  32  33
ATOM     33  C   UNL     1       0.946   0.443  23.280  0.00  0.00    +0.075 A 
ATOM     34  C   UNL     1       1.597   0.872  23.551  0.00  0.00    +0.017 A 
ATOM     35  C   UNL     1       2.341   0.746  23.220  0.00  0.00    +0.001 A 
ATOM     36  C   UNL     1       2.436   0.189  22.618  0.00  0.00    +0.000 A 
ATOM     37  C   UNL     1       1.786  -0.240  22.347  0.00  0.00    +0.001 A 
ATOM     38  C   UNL     1       1.041  -0.114  22.678  0.00  0.00    +0.017 A 
ENDBRANCH  32  33
BRANCH  15  13
ATOM     12  N   UNL     1      -2.424  -0.386  24.922  0.00  0.00    -0.196 NA
ATOM     13  C   UNL     1      -2.346   0.406  25.138  0.00  0.00    +0.262 C 
ATOM     14  O   UNL     1      -2.581   0.653  25.890  0.00  0.00    -0.271 OA
BRANCH  12   4
ATOM      4  C   UNL     1      -2.736  -0.931  25.457  0.00  0.00    +0.179 C 
BRANCH   4   2
ATOM      1  N   UNL     1      -1.492  -1.470  25.909  0.00  0.00    -0.086 NA
ATOM      2  C   UNL     1      -2.265  -1.227  26.066  0.00  0.00    +0.281 C 
ATOM      3  O   UNL     1      -2.567  -1.281  26.832  0.00  0.00    -0.270 OA
ENDBRANCH   4   2
BRANCH   4   5
ATOM      5  C   UNL     1      -3.519  -1.180  25.383  0.00  0.00    +0.059 C 
BRANCH   5   6
ATOM      6  C   UNL     1      -3.719  -1.752  24.821  0.00  0.00    -0.001 A 
ATOM      7  C   UNL     1      -4.188  -1.549  24.175  0.00  0.00    -0.001 A 
ATOM      8  C   UNL     1      -4.387  -2.121  23.614  0.00  0.00    +0.020 A 
ATOM      9  C   UNL     1      -4.117  -2.895  23.700  0.00  0.00    +0.099 A 
ATOM     10  N   UNL     1      -3.647  -3.098  24.348  0.00  0.00    -0.243 NA
ATOM     11  C   UNL     1      -3.447  -2.527  24.908  0.00  0.00    +0.095 A 
ENDBRANCH   5   6
ENDBRANCH   4   5
ENDBRANCH  12   4
ENDBRANCH  15  13
TORSDOF 7
ENDMDL
MODEL 3
REMARK VINA RESULT:      -9.5      2.734      5.199
REMARK  Name = 
REMARK  7 active torsions:
REMARK  status: ('A' for Active; 'I' for Inactive)
REMARK    1  A    between atoms: C_2  and  C_4
REMARK    2  A    between atoms: C_4  and  C_5
REMARK    3  A    between atoms: C_4  and  N_12
REMARK    4  A    between atoms: C_5  and  C_6
REMARK    5  A    between atoms: C_13  and  C_15
REMARK    6  A    between atoms: N_23  and  C_24
REMARK    7  A    between atoms: N_32  and  C_33
REMARK                            x       y       z     vdW  Elec       q    Type
REMARK                         _______ _______ _______ _____ _____    ______ ____
ROOT
ATOM     15  C   UNL     1      -2.626   1.775  24.501  0.00  0.00    +0.175 C 
ATOM     16  C   UNL     1      -2.824   0.973  24.510  0.00  0.00    +0.124 C 
ATOM     17  N   UNL     1      -2.230   0.401  24.491  0.00  0.00    -0.259 N 
ATOM     18  C   UNL     1      -1.438   0.631  24.463  0.00  0.00    +0.117 C 
ATOM     19  C   UNL     1      -1.240   1.431  24.453  0.00  0.00    +0.117 C 
ATOM     20  N   UNL     1      -1.834   2.003  24.472  0.00  0.00    -0.253 N 
ATOM     21  C   UNL     1      -1.636   2.805  24.463  0.00  0.00    +0.324 C 
ATOM     22  O   UNL     1      -2.229   3.376  24.482  0.00  0.00    -0.251 OA
ATOM     23  N   UNL     1      -0.844   3.033  24.434  0.00  0.00    -0.190 NA
ATOM     30  C   UNL     1      -2.428  -0.399  24.501  0.00  0.00    +0.328 C 
ATOM     31  O   UNL     1      -1.833  -0.972  24.482  0.00  0.00    -0.250 OA
ATOM     32  N   UNL     1      -3.220  -0.629  24.529  0.00  0.00    -0.162 NA
ENDROOT
BRANCH  23  24
ATOM     24  C   UNL     1      -0.647   3.834  24.425  0.00  0.00    +0.097 C 
ATOM     25  C   UNL     1      -0.383   4.185  23.726  0.00  0.00    +0.022 C 
ATOM     26  C   UNL     1      -0.186   4.987  23.716  0.00  0.00    +0.002 C 
ATOM     27  C   UNL     1      -0.251   5.436  24.403  0.00  0.00    +0.000 C 
ATOM     28  C   UNL     1      -0.514   5.084  25.103  0.00  0.00    +0.002 C 
ATOM     29  C   UNL     1      -0.712   4.283  25.113  0.00  0.00    +0.022 C 
ENDBRANCH  23  24
BRANCH  32  33
ATOM     33  C   UNL     1      -3.418  -1.429  24.538  0.00  0.00    +0.075 A 
ATOM     34  C   UNL     1      -3.231  -1.893  25.195  0.00  0.00    +0.017 A 
ATOM     35  C   UNL     1      -3.429  -2.693  25.204  0.00  0.00    +0.001 A 
ATOM     36  C   UNL     1      -3.814  -3.031  24.556  0.00  0.00    +0.000 A 
ATOM     37  C   UNL     1      -4.002  -2.567  23.901  0.00  0.00    +0.001 A 
ATOM     38  C   UNL     1      -3.804  -1.766  23.891  0.00  0.00    +0.017 A 
ENDBRANCH  32  33
BRANCH  15  13
ATOM     12  N   UNL     1      -3.678   2.443  25.198  0.00  0.00    -0.196 NA
ATOM     13  C   UNL     1      -3.219   2.346  24.519  0.00  0.00    +0.262 C 
ATOM     14  O   UNL     1      -3.355   2.822  23.859  0.00  0.00    -0.271 OA
BRANCH  12   4
ATOM      4  C   UNL     1      -4.273   3.015  25.217  0.00  0.00    +0.179 C 
BRANCH   4   2
ATOM      1  N   UNL     1      -4.326   4.443  25.191  0.00  0.00    -0.086 NA
ATOM      2  C   UNL     1      -4.134   3.741  25.581  0.00  0.00    +0.281 C 
ATOM      3  O   UNL     1      -3.802   3.767  26.337  0.00  0.00    -0.270 OA
ENDBRANCH   4   2
BRANCH   4   5
ATOM      5  C   UNL     1      -5.005   2.859  24.871  0.00  0.00    +0.059 C 
BRANCH   5   6
ATOM      6  C   UNL     1      -5.565   2.406  25.276  0.00  0.00    -0.001 A 
ATOM      7  C   UNL     1      -5.919   1.760  24.905  0.00  0.00    -0.001 A 
ATOM      8  C   UNL     1      -6.477   1.307  25.310  0.00  0.00    +0.020 A 
ATOM      9  C   UNL     1      -6.681   1.500  26.085  0.00  0.00    +0.099 A 
ATOM     10  N   UNL     1      -6.327   2.147  26.457  0.00  0.00    -0.243 NA
ATOM     11  C   UNL     1      -5.768   2.599  26.052  0.00  0.00    +0.095 A 
ENDBRANCH   5   6
ENDBRANCH   4   5
ENDBRANCH  12   4
ENDBRANCH  15  13
TORSDOF 7
ENDMDL
MODEL 4
REMARK VINA RESULT:      -9.2      1.950      5.872
REMARK  Name = 
REMARK  7 active torsions:
REMARK  status: ('A' for Active; 'I' for Inactive)
REMARK    1  A    between atoms: C_2  and  C_4
REMARK    2  A    between atoms: C_4  and  C_5
REMARK    3  A    between atoms: C_4  and  N_12
REMARK    4  A    between atoms: C_5  and  C_6
REMARK    5  A    between atoms: C_13  and  C_15
REMARK    6  A    between atoms: N_23  and  C_24
REMARK    7  A    between atoms: N_32  and  C_33
REMARK                            x       y       z     vdW  Elec       q    Type
REMARK                         _______ _______ _______ _____ _____    ______ ____
ROOT
ATOM     15  C   UNL     1      -1.595   1.017  24.499  0.00  0.00    +0.175 C 
ATOM     16  C   UNL     1      -2.256   1.474  24.687  0.00  0.00    +0.124 C 
ATOM     17  N   UNL     1      -2.341   2.229  24.364  0.00  0.00    -0.259 N 
ATOM     18  C   UNL     1      -1.765   2.526  23.854  0.00  0.00    +0.117 C 
ATOM     19  C   UNL     1      -1.105   2.069  23.666  0.00  0.00    +0.117 C 
ATOM     20  N   UNL     1      -1.020   1.315  23.988  0.00  0.00    -0.253 N 
ATOM     21  C   UNL     1      -0.359   0.857  23.800  0.00  0.00    +0.324 C 
ATOM     22  O   UNL     1      -0.274   0.104  24.123  0.00  0.00    -0.251 OA
ATOM     23  N   UNL     1       0.217   1.156  23.290  0.00  0.00    -0.190 NA
ATOM     30  C   UNL     1      -3.002   2.685  24.552  0.00  0.00    +0.328 C 
ATOM     31  O   UNL     1      -3.087   3.440  24.230  0.00  0.00    -0.250 OA
ATOM     32  N   UNL     1      -3.578   2.388  25.063  0.00  0.00    -0.162 NA
ENDROOT
BRANCH  23  24
ATOM     24  C   UNL     1       0.877   0.698  23.103  0.00  0.00    +0.097 C 
ATOM     25  C   UNL     1       1.618   0.902  23.404  0.00  0.00    +0.022 C 
ATOM     26  C   UNL     1       2.280   0.444  23.217  0.00  0.00    +0.002 C 
ATOM     27  C   UNL     1       2.200  -0.215  22.729  0.00  0.00    +0.000 C 
ATOM     28  C   UNL     1       1.459  -0.418  22.427  0.00  0.00    +0.002 C 
ATOM     29  C   UNL     1       0.797   0.039  22.614  0.00  0.00    +0.022 C 
ENDBRANCH  23  24
BRANCH  32  33
ATOM     33  C   UNL     1      -4.238   2.844  25.251  0.00  0.00    +0.075 A 
ATOM     34  C   UNL     1      -4.150   3.541  25.684  0.00  0.00    +0.017 A 
ATOM     35  C   UNL     1      -4.810   3.997  25.872  0.00  0.00    +0.001 A 
ATOM     36  C   UNL     1      -5.561   3.757  25.626  0.00  0.00    +0.000 A 
ATOM     37  C   UNL     1      -5.650   3.061  25.193  0.00  0.00    +0.001 A 
ATOM     38  C   UNL     1      -4.989   2.604  25.005  0.00  0.00    +0.017 A 
ENDBRANCH  32  33
BRANCH  15  13
ATOM     12  N   UNL     1      -2.150  -0.257  24.829  0.00  0.00    -0.196 NA
ATOM     13  C   UNL     1      -1.510   0.263  24.821  0.00  0.00    +0.262 C 
ATOM     14  O   UNL     1      -0.784   0.028  25.136  0.00  0.00    -0.271 OA
BRANCH  12   4
ATOM      4  C   UNL     1      -2.065  -1.012  25.152  0.00  0.00    +0.179 C 
BRANCH   4   2
ATOM      1  N   UNL     1      -1.300  -1.482  26.263  0.00  0.00    -0.086 NA
ATOM      2  C   UNL     1      -1.970  -1.104  25.965  0.00  0.00    +0.281 C 
ATOM      3  O   UNL     1      -2.546  -0.817  26.483  0.00  0.00    -0.270 OA
ENDBRANCH   4   2
BRANCH   4   5
ATOM      5  C   UNL     1      -2.076  -1.674  24.659  0.00  0.00    +0.059 C 
BRANCH   5   6
ATOM      6  C   UNL     1      -2.797  -2.010  24.436  0.00  0.00    -0.001 A 
ATOM      7  C   UNL     1      -3.350  -1.561  24.021  0.00  0.00    -0.001 A 
ATOM      8  C   UNL     1      -4.069  -1.897  23.797  0.00  0.00    +0.020 A 
ATOM      9  C   UNL     1      -4.236  -2.682  23.989  0.00  0.00    +0.099 A 
ATOM     10  N   UNL     1      -3.682  -3.131  24.405  0.00  0.00    -0.243 NA
ATOM     11  C   UNL     1      -2.962  -2.795  24.628  0.00  0.00    +0.095 A 
ENDBRANCH   5   6
ENDBRANCH   4   5
ENDBRANCH  12   4
ENDBRANCH  15  13
TORSDOF 7
ENDMDL
MODEL 5
REMARK VINA RESULT:      -8.4      1.554      4.476
REMARK  Name = 
REMARK  7 active torsions:
REMARK  status: ('A' for Active; 'I' for Inactive)
REMARK    1  A    between atoms: C_2  and  C_4
REMARK    2  A    between atoms: C_4  and  C_5
REMARK    3  A    between atoms: C_4  and  N_12
REMARK    4  A    between atoms: C_5  and  C_6
REMARK    5  A    between atoms: C_13  and  C_15
REMARK    6  A    between atoms: N_23  and  C_24
REMARK    7  A    between atoms: N_32  and  C_33
REMARK                            x       y       z     vdW  Elec       q    Type
REMARK                         _______ _______ _______ _____ _____    ______ ____
ROOT
ATOM     15  C   UNL     1      -2.118   0.834  24.340  0.00  0.00    +0.175 C 
ATOM     16  C   UNL     1      -1.977   1.637  24.471  0.00  0.00    +0.124 C 
ATOM     17  N   UNL     1      -2.543   2.099  24.853  0.00  0.00    -0.259 N 
ATOM     18  C   UNL     1      -3.252   1.758  25.104  0.00  0.00    +0.117 C 
ATOM     19  C   UNL     1      -3.394   0.957  24.973  0.00  0.00    +0.117 C 
ATOM     20  N   UNL     1      -2.827   0.495  24.591  0.00  0.00    -0.253 N 
ATOM     21  C   UNL     1      -2.969  -0.308  24.460  0.00  0.00    +0.324 C 
ATOM     22  O   UNL     1      -2.403  -0.770  24.078  0.00  0.00    -0.251 OA
ATOM     23  N   UNL     1      -3.677  -0.648  24.711  0.00  0.00    -0.190 NA
ATOM     30  C   UNL     1      -2.402   2.900  24.984  0.00  0.00    +0.328 C 
ATOM     31  O   UNL     1      -2.969   3.363  25.367  0.00  0.00    -0.250 OA
ATOM     32  N   UNL     1      -1.693   3.241  24.733  0.00  0.00    -0.162 NA
ENDROOT
BRANCH  23  24
ATOM     24  C   UNL     1      -3.818  -1.450  24.579  0.00  0.00    +0.097 C 
ATOM     25  C   UNL     1      -4.263  -1.688  23.926  0.00  0.00    +0.022 C 
ATOM     26  C   UNL     1      -4.405  -2.491  23.794  0.00  0.00    +0.002 C 
ATOM     27  C   UNL     1      -4.102  -3.054  24.314  0.00  0.00    +0.000 C 
ATOM     28  C   UNL     1      -3.658  -2.815  24.968  0.00  0.00    +0.002 C 
ATOM     29  C   UNL     1      -3.516  -2.012  25.100  0.00  0.00    +0.022 C 
ENDBRANCH  23  24
BRANCH  32  33
ATOM     33  C   UNL     1      -1.551   4.042  24.864  0.00  0.00    +0.075 A 
ATOM     34  C   UNL     1      -2.180   4.553  25.021  0.00  0.00    +0.017 A 
ATOM     35  C   UNL     1      -2.038   5.355  25.152  0.00  0.00    +0.001 A 
ATOM     36  C   UNL     1      -1.266   5.647  25.127  0.00  0.00    +0.000 A 
ATOM     37  C   UNL     1      -0.638   5.137  24.970  0.00  0.00    +0.001 A 
ATOM     38  C   UNL     1      -0.779   4.334  24.839  0.00  0.00    +0.017 A 
ENDBRANCH  32  33
BRANCH  15  13
ATOM     12  N   UNL     1      -0.808   0.268  24.297  0.00  0.00    -0.196 NA
ATOM     13  C   UNL     1      -1.552   0.373  23.958  0.00  0.00    +0.262 C 
ATOM     14  O   UNL     1      -1.730   0.014  23.236  0.00  0.00    -0.271 OA
BRANCH  12   4
ATOM      4  C   UNL     1      -0.241  -0.194  23.915  0.00  0.00    +0.179 C 
BRANCH   4   2
ATOM      1  N   UNL     1      -0.003  -1.594  23.760  0.00  0.00    -0.086 NA
ATOM      2  C   UNL     1      -0.017  -0.920  24.235  0.00  0.00    +0.281 C 
ATOM      3  O   UNL     1       0.193  -0.972  25.032  0.00  0.00    -0.270 OA
ENDBRANCH   4   2
BRANCH   4   5
ATOM      5  C   UNL     1       0.101   0.072  23.212  0.00  0.00    +0.059 C 
BRANCH   5   6
ATOM      6  C   UNL     1       0.870   0.373  23.217  0.00  0.00    -0.001 A 
ATOM      7  C   UNL     1       1.457   0.012  22.764  0.00  0.00    -0.001 A 
ATOM      8  C   UNL     1       2.225   0.313  22.768  0.00  0.00    +0.020 A 
ATOM      9  C   UNL     1       2.407   0.975  23.225  0.00  0.00    +0.099 A 
ATOM     10  N   UNL     1       1.819   1.337  23.678  0.00  0.00    -0.243 NA
ATOM     11  C   UNL     1       1.051   1.036  23.674  0.00  0.00    +0.095 A 
ENDBRANCH   5   6
ENDBRANCH   4   5
ENDBRANCH  12   4
ENDBRANCH  15  13
TORSDOF 7
ENDMDL
MODEL 6
REMARK VINA RESULT:      -8.4      2.562      4.250
REMARK  Name = 
REMARK  7 active torsions:
REMARK  status: ('A' for Active; 'I' for Inactive)
REMARK    1  A    between atoms: C_2  and  C_4
REMARK    2  A    between atoms: C_4  and  C_5
REMARK    3  A    between atoms: C_4  and  N_12
REMARK    4  A    between atoms: C_5  and  C_6
REMARK    5  A    between atoms: C_13  and  C_15
REMARK    6  A    between atoms: N_23  and  C_24
REMARK    7  A    between atoms: N_32  and  C_33
REMARK                            x       y       z     vdW  Elec       q    Type
REMARK                         _______ _______ _______ _____ _____    ______ ____
ROOT
ATOM     15  C   UNL     1      -2.612   1.007  24.599  0.00  0.00    +0.175 C 
ATOM     16  C   UNL     1      -2.226   1.737  24.611  0.00  0.00    +0.124 C 
ATOM     17  N   UNL     1      -1.409   1.769  24.719  0.00  0.00    -0.259 N 
ATOM     18  C   UNL     1      -0.978   1.072  24.814  0.00  0.00    +0.117 C 
ATOM     19  C   UNL     1      -1.363   0.343  24.801  0.00  0.00    +0.117 C 
ATOM     20  N   UNL     1      -2.181   0.311  24.694  0.00  0.00    -0.253 N 
ATOM     21  C   UNL     1      -2.567  -0.419  24.681  0.00  0.00    +0.324 C 
ATOM     22  O   UNL     1      -3.383  -0.451  24.574  0.00  0.00    -0.251 OA
ATOM     23  N   UNL     1      -2.135  -1.115  24.776  0.00  0.00    -0.190 NA
ATOM     30  C   UNL     1      -1.023   2.498  24.731  0.00  0.00    +0.328 C 
ATOM     31  O   UNL     1      -0.205   2.530  24.839  0.00  0.00    -0.250 OA
ATOM     32  N   UNL     1      -1.454   3.195  24.636  0.00  0.00    -0.162 NA
ENDROOT
BRANCH  23  24
ATOM     24  C   UNL     1      -2.522  -1.843  24.764  0.00  0.00    +0.097 C 
ATOM     25  C   UNL     1      -2.501  -2.309  24.083  0.00  0.00    +0.022 C 
ATOM     26  C   UNL     1      -2.887  -3.039  24.070  0.00  0.00    +0.002 C 
ATOM     27  C   UNL     1      -3.294  -3.302  24.736  0.00  0.00    +0.000 C 
ATOM     28  C   UNL     1      -3.315  -2.836  25.418  0.00  0.00    +0.002 C 
ATOM     29  C   UNL     1      -2.929  -2.106  25.431  0.00  0.00    +0.022 C 
ENDBRANCH  23  24
BRANCH  32  33
ATOM     33  C   UNL     1      -1.069   3.924  24.648  0.00  0.00    +0.075 A 
ATOM     34  C   UNL     1      -1.301   4.505  25.186  0.00  0.00    +0.017 A 
ATOM     35  C   UNL     1      -0.915   5.234  25.198  0.00  0.00    +0.001 A 
ATOM     36  C   UNL     1      -0.296   5.382  24.672  0.00  0.00    +0.000 A 
ATOM     37  C   UNL     1      -0.064   4.801  24.135  0.00  0.00    +0.001 A 
ATOM     38  C   UNL     1      -0.449   4.072  24.123  0.00  0.00    +0.017 A 
ENDBRANCH  32  33
BRANCH  15  13
ATOM     12  N   UNL     1      -3.932   1.325  25.043  0.00  0.00    -0.196 NA
ATOM     13  C   UNL     1      -3.429   0.975  24.491  0.00  0.00    +0.262 C 
ATOM     14  O   UNL     1      -3.744   0.592  23.831  0.00  0.00    -0.271 OA
BRANCH  12   4
ATOM      4  C   UNL     1      -4.749   1.293  24.935  0.00  0.00    +0.179 C 
BRANCH   4   2
ATOM      1  N   UNL     1      -5.680   0.226  24.741  0.00  0.00    -0.086 NA
ATOM      2  C   UNL     1      -5.180   0.657  25.236  0.00  0.00    +0.281 C 
ATOM      3  O   UNL     1      -5.110   0.451  26.033  0.00  0.00    -0.270 OA
ENDBRANCH   4   2
BRANCH   4   5
ATOM      5  C   UNL     1      -5.135   1.897  24.527  0.00  0.00    +0.059 C 
BRANCH   5   6
ATOM      6  C   UNL     1      -5.271   2.623  24.897  0.00  0.00    -0.001 A 
ATOM      7  C   UNL     1      -4.858   3.293  24.652  0.00  0.00    -0.001 A 
ATOM      8  C   UNL     1      -4.993   4.019  25.021  0.00  0.00    +0.020 A 
ATOM      9  C   UNL     1      -5.542   4.074  25.635  0.00  0.00    +0.099 A 
ATOM     10  N   UNL     1      -5.955   3.403  25.879  0.00  0.00    -0.243 NA
ATOM     11  C   UNL     1      -5.820   2.677  25.510  0.00  0.00    +0.095 A 
ENDBRANCH   5   6
ENDBRANCH   4   5
ENDBRANCH  12   4
ENDBRANCH  15  13
TORSDOF 7
ENDMDL
MODEL 7
REMARK VINA RESULT:      -8.0      1.626      5.129
REMARK  Name = 
REMARK  7 active torsions:
REMARK  status: ('A' for Active; 'I' for Inactive)
REMARK    1  A    between atoms: C_2  and  C_4
REMARK    2  A    between atoms: C_4  and  C_5
REMARK    3  A    between atoms: C_4  and  N_12
REMARK    4  A    between atoms: C_5  and  C_6
REMARK    5  A    between atoms: C_13  and  C_15
REMARK    6  A    between atoms: N_23  and  C_24
REMARK    7  A    between atoms: N_32  and  C_33
REMARK                            x       y       z     vdW  Elec       q    Type
REMARK                         _______ _______ _______ _____ _____    ______ ____
ROOT
ATOM     15  C   UNL     1      -2.335   1.457  24.391  0.00  0.00    +0.175 C 
ATOM     16  C   UNL     1      -2.629   0.686  24.373  0.00  0.00    +0.124 C 
ATOM     17  N   UNL     1      -3.377   0.522  24.680  0.00  0.00    -0.259 N 
ATOM     18  C   UNL     1      -3.831   1.130  25.005  0.00  0.00    +0.117 C 
ATOM     19  C   UNL     1      -3.538   1.900  25.024  0.00  0.00    +0.117 C 
ATOM     20  N   UNL     1      -2.790   2.064  24.716  0.00  0.00    -0.253 N 
ATOM     21  C   UNL     1      -2.495   2.835  24.735  0.00  0.00    +0.324 C 
ATOM     22  O   UNL     1      -1.748   2.999  24.428  0.00  0.00    -0.251 OA
ATOM     23  N   UNL     1      -2.950   3.441  25.060  0.00  0.00    -0.190 NA
ATOM     30  C   UNL     1      -3.670  -0.248  24.661  0.00  0.00    +0.328 C 
ATOM     31  O   UNL     1      -4.419  -0.412  24.969  0.00  0.00    -0.250 OA
ATOM     32  N   UNL     1      -3.217  -0.855  24.336  0.00  0.00    -0.162 NA
ENDROOT
BRANCH  23  24
ATOM     24  C   UNL     1      -2.656   4.212  25.078  0.00  0.00    +0.097 C 
ATOM     25  C   UNL     1      -2.955   4.779  24.559  0.00  0.00    +0.022 C 
ATOM     26  C   UNL     1      -2.660   5.551  24.576  0.00  0.00    +0.002 C 
ATOM     27  C   UNL     1      -2.069   5.754  25.113  0.00  0.00    +0.000 C 
ATOM     28  C   UNL     1      -1.770   5.186  25.633  0.00  0.00    +0.002 C 
ATOM     29  C   UNL     1      -2.064   4.415  25.615  0.00  0.00    +0.022 C 
ENDBRANCH  23  24
BRANCH  32  33
ATOM     33  C   UNL     1      -3.510  -1.626  24.317  0.00  0.00    +0.075 A 
ATOM     34  C   UNL     1      -4.087  -1.835  23.766  0.00  0.00    +0.017 A 
ATOM     35  C   UNL     1      -4.380  -2.605  23.747  0.00  0.00    +0.001 A 
ATOM     36  C   UNL     1      -4.097  -3.168  24.281  0.00  0.00    +0.000 A 
ATOM     37  C   UNL     1      -3.521  -2.959  24.833  0.00  0.00    +0.001 A 
ATOM     38  C   UNL     1      -3.227  -2.188  24.852  0.00  0.00    +0.017 A 
ENDBRANCH  32  33
BRANCH  15  13
ATOM     12  N   UNL     1      -0.919   1.275  24.420  0.00  0.00    -0.196 NA
ATOM     13  C   UNL     1      -1.588   1.621  24.084  0.00  0.00    +0.262 C 
ATOM     14  O   UNL     1      -1.509   2.131  23.440  0.00  0.00    -0.271 OA
BRANCH  12   4
ATOM      4  C   UNL     1      -0.171   1.439  24.113  0.00  0.00    +0.179 C 
BRANCH   4   2
ATOM      1  N   UNL     1       0.784   2.500  24.188  0.00  0.00    -0.086 NA
ATOM      2  C   UNL     1       0.365   1.889  24.550  0.00  0.00    +0.281 C 
ATOM      3  O   UNL     1       0.482   1.727  25.352  0.00  0.00    -0.270 OA
ENDBRANCH   4   2
BRANCH   4   5
ATOM      5  C   UNL     1       0.041   1.153  23.369  0.00  0.00    +0.059 C 
BRANCH   5   6
ATOM      6  C   UNL     1       0.468   0.449  23.304  0.00  0.00    -0.001 A 
ATOM      7  C   UNL     1       1.157   0.425  22.852  0.00  0.00    -0.001 A 
ATOM      8  C   UNL     1       1.584  -0.278  22.787  0.00  0.00    +0.020 A 
ATOM      9  C   UNL     1       1.321  -0.957  23.174  0.00  0.00    +0.099 A 
ATOM     10  N   UNL     1       0.631  -0.933  23.627  0.00  0.00    -0.243 NA
ATOM     11  C   UNL     1       0.205  -0.230  23.692  0.00  0.00    +0.095 A 
ENDBRANCH   5   6
ENDBRANCH   4   5
ENDBRANCH  12   4
ENDBRANCH  15  13
TORSDOF 7
ENDMDL
