MODEL 1
REMARK VINA RESULT:      -9.1      0.000      0.000
REMARK  Name = 
REMARK  8 active torsions:
REMARK  status: ('A' for Active; 'I' for Inactive)
REMARK    1  A    between atoms: C_2  and  C_3
REMARK    2  A    between atoms: C_3  and  S_4
REMARK    3  A    between atoms: S_4  and  N_7
REMARK    4  A    between atoms: N_7  and  C_8
REMARK    5  A    between atoms: C_11  and  C_14
REMARK    6  A    between atoms: N_19  and  C_20
REMARK    7  A    between atoms: C_20  and  C_21
REMARK    8  A    between atoms: C_26  and  C_27
REMARK                            x       y       z     vdW  Elec       q    Type
REMARK                         _______ _______ _______ _____ _____    ______ ____
ROOT
ATOM     14  C   UNL     1      -4.540   1.285  24.851  0.00  0.00    +0.159 C 
ATOM     15  O   UNL     1      -5.315   1.530  24.989  0.00  0.00    -0.341 OA
ATOM     16  C   UNL     1      -5.488   2.333  25.060  0.00  0.00    +0.227 C 
ATOM     17  C   UNL     1      -4.885   2.892  24.993  0.00  0.00    +0.256 C 
ATOM     18  O   UNL     1      -5.059   3.696  25.064  0.00  0.00    -0.272 OA
ATOM     19  N   UNL     1      -4.109   2.648  24.854  0.00  0.00    -0.265 N 
ATOM     26  C   UNL     1      -3.936   1.844  24.783  0.00  0.00    +0.140 C 
ENDROOT
BRANCH  14  11
ATOM      8  C   UNL     1      -4.021  -1.125  24.638  0.00  0.00    +0.091 A 
ATOM      9  C   UNL     1      -4.233  -0.689  23.972  0.00  0.00    +0.018 A 
ATOM     10  C   UNL     1      -4.406   0.115  24.042  0.00  0.00    -0.001 A 
ATOM     11  C   UNL     1      -4.367   0.482  24.780  0.00  0.00    +0.006 A 
ATOM     12  C   UNL     1      -4.155   0.045  25.447  0.00  0.00    -0.001 A 
ATOM     13  C   UNL     1      -3.982  -0.759  25.377  0.00  0.00    +0.018 A 
BRANCH   8   7
ATOM      7  N   UNL     1      -3.848  -1.930  24.567  0.00  0.00    -0.101 NA
BRANCH   7   4
ATOM      4  S   UNL     1      -3.096  -2.208  24.762  0.00  0.00    +0.073 S 
ATOM      5  O   UNL     1      -2.812  -1.953  24.031  0.00  0.00    -0.153 OA
ATOM      6  O   UNL     1      -3.380  -2.463  25.494  0.00  0.00    -0.153 OA
BRANCH   4   3
ATOM      3  C   UNL     1      -2.344  -2.487  24.957  0.00  0.00    +0.174 C 
BRANCH   3   2
ATOM      1  C   UNL     1      -0.986  -2.652  24.545  0.00  0.00    +0.002 C 
ATOM      2  C   UNL     1      -1.789  -2.627  24.362  0.00  0.00    +0.027 C 
ENDBRANCH   3   2
ENDBRANCH   4   3
ENDBRANCH   7   4
ENDBRANCH   8   7
ENDBRANCH  14  11
BRANCH  26  27
ATOM     27  C   UNL     1      -3.160   1.600  24.645  0.00  0.00    +0.205 C 
ATOM     28  O   UNL     1      -2.820   1.708  23.902  0.00  0.00    -0.218 OA
ENDBRANCH  26  27
BRANCH  19  20
ATOM     20  C   UNL     1      -3.506   3.207  24.787  0.00  0.00    +0.179 C 
BRANCH  20  21
ATOM     21  C   UNL     1      -3.236   3.605  25.458  0.00  0.00    +0.246 C 
ATOM     22  O   UNL     1      -3.564   3.438  26.196  0.00  0.00    -0.273 OA
ATOM     23  N   UNL     1      -2.639   4.170  25.390  0.00  0.00    -0.275 N 
ATOM     24  C   UNL     1      -2.369   4.568  26.060  0.00  0.00    +0.115 C 
ATOM     25  C   UNL     1      -2.311   4.336  24.652  0.00  0.00    +0.115 C 
ENDBRANCH  20  21
ENDBRANCH  19  20
TORSDOF 8
ENDMDL
MODEL 2
REMARK VINA RESULT:      -8.7      1.958      2.826
REMARK  Name = 
REMARK  8 active torsions:
REMARK  status: ('A' for Active; 'I' for Inactive)
REMARK    1  A    between atoms: C_2  and  C_3
REMARK    2  A    between atoms: C_3  and  S_4
REMARK    3  A    between atoms: S_4  and  N_7
REMARK    4  A    between atoms: N_7  and  C_8
REMARK    5  A    between atoms: C_11  and  C_14
REMARK    6  A    between atoms: N_19  and  C_20
REMARK    7  A    between atoms: C_20  and  C_21
REMARK    8  A    between atoms: C_26  and  C_27
REMARK                            x       y       z     vdW  Elec       q    Type
REMARK                         _______ _______ _______ _____ _____    ______ ____
ROOT
ATOM     14  C   UNL     1      -0.777   1.257  25.183  0.00  0.00    +0.159 C 
ATOM     15  O   UNL     1      -0.017   1.536  25.340  0.00  0.00    -0.341 OA
ATOM     16  C   UNL     1       0.127   2.347  25.372  0.00  0.00    +0.227 C 
ATOM     17  C   UNL     1      -0.490   2.880  25.247  0.00  0.00    +0.256 C 
ATOM     18  O   UNL     1      -0.346   3.693  25.279  0.00  0.00    -0.272 OA
ATOM     19  N   UNL     1      -1.251   2.602  25.089  0.00  0.00    -0.265 N 
ATOM     26  C   UNL     1      -1.394   1.791  25.057  0.00  0.00    +0.140 C 
ENDROOT
BRANCH  14  11
ATOM      8  C   UNL     1      -1.209  -1.178  25.087  0.00  0.00    +0.091 A 
ATOM      9  C   UNL     1      -0.875  -0.792  24.439  0.00  0.00    +0.018 A 
ATOM     10  C   UNL     1      -0.732   0.019  24.471  0.00  0.00    -0.001 A 
ATOM     11  C   UNL     1      -0.921   0.446  25.151  0.00  0.00    +0.006 A 
ATOM     12  C   UNL     1      -1.255   0.060  25.800  0.00  0.00    -0.001 A 
ATOM     13  C   UNL     1      -1.399  -0.752  25.768  0.00  0.00    +0.018 A 
BRANCH   8   7
ATOM      7  N   UNL     1      -1.353  -1.990  25.055  0.00  0.00    -0.101 NA
BRANCH   7   4
ATOM      4  S   UNL     1      -1.996  -2.278  24.626  0.00  0.00    +0.073 S 
ATOM      5  O   UNL     1      -1.495  -2.463  23.997  0.00  0.00    -0.153 OA
ATOM      6  O   UNL     1      -2.498  -2.093  25.255  0.00  0.00    -0.153 OA
BRANCH   4   3
ATOM      3  C   UNL     1      -2.640  -2.566  24.197  0.00  0.00    +0.174 C 
BRANCH   3   2
ATOM      1  C   UNL     1      -4.017  -2.949  24.175  0.00  0.00    +0.002 C 
ATOM      2  C   UNL     1      -3.318  -2.823  24.593  0.00  0.00    +0.027 C 
ENDBRANCH   3   2
ENDBRANCH   4   3
ENDBRANCH   7   4
ENDBRANCH   8   7
ENDBRANCH  14  11
BRANCH  26  27
ATOM     27  C   UNL     1      -2.156   1.512  24.899  0.00  0.00    +0.205 C 
ATOM     28  O   UNL     1      -2.458   1.550  24.134  0.00  0.00    -0.218 OA
ENDBRANCH  26  27
BRANCH  19  20
ATOM     20  C   UNL     1      -1.868   3.136  24.963  0.00  0.00    +0.179 C 
BRANCH  20  21
ATOM     21  C   UNL     1      -2.199   3.542  25.602  0.00  0.00    +0.246 C 
ATOM     22  O   UNL     1      -1.908   3.417  26.365  0.00  0.00    -0.273 OA
ATOM     23  N   UNL     1      -2.818   4.071  25.478  0.00  0.00    -0.275 N 
ATOM     24  C   UNL     1      -3.149   4.476  26.116  0.00  0.00    +0.115 C 
ATOM     25  C   UNL     1      -3.108   4.195  24.716  0.00  0.00    +0.115 C 
ENDBRANCH  20  21
ENDBRANCH  19  20
TORSDOF 8
ENDMDL
MODEL 3
REMARK VINA RESULT:      -8.7      2.512      5.623
REMARK  Name = 
REMARK  8 active torsions:
REMARK  status: ('A' for Active; 'I' for Inactive)
REMARK    1  A    between atoms: C_2  and  C_3
REMARK    2  A    between atoms: C_3  and  S_4
REMARK    3  A    between atoms: S_4  and  N_7
REMARK    4  A    between atoms: N_7  and  C_8
REMARK    5  A    between atoms: C_11  and  C_14
REMARK    6  A    between atoms: N_19  and  C_20
REMARK    7  A    between atoms: C_20  and  C_21
REMARK    8  A    between atoms: C_26  and  C_27
REMARK                            x       y       z     vdW  Elec       q    Type
REMARK                         _______ _______ _______ _____ _____    ______ ____
ROOT
ATOM     14  C   UNL     1      -0.831   0.047  24.738  0.00  0.00    +0.159 C 
ATOM     15  O   UNL     1      -0.194  -0.476  24.693  0.00  0.00    -0.341 OA
ATOM     16  C   UNL     1      -0.325  -1.272  24.520  0.00  0.00    +0.227 C 
ATOM     17  C   UNL     1      -1.092  -1.545  24.392  0.00  0.00    +0.256 C 
ATOM     18  O   UNL     1      -1.223  -2.342  24.218  0.00  0.00    -0.272 OA
ATOM     19  N   UNL     1      -1.730  -1.023  24.437  0.00  0.00    -0.265 N 
ATOM     26  C   UNL     1      -1.599  -0.227  24.610  0.00  0.00    +0.140 C 
ENDROOT
BRANCH  14  11
ATOM      8  C   UNL     1      -0.439   2.434  25.258  0.00  0.00    +0.091 A 
ATOM      9  C   UNL     1      -0.302   2.150  24.496  0.00  0.00    +0.018 A 
ATOM     10  C   UNL     1      -0.433   1.354  24.322  0.00  0.00    -0.001 A 
ATOM     11  C   UNL     1      -0.700   0.842  24.911  0.00  0.00    +0.006 A 
ATOM     12  C   UNL     1      -0.836   1.126  25.674  0.00  0.00    -0.001 A 
ATOM     13  C   UNL     1      -0.706   1.922  25.848  0.00  0.00    +0.018 A 
BRANCH   8   7
ATOM      7  N   UNL     1      -0.308   3.231  25.431  0.00  0.00    -0.101 NA
BRANCH   7   4
ATOM      4  S   UNL     1      -0.891   3.790  25.264  0.00  0.00    +0.073 S 
ATOM      5  O   UNL     1      -0.522   3.960  24.546  0.00  0.00    -0.153 OA
ATOM      6  O   UNL     1      -1.260   3.620  25.982  0.00  0.00    -0.153 OA
BRANCH   4   3
ATOM      3  C   UNL     1      -1.474   4.349  25.097  0.00  0.00    +0.174 C 
BRANCH   3   2
ATOM      1  C   UNL     1      -1.890   5.716  25.077  0.00  0.00    +0.002 C 
ATOM      2  C   UNL     1      -1.288   5.154  25.105  0.00  0.00    +0.027 C 
ENDBRANCH   3   2
ENDBRANCH   4   3
ENDBRANCH   7   4
ENDBRANCH   8   7
ENDBRANCH  14  11
BRANCH  26  27
ATOM     27  C   UNL     1      -2.237   0.296  24.655  0.00  0.00    +0.205 C 
ATOM     28  O   UNL     1      -2.635   0.520  23.970  0.00  0.00    -0.218 OA
ENDBRANCH  26  27
BRANCH  19  20
ATOM     20  C   UNL     1      -2.498  -1.296  24.308  0.00  0.00    +0.179 C 
BRANCH  20  21
ATOM     21  C   UNL     1      -2.842  -1.826  24.841  0.00  0.00    +0.246 C 
ATOM     22  O   UNL     1      -2.503  -1.941  25.584  0.00  0.00    -0.273 OA
ATOM     23  N   UNL     1      -3.522  -2.240  24.629  0.00  0.00    -0.275 N 
ATOM     24  C   UNL     1      -3.865  -2.769  25.160  0.00  0.00    +0.115 C 
ATOM     25  C   UNL     1      -3.860  -2.125  23.886  0.00  0.00    +0.115 C 
ENDBRANCH  20  21
ENDBRANCH  19  20
TORSDOF 8
ENDMDL
MODEL 4
REMARK VINA RESULT:      -8.4      1.657      4.935
REMARK  Name = 
REMARK  8 active torsions:
REMARK  status: ('A' for Active; 'I' for Inactive)
REMARK    1  A    between atoms: C_2  and  C_3
REMARK    2  A    between atoms: C_3  and  S_4
REMARK    3  A    between atoms: S_4  and  N_7
REMARK    4  A    between atoms: N_7  and  C_8
REMARK    5  A    between atoms: C_11  and  C_14
REMARK    6  A    between atoms: N_19  and  C_20
REMARK    7  A    between atoms: C_20  and  C_21
REMARK    8  A    between atoms: C_26  and  C_27
REMARK                            x       y       z     vdW  Elec       q    Type
REMARK                         _______ _______ _______ _____ _____    ______ ____
ROOT
ATOM     14  C   UNL     1      -3.878   0.642  24.447  0.00  0.00    +0.159 C 
ATOM     15  O   UNL     1      -4.640   0.334  24.378  0.00  0.00    -0.341 OA
ATOM     16  C   UNL     1      -4.748  -0.473  24.243  0.00  0.00    +0.227 C 
ATOM     17  C   UNL     1      -4.094  -0.971  24.178  0.00  0.00    +0.256 C 
ATOM     18  O   UNL     1      -4.203  -1.779  24.044  0.00  0.00    -0.272 OA
ATOM     19  N   UNL     1      -3.332  -0.664  24.248  0.00  0.00    -0.265 N 
ATOM     26  C   UNL     1      -3.223   0.143  24.382  0.00  0.00    +0.140 C 
ENDROOT
BRANCH  14  11
ATOM      8  C   UNL     1      -3.553   3.061  24.850  0.00  0.00    +0.091 A 
ATOM      9  C   UNL     1      -3.578   2.537  25.486  0.00  0.00    +0.018 A 
ATOM     10  C   UNL     1      -3.686   1.731  25.352  0.00  0.00    -0.001 A 
ATOM     11  C   UNL     1      -3.769   1.448  24.582  0.00  0.00    +0.006 A 
ATOM     12  C   UNL     1      -3.744   1.973  23.945  0.00  0.00    -0.001 A 
ATOM     13  C   UNL     1      -3.636   2.780  24.079  0.00  0.00    +0.018 A 
BRANCH   8   7
ATOM      7  N   UNL     1      -3.444   3.869  24.985  0.00  0.00    -0.101 NA
BRANCH   7   4
ATOM      4  S   UNL     1      -2.698   4.156  25.189  0.00  0.00    +0.073 S 
ATOM      5  O   UNL     1      -2.477   4.146  24.394  0.00  0.00    -0.153 OA
ATOM      6  O   UNL     1      -2.919   4.166  25.984  0.00  0.00    -0.153 OA
BRANCH   4   3
ATOM      3  C   UNL     1      -1.952   4.443  25.393  0.00  0.00    +0.174 C 
BRANCH   3   2
ATOM      1  C   UNL     1      -0.847   5.270  25.021  0.00  0.00    +0.002 C 
ATOM      2  C   UNL     1      -1.658   5.124  25.028  0.00  0.00    +0.027 C 
ENDBRANCH   3   2
ENDBRANCH   4   3
ENDBRANCH   7   4
ENDBRANCH   8   7
ENDBRANCH  14  11
BRANCH  26  27
ATOM     27  C   UNL     1      -2.461   0.451  24.452  0.00  0.00    +0.205 C 
ATOM     28  O   UNL     1      -1.989   0.540  23.782  0.00  0.00    -0.218 OA
ENDBRANCH  26  27
BRANCH  19  20
ATOM     20  C   UNL     1      -2.677  -1.162  24.183  0.00  0.00    +0.179 C 
BRANCH  20  21
ATOM     21  C   UNL     1      -2.482  -1.669  24.805  0.00  0.00    +0.246 C 
ATOM     22  O   UNL     1      -2.898  -1.628  25.517  0.00  0.00    -0.273 OA
ATOM     23  N   UNL     1      -1.871  -2.215  24.715  0.00  0.00    -0.275 N 
ATOM     24  C   UNL     1      -1.675  -2.722  25.337  0.00  0.00    +0.115 C 
ATOM     25  C   UNL     1      -1.455  -2.256  24.004  0.00  0.00    +0.115 C 
ENDBRANCH  20  21
ENDBRANCH  19  20
TORSDOF 8
ENDMDL
MODEL 5
REMARK VINA RESULT:      -8.1      2.244      5.375
REMARK  Name = 
REMARK  8 active torsions:
REMARK  status: ('A' for Active; 'I' for Inactive)
REMARK    1  A    between atoms: C_2  and  C_3
REMARK    2  A    between atoms: C_3  and  S_4
REMARK    3  A    between atoms: S_4  and  N_7
REMARK    4  A    between atoms: N_7  and  C_8
REMARK    5  A    between atoms: C_11  and  C_14
REMARK    6  A    between atoms: N_19  and  C_20
REMARK    7  A    between atoms: C_20  and  C_21
REMARK    8  A    between atoms: C_26  and  C_27
REMARK                            x       y       z     vdW  Elec       q    Type
REMARK                         _______ _______ _______ _____ _____    ______ ____
ROOT
ATOM     14  C   UNL     1      -1.135   1.328  24.210  0.00  0.00    +0.159 C 
ATOM     15  O   UNL     1      -0.365   1.464  23.947  0.00  0.00    -0.341 OA
ATOM     16  C   UNL     1       0.126   0.829  23.760  0.00  0.00    +0.227 C 
ATOM     17  C   UNL     1      -0.152   0.056  23.836  0.00  0.00    +0.256 C 
ATOM     18  O   UNL     1       0.340  -0.580  23.649  0.00  0.00    -0.272 OA
ATOM     19  N   UNL     1      -0.922  -0.081  24.099  0.00  0.00    -0.265 N 
ATOM     26  C   UNL     1      -1.414   0.554  24.286  0.00  0.00    +0.140 C 
ENDROOT
BRANCH  14  11
ATOM      8  C   UNL     1      -2.609   3.234  24.769  0.00  0.00    +0.091 A 
ATOM      9  C   UNL     1      -2.583   2.947  23.997  0.00  0.00    +0.018 A 
ATOM     10  C   UNL     1      -2.091   2.311  23.811  0.00  0.00    -0.001 A 
ATOM     11  C   UNL     1      -1.626   1.963  24.396  0.00  0.00    +0.006 A 
ATOM     12  C   UNL     1      -1.653   2.251  25.169  0.00  0.00    -0.001 A 
ATOM     13  C   UNL     1      -2.144   2.887  25.356  0.00  0.00    +0.018 A 
BRANCH   8   7
ATOM      7  N   UNL     1      -3.101   3.871  24.956  0.00  0.00    -0.101 NA
BRANCH   7   4
ATOM      4  S   UNL     1      -3.831   3.736  25.317  0.00  0.00    +0.073 S 
ATOM      5  O   UNL     1      -3.494   3.887  26.055  0.00  0.00    -0.153 OA
ATOM      6  O   UNL     1      -4.168   3.584  24.579  0.00  0.00    -0.153 OA
BRANCH   4   3
ATOM      3  C   UNL     1      -4.560   3.600  25.678  0.00  0.00    +0.174 C 
BRANCH   3   2
ATOM      1  C   UNL     1      -5.980   3.763  25.682  0.00  0.00    +0.002 C 
ATOM      2  C   UNL     1      -5.238   3.975  25.391  0.00  0.00    +0.027 C 
ENDBRANCH   3   2
ENDBRANCH   4   3
ENDBRANCH   7   4
ENDBRANCH   8   7
ENDBRANCH  14  11
BRANCH  26  27
ATOM     27  C   UNL     1      -2.184   0.417  24.549  0.00  0.00    +0.205 C 
ATOM     28  O   UNL     1      -2.762   0.163  24.019  0.00  0.00    -0.218 OA
ENDBRANCH  26  27
BRANCH  19  20
ATOM     20  C   UNL     1      -1.201  -0.854  24.176  0.00  0.00    +0.179 C 
BRANCH  20  21
ATOM     21  C   UNL     1      -0.935  -1.329  24.797  0.00  0.00    +0.246 C 
ATOM     22  O   UNL     1      -0.441  -1.011  25.376  0.00  0.00    -0.273 OA
ATOM     23  N   UNL     1      -1.164  -2.120  24.838  0.00  0.00    -0.275 N 
ATOM     24  C   UNL     1      -0.898  -2.594  25.459  0.00  0.00    +0.115 C 
ATOM     25  C   UNL     1      -1.657  -2.437  24.259  0.00  0.00    +0.115 C 
ENDBRANCH  20  21
ENDBRANCH  19  20
TORSDOF 8
ENDMDL
MODEL 6
REMARK VINA RESULT:      -8.1      2.551      4.777
REMARK  Name = 
REMARK  8 active torsions:
REMARK  status: ('A' for Active; 'I' for Inactive)
REMARK    1  A    between atoms: C_2  and  C_3
REMARK    2  A    between atoms: C_3  and  S_4
REMARK    3  A    between atoms: S_4  and  N_7
REMARK    4  A    between atoms: N_7  and  C_8
REMARK    5  A    between atoms: C_11  and  C_14
REMARK    6  A    between atoms: N_19  and  C_20
REMARK    7  A    between atoms: C_20  and  C_21
REMARK    8  A    between atoms: C_26  and  C_27
REMARK                            x       y       z     vdW  Elec       q    Type
REMARK                         _______ _______ _______ _____ _____    ______ ____
ROOT
ATOM     14  C   UNL     1      -1.984  -0.301  24.638  0.00  0.00    +0.159 C 
ATOM     15  O   UNL     1      -1.923  -1.081  24.898  0.00  0.00    -0.341 OA
ATOM     16  C   UNL     1      -1.193  -1.465  24.883  0.00  0.00    +0.227 C 
ATOM     17  C   UNL     1      -0.525  -1.069  24.609  0.00  0.00    +0.256 C 
ATOM     18  O   UNL     1       0.206  -1.454  24.594  0.00  0.00    -0.272 OA
ATOM     19  N   UNL     1      -0.585  -0.289  24.348  0.00  0.00    -0.265 N 
ATOM     26  C   UNL     1      -1.315   0.096  24.363  0.00  0.00    +0.140 C 
ENDROOT
BRANCH  14  11
ATOM      8  C   UNL     1      -4.173   0.851  24.682  0.00  0.00    +0.091 A 
ATOM      9  C   UNL     1      -3.854   0.601  23.965  0.00  0.00    +0.018 A 
ATOM     10  C   UNL     1      -3.124   0.217  23.950  0.00  0.00    -0.001 A 
ATOM     11  C   UNL     1      -2.714   0.083  24.653  0.00  0.00    +0.006 A 
ATOM     12  C   UNL     1      -3.034   0.333  25.371  0.00  0.00    -0.001 A 
ATOM     13  C   UNL     1      -3.764   0.717  25.386  0.00  0.00    +0.018 A 
BRANCH   8   7
ATOM      7  N   UNL     1      -4.904   1.236  24.697  0.00  0.00    -0.101 NA
BRANCH   7   4
ATOM      4  S   UNL     1      -4.948   2.029  24.921  0.00  0.00    +0.073 S 
ATOM      5  O   UNL     1      -4.713   2.256  24.164  0.00  0.00    -0.153 OA
ATOM      6  O   UNL     1      -5.184   1.801  25.679  0.00  0.00    -0.153 OA
BRANCH   4   3
ATOM      3  C   UNL     1      -4.992   2.822  25.145  0.00  0.00    +0.174 C 
BRANCH   3   2
ATOM      1  C   UNL     1      -5.759   3.932  25.615  0.00  0.00    +0.002 C 
ATOM      2  C   UNL     1      -5.701   3.130  25.435  0.00  0.00    +0.027 C 
ENDBRANCH   3   2
ENDBRANCH   4   3
ENDBRANCH   7   4
ENDBRANCH   8   7
ENDBRANCH  14  11
BRANCH  26  27
ATOM     27  C   UNL     1      -1.375   0.877  24.102  0.00  0.00    +0.205 C 
ATOM     28  O   UNL     1      -1.071   1.489  24.562  0.00  0.00    -0.218 OA
ENDBRANCH  26  27
BRANCH  19  20
ATOM     20  C   UNL     1       0.084   0.109  24.073  0.00  0.00    +0.179 C 
BRANCH  20  21
ATOM     21  C   UNL     1       0.444  -0.129  23.369  0.00  0.00    +0.246 C 
ATOM     22  O   UNL     1       0.091  -0.709  22.900  0.00  0.00    -0.273 OA
ATOM     23  N   UNL     1       1.157   0.214  23.134  0.00  0.00    -0.275 N 
ATOM     24  C   UNL     1       1.516  -0.024  22.430  0.00  0.00    +0.115 C 
ATOM     25  C   UNL     1       1.510   0.793  23.602  0.00  0.00    +0.115 C 
ENDBRANCH  20  21
ENDBRANCH  19  20
TORSDOF 8
ENDMDL
