REMARK  Name = 
REMARK  9 active torsions:
REMARK  status: ('A' for Active; 'I' for Inactive)
REMARK    1  A    between atoms: O_2  and  C_3
REMARK    2  A    between atoms: C_5  and  S_6
REMARK    3  A    between atoms: C_10  and  C_11
REMARK    4  A    between atoms: N_13  and  C_14
REMARK    5  A    between atoms: C_16  and  C_23
REMARK    6  A    between atoms: N_25  and  C_26
REMARK    7  A    between atoms: C_26  and  C_27
REMARK    8  A    between atoms: C_26  and  C_33
REMARK    9  A    between atoms: C_27  and  C_28
REMARK                            x       y       z     vdW  Elec       q    Type
REMARK                         _______ _______ _______ _____ _____    ______ ____
ROOT
ATOM     14  C   UNL     1      -2.904  -0.412   0.000  0.00  0.00    +0.131 C 
ATOM     15  C   UNL     1      -2.622   0.363   0.000  0.00  0.00    +0.064 C 
ATOM     16  C   UNL     1      -1.809   0.506   0.000  0.00  0.00    +0.200 C 
ATOM     17  O   UNL     1      -2.091   1.281   0.000  0.00  0.00    -0.216 OA
ATOM     18  C   UNL     1      -1.279  -0.126   0.000  0.00  0.00    +0.075 C 
ATOM     19  C   UNL     1      -1.561  -0.901   0.000  0.00  0.00    +0.187 C 
ATOM     20  O   UNL     1      -1.031  -1.533   0.000  0.00  0.00    -0.220 OA
ATOM     21  C   UNL     1      -2.373  -1.044   0.000  0.00  0.00    +0.202 C 
ATOM     22  O   UNL     1      -2.656  -1.820   0.000  0.00  0.00    -0.219 OA
ENDROOT
BRANCH  14  13
ATOM     11  C   UNL     1      -3.998  -1.331   0.000  0.00  0.00    +0.268 C 
ATOM     12  O   UNL     1      -3.468  -1.963   0.000  0.00  0.00    -0.268 OA
ATOM     13  N   UNL     1      -3.716  -0.556   0.000  0.00  0.00    -0.201 NA
BRANCH  11  10
ATOM      3  C   UNL     1      -5.093  -2.249   0.000  0.00  0.00    +0.144 A 
ATOM      4  C   UNL     1      -5.905  -2.393   0.000  0.00  0.00    +0.043 A 
ATOM      5  C   UNL     1      -6.436  -1.761   0.000  0.00  0.00    +0.028 A 
ATOM      8  C   UNL     1      -6.154  -0.986   0.000  0.00  0.00    +0.006 A 
ATOM      9  C   UNL     1      -5.341  -0.842   0.000  0.00  0.00    +0.008 A 
ATOM     10  C   UNL     1      -4.811  -1.474   0.000  0.00  0.00    +0.089 A 
BRANCH   3   2
ATOM      1  C   UNL     1      -3.750  -2.738   0.000  0.00  0.00    +0.252 C 
ATOM      2  O   UNL     1      -4.563  -2.881   0.000  0.00  0.00    -0.471 OA
ENDBRANCH   3   2
BRANCH   5   6
ATOM      6  S   UNL     1      -7.248  -1.904   0.000  0.00  0.00    -0.113 S 
ATOM      7  C   UNL     1      -7.779  -1.272   0.000  0.00  0.00    +0.074 C 
ENDBRANCH   5   6
ENDBRANCH  11  10
ENDBRANCH  14  13
BRANCH  16  23
ATOM     23  C   UNL     1      -1.095   0.918   0.000  0.00  0.00    +0.269 C 
ATOM     24  O   UNL     1      -0.380   0.506   0.000  0.00  0.00    -0.271 OA
ATOM     25  N   UNL     1      -1.095   1.744   0.000  0.00  0.00    -0.195 NA
BRANCH  25  26
ATOM     26  C   UNL     1      -0.380   2.156   0.000  0.00  0.00    +0.179 C 
BRANCH  26  33
ATOM     33  C   UNL     1       0.334   1.744   0.000  0.00  0.00    +0.281 C 
ATOM     34  N   UNL     1       1.049   2.156   0.000  0.00  0.00    -0.086 NA
ATOM     35  O   UNL     1       0.334   0.918   0.000  0.00  0.00    -0.270 OA
ENDBRANCH  26  33
BRANCH  26  27
ATOM     27  C   UNL     1      -0.380   2.981   0.000  0.00  0.00    +0.064 C 
BRANCH  27  28
ATOM     28  C   UNL     1       0.334   3.393   0.000  0.00  0.00    +0.010 A 
ATOM     29  C   UNL     1       0.420   4.214   0.000  0.00  0.00    +0.003 A 
ATOM     30  C   UNL     1       1.228   4.386   0.000  0.00  0.00    +0.007 A 
ATOM     31  C   UNL     1       1.640   3.671   0.000  0.00  0.00    +0.035 A 
ATOM     32  S   UNL     1       1.088   3.058   0.000  0.00  0.00    -0.091 S 
ENDBRANCH  27  28
ENDBRANCH  26  27
ENDBRANCH  25  26
ENDBRANCH  16  23
TORSDOF 9
