REMARK  Name = 
REMARK  6 active torsions:
REMARK  status: ('A' for Active; 'I' for Inactive)
REMARK    1  A    between atoms: C_5  and  C_6
REMARK    2  A    between atoms: C_6  and  C_7
REMARK    3  A    between atoms: C_10  and  C_12
REMARK    4  A    between atoms: C_20  and  C_21
REMARK    5  A    between atoms: C_21  and  N_22
REMARK    6  A    between atoms: C_23  and  C_25
REMARK                            x       y       z     vdW  Elec       q    Type
REMARK                         _______ _______ _______ _____ _____    ______ ____
ROOT
ATOM      1  O   UNL     1      -0.656  -6.904   0.000  0.00  0.00    -0.220 OA
ATOM      2  C   UNL     1      -0.656  -6.079   0.000  0.00  0.00    +0.181 C 
ATOM      3  C   UNL     1      -1.371  -5.666   0.000  0.00  0.00    +0.038 C 
ATOM      4  C   UNL     1      -1.371  -4.841   0.000  0.00  0.00    +0.033 C 
ATOM      5  C   UNL     1      -0.656  -4.429   0.000  0.00  0.00    +0.121 C 
ATOM     19  O   UNL     1       0.058  -4.841   0.000  0.00  0.00    -0.354 OA
ATOM     20  C   UNL     1       0.058  -5.666   0.000  0.00  0.00    +0.167 C 
ENDROOT
BRANCH   5   6
ATOM      6  C   UNL     1      -0.656  -3.604   0.000  0.00  0.00    +0.079 C 
BRANCH   6   7
ATOM      7  C   UNL     1      -1.371  -3.191   0.000  0.00  0.00    +0.103 A 
ATOM      8  N   UNL     1      -2.124  -3.527   0.000  0.00  0.00    -0.081 NA
ATOM      9  O   UNL     1      -2.676  -2.913   0.000  0.00  0.00    -0.354 OA
ATOM     10  C   UNL     1      -2.264  -2.199   0.000  0.00  0.00    +0.177 A 
ATOM     11  C   UNL     1      -1.457  -2.371   0.000  0.00  0.00    +0.058 A 
BRANCH  10  12
ATOM     12  C   UNL     1      -2.599  -1.445   0.000  0.00  0.00    +0.037 A 
ATOM     13  C   UNL     1      -3.420  -1.359   0.000  0.00  0.00    +0.005 A 
ATOM     14  C   UNL     1      -3.756  -0.606   0.000  0.00  0.00    +0.030 A 
ATOM     15  C   UNL     1      -3.271   0.062   0.000  0.00  0.00    +0.140 A 
ATOM     16  F   UNL     1      -3.606   0.816   0.000  0.00  0.00    -0.204 F 
ATOM     17  C   UNL     1      -2.450  -0.024   0.000  0.00  0.00    +0.030 A 
ATOM     18  C   UNL     1      -2.115  -0.778   0.000  0.00  0.00    +0.005 A 
ENDBRANCH  10  12
ENDBRANCH   6   7
ENDBRANCH   5   6
BRANCH  20  21
ATOM     21  C   UNL     1       0.773  -6.079   0.000  0.00  0.00    +0.147 C 
BRANCH  21  22
ATOM     22  N   UNL     1       0.773  -6.904   0.000  0.00  0.00    -0.203 NA
ATOM     23  C   UNL     1       1.487  -7.316   0.000  0.00  0.00    +0.241 C 
ATOM     24  O   UNL     1       2.202  -6.904   0.000  0.00  0.00    -0.273 OA
BRANCH  23  25
ATOM     25  C   UNL     1       1.487  -8.141   0.000  0.00  0.00    +0.078 C 
ATOM     26  C   UNL     1       2.071  -8.724   0.000  0.00  0.00    +0.009 C 
ATOM     27  C   UNL     1       1.487  -9.308   0.000  0.00  0.00    +0.001 C 
ATOM     28  C   UNL     1       0.904  -8.724   0.000  0.00  0.00    +0.009 C 
ENDBRANCH  23  25
ENDBRANCH  21  22
ENDBRANCH  20  21
TORSDOF 6
