MODEL 1
REMARK VINA RESULT:     -10.6      0.000      0.000
REMARK  Name = 
REMARK  4 active torsions:
REMARK  status: ('A' for Active; 'I' for Inactive)
REMARK    1  A    between atoms: S_2  and  C_5
REMARK    2  A    between atoms: C_8  and  O_9
REMARK    3  A    between atoms: O_9  and  C_10
REMARK    4  A    between atoms: C_17  and  C_19
REMARK                            x       y       z     vdW  Elec       q    Type
REMARK                         _______ _______ _______ _____ _____    ______ ____
ROOT
ATOM     10  C   UNL     1      -3.698   1.948  24.630  0.00  0.00    +0.215 C 
ATOM     11  C   UNL     1      -4.512   1.811  24.652  0.00  0.00    +0.187 C 
ATOM     12  O   UNL     1      -5.097   2.248  25.035  0.00  0.00    -0.348 OA
ATOM     13  C   UNL     1      -5.014   2.930  25.491  0.00  0.00    +0.164 C 
ATOM     14  C   UNL     1      -4.325   3.343  25.677  0.00  0.00    +0.126 C 
ATOM     15  N   UNL     1      -3.548   3.176  25.452  0.00  0.00    -0.268 N 
ATOM     16  C   UNL     1      -3.270   2.556  24.986  0.00  0.00    +0.140 C 
ATOM     17  C   UNL     1      -2.975   3.701  25.730  0.00  0.00    +0.268 C 
ATOM     18  O   UNL     1      -3.195   4.341  26.201  0.00  0.00    -0.268 OA
ENDROOT
BRANCH  17  19
ATOM     19  C   UNL     1      -2.182   3.584  25.537  0.00  0.00    +0.154 A 
ATOM     20  C   UNL     1      -1.878   3.895  24.835  0.00  0.00    +0.123 A 
ATOM     21  N   UNL     1      -1.084   3.778  24.642  0.00  0.00    -0.239 NA
ATOM     22  C   UNL     1      -0.595   3.350  25.150  0.00  0.00    +0.120 A 
ATOM     23  C   UNL     1      -0.898   3.040  25.851  0.00  0.00    +0.120 A 
ATOM     24  N   UNL     1      -1.692   3.157  26.044  0.00  0.00    -0.236 NA
ENDBRANCH  17  19
BRANCH  10   9
ATOM      9  O   UNL     1      -3.256   1.405  24.195  0.00  0.00    -0.475 OA
BRANCH   9   8
ATOM      5  C   UNL     1      -3.415  -1.013  24.700  0.00  0.00    +0.106 A 
ATOM      6  C   UNL     1      -3.886  -0.683  24.109  0.00  0.00    +0.021 A 
ATOM      7  C   UNL     1      -3.833   0.122  23.940  0.00  0.00    +0.038 A 
ATOM      8  C   UNL     1      -3.309   0.599  24.363  0.00  0.00    +0.139 A 
ATOM     25  C   UNL     1      -2.838   0.269  24.956  0.00  0.00    +0.038 A 
ATOM     26  C   UNL     1      -2.891  -0.536  25.124  0.00  0.00    +0.021 A 
BRANCH   5   2
ATOM      1  C   UNL     1      -3.522  -2.625  25.037  0.00  0.00    +0.182 C 
ATOM      2  S   UNL     1      -3.469  -1.819  24.869  0.00  0.00    +0.010 S 
ATOM      3  O   UNL     1      -3.596  -1.644  25.665  0.00  0.00    -0.169 OA
ATOM      4  O   UNL     1      -3.341  -1.994  24.073  0.00  0.00    -0.169 OA
ENDBRANCH   5   2
ENDBRANCH   9   8
ENDBRANCH  10   9
TORSDOF 4
ENDMDL
MODEL 2
REMARK VINA RESULT:     -10.4      1.683      2.580
REMARK  Name = 
REMARK  4 active torsions:
REMARK  status: ('A' for Active; 'I' for Inactive)
REMARK    1  A    between atoms: S_2  and  C_5
REMARK    2  A    between atoms: C_8  and  O_9
REMARK    3  A    between atoms: O_9  and  C_10
REMARK    4  A    between atoms: C_17  and  C_19
REMARK                            x       y       z     vdW  Elec       q    Type
REMARK                         _______ _______ _______ _____ _____    ______ ____
ROOT
ATOM     10  C   UNL     1      -2.831   1.168  24.509  0.00  0.00    +0.215 C 
ATOM     11  C   UNL     1      -2.211   0.966  24.004  0.00  0.00    +0.187 C 
ATOM     12  O   UNL     1      -1.966   1.344  23.313  0.00  0.00    -0.348 OA
ATOM     13  C   UNL     1      -2.281   2.019  22.956  0.00  0.00    +0.164 C 
ATOM     14  C   UNL     1      -2.918   2.480  23.203  0.00  0.00    +0.126 C 
ATOM     15  N   UNL     1      -3.398   2.382  23.868  0.00  0.00    -0.268 N 
ATOM     16  C   UNL     1      -3.359   1.798  24.448  0.00  0.00    +0.140 C 
ATOM     17  C   UNL     1      -3.996   2.943  23.963  0.00  0.00    +0.268 C 
ATOM     18  O   UNL     1      -4.083   3.551  23.412  0.00  0.00    -0.268 OA
ENDROOT
BRANCH  17  19
ATOM     19  C   UNL     1      -4.507   2.895  24.609  0.00  0.00    +0.154 A 
ATOM     20  C   UNL     1      -4.316   3.279  25.314  0.00  0.00    +0.123 A 
ATOM     21  N   UNL     1      -4.827   3.231  25.961  0.00  0.00    -0.239 NA
ATOM     22  C   UNL     1      -5.528   2.799  25.902  0.00  0.00    +0.120 A 
ATOM     23  C   UNL     1      -5.718   2.416  25.197  0.00  0.00    +0.120 A 
ATOM     24  N   UNL     1      -5.207   2.465  24.550  0.00  0.00    -0.236 NA
ENDBRANCH  17  19
BRANCH  10   9
ATOM      9  O   UNL     1      -2.936   0.674  25.161  0.00  0.00    -0.475 OA
BRANCH   9   8
ATOM      5  C   UNL     1      -3.253  -1.759  24.835  0.00  0.00    +0.106 A 
ATOM      6  C   UNL     1      -2.515  -1.464  25.055  0.00  0.00    +0.021 A 
ATOM      7  C   UNL     1      -2.409  -0.655  25.164  0.00  0.00    +0.038 A 
ATOM      8  C   UNL     1      -3.042  -0.137  25.052  0.00  0.00    +0.139 A 
ATOM     25  C   UNL     1      -3.781  -0.431  24.831  0.00  0.00    +0.038 A 
ATOM     26  C   UNL     1      -3.887  -1.241  24.723  0.00  0.00    +0.021 A 
BRANCH   5   2
ATOM      1  C   UNL     1      -3.465  -3.381  24.617  0.00  0.00    +0.182 C 
ATOM      2  S   UNL     1      -3.359  -2.570  24.726  0.00  0.00    +0.010 S 
ATOM      3  O   UNL     1      -3.520  -2.657  25.530  0.00  0.00    -0.169 OA
ATOM      4  O   UNL     1      -3.199  -2.482  23.921  0.00  0.00    -0.169 OA
ENDBRANCH   5   2
ENDBRANCH   9   8
ENDBRANCH  10   9
TORSDOF 4
ENDMDL
MODEL 3
REMARK VINA RESULT:     -10.1      2.326      4.603
REMARK  Name = 
REMARK  4 active torsions:
REMARK  status: ('A' for Active; 'I' for Inactive)
REMARK    1  A    between atoms: S_2  and  C_5
REMARK    2  A    between atoms: C_8  and  O_9
REMARK    3  A    between atoms: O_9  and  C_10
REMARK    4  A    between atoms: C_17  and  C_19
REMARK                            x       y       z     vdW  Elec       q    Type
REMARK                         _______ _______ _______ _____ _____    ______ ____
ROOT
ATOM     10  C   UNL     1      -2.383   0.605  24.134  0.00  0.00    +0.215 C 
ATOM     11  C   UNL     1      -1.884   1.258  24.060  0.00  0.00    +0.187 C 
ATOM     12  O   UNL     1      -1.089   1.325  24.271  0.00  0.00    -0.348 OA
ATOM     13  C   UNL     1      -0.597   0.755  24.607  0.00  0.00    +0.164 C 
ATOM     14  C   UNL     1      -0.778  -0.022  24.816  0.00  0.00    +0.126 C 
ATOM     15  N   UNL     1      -1.496  -0.421  24.740  0.00  0.00    -0.268 N 
ATOM     16  C   UNL     1      -2.210  -0.142  24.437  0.00  0.00    +0.140 C 
ATOM     17  C   UNL     1      -1.500  -1.204  25.003  0.00  0.00    +0.268 C 
ATOM     18  O   UNL     1      -0.815  -1.537  25.317  0.00  0.00    -0.268 OA
ENDROOT
BRANCH  17  19
ATOM     19  C   UNL     1      -2.191  -1.652  24.952  0.00  0.00    +0.154 A 
ATOM     20  C   UNL     1      -2.709  -1.685  25.593  0.00  0.00    +0.123 A 
ATOM     21  N   UNL     1      -3.401  -2.133  25.542  0.00  0.00    -0.239 NA
ATOM     22  C   UNL     1      -3.573  -2.548  24.850  0.00  0.00    +0.120 A 
ATOM     23  C   UNL     1      -3.055  -2.515  24.209  0.00  0.00    +0.120 A 
ATOM     24  N   UNL     1      -2.364  -2.067  24.261  0.00  0.00    -0.236 NA
ENDBRANCH  17  19
BRANCH  10   9
ATOM      9  O   UNL     1      -3.157   0.715  23.870  0.00  0.00    -0.475 OA
BRANCH   9   8
ATOM      5  C   UNL     1      -4.579   2.462  24.895  0.00  0.00    +0.106 A 
ATOM      6  C   UNL     1      -4.117   2.640  24.236  0.00  0.00    +0.021 A 
ATOM      7  C   UNL     1      -3.643   2.059  23.895  0.00  0.00    +0.038 A 
ATOM      8  C   UNL     1      -3.631   1.297  24.212  0.00  0.00    +0.139 A 
ATOM     25  C   UNL     1      -4.094   1.118  24.872  0.00  0.00    +0.038 A 
ATOM     26  C   UNL     1      -4.567   1.700  25.213  0.00  0.00    +0.021 A 
BRANCH   5   2
ATOM      1  C   UNL     1      -5.528   3.626  25.579  0.00  0.00    +0.182 C 
ATOM      2  S   UNL     1      -5.054   3.044  25.237  0.00  0.00    +0.010 S 
ATOM      3  O   UNL     1      -4.379   3.461  25.462  0.00  0.00    -0.169 OA
ATOM      4  O   UNL     1      -5.729   2.626  25.012  0.00  0.00    -0.169 OA
ENDBRANCH   5   2
ENDBRANCH   9   8
ENDBRANCH  10   9
TORSDOF 4
ENDMDL
MODEL 4
REMARK VINA RESULT:      -9.9      2.164      3.434
REMARK  Name = 
REMARK  4 active torsions:
REMARK  status: ('A' for Active; 'I' for Inactive)
REMARK    1  A    between atoms: S_2  and  C_5
REMARK    2  A    between atoms: C_8  and  O_9
REMARK    3  A    between atoms: O_9  and  C_10
REMARK    4  A    between atoms: C_17  and  C_19
REMARK                            x       y       z     vdW  Elec       q    Type
REMARK                         _______ _______ _______ _____ _____    ______ ____
ROOT
ATOM     10  C   UNL     1      -2.091   2.760  24.415  0.00  0.00    +0.215 C 
ATOM     11  C   UNL     1      -2.267   3.545  24.600  0.00  0.00    +0.187 C 
ATOM     12  O   UNL     1      -1.804   4.093  25.007  0.00  0.00    -0.348 OA
ATOM     13  C   UNL     1      -1.052   3.993  25.330  0.00  0.00    +0.164 C 
ATOM     14  C   UNL     1      -0.577   3.319  25.325  0.00  0.00    +0.126 C 
ATOM     15  N   UNL     1      -0.736   2.579  24.996  0.00  0.00    -0.268 N 
ATOM     16  C   UNL     1      -1.410   2.331  24.591  0.00  0.00    +0.140 C 
ATOM     17  C   UNL     1      -0.142   2.013  25.084  0.00  0.00    +0.268 C 
ATOM     18  O   UNL     1       0.555   2.205  25.481  0.00  0.00    -0.268 OA
ENDROOT
BRANCH  17  19
ATOM     19  C   UNL     1      -0.246   1.255  24.776  0.00  0.00    +0.154 A 
ATOM     20  C   UNL     1      -0.030   1.094  23.996  0.00  0.00    +0.123 A 
ATOM     21  N   UNL     1      -0.134   0.336  23.687  0.00  0.00    -0.239 NA
ATOM     22  C   UNL     1      -0.455  -0.261  24.158  0.00  0.00    +0.120 A 
ATOM     23  C   UNL     1      -0.671  -0.100  24.937  0.00  0.00    +0.120 A 
ATOM     24  N   UNL     1      -0.567   0.658  25.246  0.00  0.00    -0.236 NA
ENDBRANCH  17  19
BRANCH  10   9
ATOM      9  O   UNL     1      -2.675   2.352  23.998  0.00  0.00    -0.475 OA
BRANCH   9   8
ATOM      5  C   UNL     1      -4.957   2.154  24.935  0.00  0.00    +0.106 A 
ATOM      6  C   UNL     1      -4.758   2.802  24.465  0.00  0.00    +0.021 A 
ATOM      7  C   UNL     1      -3.998   2.868  24.154  0.00  0.00    +0.038 A 
ATOM      8  C   UNL     1      -3.435   2.286  24.310  0.00  0.00    +0.139 A 
ATOM     25  C   UNL     1      -3.634   1.637  24.781  0.00  0.00    +0.038 A 
ATOM     26  C   UNL     1      -4.394   1.571  25.093  0.00  0.00    +0.021 A 
BRANCH   5   2
ATOM      1  C   UNL     1      -6.478   2.022  25.560  0.00  0.00    +0.182 C 
ATOM      2  S   UNL     1      -5.718   2.088  25.248  0.00  0.00    +0.010 S 
ATOM      3  O   UNL     1      -5.510   2.598  25.862  0.00  0.00    -0.169 OA
ATOM      4  O   UNL     1      -5.925   1.578  24.633  0.00  0.00    -0.169 OA
ENDBRANCH   5   2
ENDBRANCH   9   8
ENDBRANCH  10   9
TORSDOF 4
ENDMDL
