MODEL 1
REMARK VINA RESULT:     -14.2      0.000      0.000
REMARK  Name = 
REMARK  5 active torsions:
REMARK  status: ('A' for Active; 'I' for Inactive)
REMARK    1  A    between atoms: C_2  and  C_3
REMARK    2  A    between atoms: C_3  and  S_4
REMARK    3  A    between atoms: S_4  and  N_7
REMARK    4  A    between atoms: C_14  and  C_15
REMARK    5  A    between atoms: C_16  and  C_17
REMARK                            x       y       z     vdW  Elec       q    Type
REMARK                         _______ _______ _______ _____ _____    ______ ____
ROOT
ATOM      7  N   UNL     1      -3.868   3.506  25.218  0.00  0.00    -0.159 NA
ATOM      8  C   UNL     1      -4.699   3.509  25.302  0.00  0.00    +0.097 C 
ATOM      9  C   UNL     1      -4.883   2.548  25.169  0.00  0.00    +0.041 C 
ATOM     10  C   UNL     1      -5.197   1.801  25.082  0.00  0.00    +0.011 C 
ATOM     11  C   UNL     1      -4.563   2.103  25.066  0.00  0.00    +0.056 C 
ATOM     12  C   UNL     1      -4.402   3.035  25.197  0.00  0.00    +0.101 C 
ATOM     13  C   UNL     1      -3.674   1.905  24.946  0.00  0.00    +0.041 A 
ATOM     14  C   UNL     1      -3.174   1.267  24.795  0.00  0.00    +0.012 A 
ATOM     24  C   UNL     1      -2.360   1.386  24.732  0.00  0.00    +0.006 A 
ATOM     25  C   UNL     1      -2.046   2.144  24.820  0.00  0.00    +0.061 A 
ATOM     26  C   UNL     1      -2.546   2.782  24.971  0.00  0.00    +0.261 A 
ATOM     27  O   UNL     1      -2.231   3.540  25.059  0.00  0.00    -0.267 OA
ATOM     28  N   UNL     1      -3.359   2.663  25.034  0.00  0.00    -0.299 N 
ATOM     29  C   UNL     1      -3.951   2.351  25.044  0.00  0.00    +0.110 C 
ENDROOT
BRANCH   7   4
ATOM      4  S   UNL     1      -3.096   3.797  25.186  0.00  0.00    +0.044 S 
ATOM      5  O   UNL     1      -3.024   3.694  26.002  0.00  0.00    -0.157 OA
ATOM      6  O   UNL     1      -3.169   3.901  24.370  0.00  0.00    -0.157 OA
BRANCH   4   3
ATOM      3  C   UNL     1      -2.324   4.088  25.155  0.00  0.00    +0.169 C 
BRANCH   3   2
ATOM      1  C   UNL     1      -1.443   5.213  25.136  0.00  0.00    +0.002 C 
ATOM      2  C   UNL     1      -2.176   4.882  25.321  0.00  0.00    +0.027 C 
ENDBRANCH   3   2
ENDBRANCH   4   3
ENDBRANCH   7   4
BRANCH  14  15
ATOM     15  C   UNL     1      -3.488   0.509  24.707  0.00  0.00    +0.001 C 
ATOM     16  C   UNL     1      -2.989  -0.130  24.554  0.00  0.00    +0.000 C 
BRANCH  16  17
ATOM     17  C   UNL     1      -3.303  -0.887  24.466  0.00  0.00    +0.000 A 
ATOM     18  C   UNL     1      -3.145  -1.468  25.030  0.00  0.00    +0.001 A 
ATOM     19  C   UNL     1      -3.459  -2.226  24.943  0.00  0.00    +0.011 A 
ATOM     20  C   UNL     1      -3.931  -2.403  24.290  0.00  0.00    +0.058 A 
ATOM     21 CL   UNL     1      -4.245  -3.160  24.202  0.00  0.00    -0.082 Cl
ATOM     22  C   UNL     1      -4.090  -1.822  23.726  0.00  0.00    +0.011 A 
ATOM     23  C   UNL     1      -3.776  -1.065  23.814  0.00  0.00    +0.001 A 
ENDBRANCH  16  17
ENDBRANCH  14  15
TORSDOF 5
ENDMDL
MODEL 2
REMARK VINA RESULT:     -13.2      1.150      2.264
REMARK  Name = 
REMARK  5 active torsions:
REMARK  status: ('A' for Active; 'I' for Inactive)
REMARK    1  A    between atoms: C_2  and  C_3
REMARK    2  A    between atoms: C_3  and  S_4
REMARK    3  A    between atoms: S_4  and  N_7
REMARK    4  A    between atoms: C_14  and  C_15
REMARK    5  A    between atoms: C_16  and  C_17
REMARK                            x       y       z     vdW  Elec       q    Type
REMARK                         _______ _______ _______ _____ _____    ______ ____
ROOT
ATOM      7  N   UNL     1      -0.716   2.723  25.232  0.00  0.00    -0.159 NA
ATOM      8  C   UNL     1      -0.016   2.275  25.310  0.00  0.00    +0.097 C 
ATOM      9  C   UNL     1      -0.383   1.368  25.171  0.00  0.00    +0.041 C 
ATOM     10  C   UNL     1      -0.525   0.571  25.079  0.00  0.00    +0.011 C 
ATOM     11  C   UNL     1      -0.894   1.168  25.069  0.00  0.00    +0.056 C 
ATOM     12  C   UNL     1      -0.524   2.038  25.205  0.00  0.00    +0.101 C 
ATOM     13  C   UNL     1      -1.748   1.486  24.953  0.00  0.00    +0.041 A 
ATOM     14  C   UNL     1      -2.515   1.221  24.803  0.00  0.00    +0.012 A 
ATOM     24  C   UNL     1      -3.134   1.763  24.746  0.00  0.00    +0.006 A 
ATOM     25  C   UNL     1      -2.987   2.569  24.840  0.00  0.00    +0.061 A 
ATOM     26  C   UNL     1      -2.221   2.834  24.991  0.00  0.00    +0.261 A 
ATOM     27  O   UNL     1      -2.074   3.641  25.085  0.00  0.00    -0.267 OA
ATOM     28  N   UNL     1      -1.601   2.292  25.047  0.00  0.00    -0.299 N 
ATOM     29  C   UNL     1      -1.273   1.709  25.052  0.00  0.00    +0.110 C 
ENDROOT
BRANCH   7   4
ATOM      4  S   UNL     1      -1.207   3.386  25.207  0.00  0.00    +0.044 S 
ATOM      5  O   UNL     1      -1.338   3.320  26.019  0.00  0.00    -0.157 OA
ATOM      6  O   UNL     1      -1.076   3.453  24.395  0.00  0.00    -0.157 OA
BRANCH   4   3
ATOM      3  C   UNL     1      -1.698   4.050  25.182  0.00  0.00    +0.169 C 
BRANCH   3   2
ATOM      1  C   UNL     1      -1.861   5.469  25.198  0.00  0.00    +0.002 C 
ATOM      2  C   UNL     1      -1.373   4.805  25.247  0.00  0.00    +0.027 C 
ENDBRANCH   3   2
ENDBRANCH   4   3
ENDBRANCH   7   4
BRANCH  14  15
ATOM     15  C   UNL     1      -2.662   0.415  24.709  0.00  0.00    +0.001 C 
ATOM     16  C   UNL     1      -3.437   0.132  24.722  0.00  0.00    +0.000 C 
BRANCH  16  17
ATOM     17  C   UNL     1      -3.584  -0.674  24.628  0.00  0.00    +0.000 A 
ATOM     18  C   UNL     1      -3.886  -0.958  23.915  0.00  0.00    +0.001 A 
ATOM     19  C   UNL     1      -4.033  -1.764  23.821  0.00  0.00    +0.011 A 
ATOM     20  C   UNL     1      -3.878  -2.287  24.440  0.00  0.00    +0.058 A 
ATOM     21 CL   UNL     1      -4.025  -3.093  24.346  0.00  0.00    -0.082 Cl
ATOM     22  C   UNL     1      -3.576  -2.002  25.153  0.00  0.00    +0.011 A 
ATOM     23  C   UNL     1      -3.429  -1.197  25.247  0.00  0.00    +0.001 A 
ENDBRANCH  16  17
ENDBRANCH  14  15
TORSDOF 5
ENDMDL
MODEL 3
REMARK VINA RESULT:     -12.9      2.668      4.745
REMARK  Name = 
REMARK  5 active torsions:
REMARK  status: ('A' for Active; 'I' for Inactive)
REMARK    1  A    between atoms: C_2  and  C_3
REMARK    2  A    between atoms: C_3  and  S_4
REMARK    3  A    between atoms: S_4  and  N_7
REMARK    4  A    between atoms: C_14  and  C_15
REMARK    5  A    between atoms: C_16  and  C_17
REMARK                            x       y       z     vdW  Elec       q    Type
REMARK                         _______ _______ _______ _____ _____    ______ ____
ROOT
ATOM      7  N   UNL     1      -4.353  -0.159  24.743  0.00  0.00    -0.159 NA
ATOM      8  C   UNL     1      -5.062   0.277  24.670  0.00  0.00    +0.097 C 
ATOM      9  C   UNL     1      -4.694   1.194  24.683  0.00  0.00    +0.041 C 
ATOM     10  C   UNL     1      -4.554   1.997  24.679  0.00  0.00    +0.011 C 
ATOM     11  C   UNL     1      -4.179   1.405  24.725  0.00  0.00    +0.056 C 
ATOM     12  C   UNL     1      -4.550   0.525  24.711  0.00  0.00    +0.101 C 
ATOM     13  C   UNL     1      -3.316   1.103  24.810  0.00  0.00    +0.041 A 
ATOM     14  C   UNL     1      -2.543   1.384  24.874  0.00  0.00    +0.012 A 
ATOM     24  C   UNL     1      -1.915   0.852  24.942  0.00  0.00    +0.006 A 
ATOM     25  C   UNL     1      -2.061   0.040  24.946  0.00  0.00    +0.061 A 
ATOM     26  C   UNL     1      -2.834  -0.241  24.882  0.00  0.00    +0.261 A 
ATOM     27  O   UNL     1      -2.980  -1.053  24.886  0.00  0.00    -0.267 OA
ATOM     28  N   UNL     1      -3.461   0.291  24.814  0.00  0.00    -0.299 N 
ATOM     29  C   UNL     1      -3.795   0.870  24.771  0.00  0.00    +0.110 C 
ENDROOT
BRANCH   7   4
ATOM      4  S   UNL     1      -3.856  -0.815  24.802  0.00  0.00    +0.044 S 
ATOM      5  O   UNL     1      -3.793  -0.842  23.980  0.00  0.00    -0.157 OA
ATOM      6  O   UNL     1      -3.918  -0.788  25.625  0.00  0.00    -0.157 OA
BRANCH   4   3
ATOM      3  C   UNL     1      -3.358  -1.471  24.861  0.00  0.00    +0.169 C 
BRANCH   3   2
ATOM      1  C   UNL     1      -3.188  -2.889  24.913  0.00  0.00    +0.002 C 
ATOM      2  C   UNL     1      -3.665  -2.230  24.767  0.00  0.00    +0.027 C 
ENDBRANCH   3   2
ENDBRANCH   4   3
ENDBRANCH   7   4
BRANCH  14  15
ATOM     15  C   UNL     1      -2.397   2.196  24.869  0.00  0.00    +0.001 C 
ATOM     16  C   UNL     1      -1.649   2.482  25.069  0.00  0.00    +0.000 C 
BRANCH  16  17
ATOM     17  C   UNL     1      -1.503   3.294  25.064  0.00  0.00    +0.000 A 
ATOM     18  C   UNL     1      -0.919   3.605  24.572  0.00  0.00    +0.001 A 
ATOM     19  C   UNL     1      -0.774   4.417  24.568  0.00  0.00    +0.011 A 
ATOM     20  C   UNL     1      -1.212   4.918  25.056  0.00  0.00    +0.058 A 
ATOM     21 CL   UNL     1      -1.066   5.729  25.051  0.00  0.00    -0.082 Cl
ATOM     22  C   UNL     1      -1.796   4.606  25.548  0.00  0.00    +0.011 A 
ATOM     23  C   UNL     1      -1.941   3.794  25.552  0.00  0.00    +0.001 A 
ENDBRANCH  16  17
ENDBRANCH  14  15
TORSDOF 5
ENDMDL
MODEL 4
REMARK VINA RESULT:     -12.8      0.999      2.000
REMARK  Name = 
REMARK  5 active torsions:
REMARK  status: ('A' for Active; 'I' for Inactive)
REMARK    1  A    between atoms: C_2  and  C_3
REMARK    2  A    between atoms: C_3  and  S_4
REMARK    3  A    between atoms: S_4  and  N_7
REMARK    4  A    between atoms: C_14  and  C_15
REMARK    5  A    between atoms: C_16  and  C_17
REMARK                            x       y       z     vdW  Elec       q    Type
REMARK                         _______ _______ _______ _____ _____    ______ ____
ROOT
ATOM      7  N   UNL     1      -3.588   3.218  24.742  0.00  0.00    -0.159 NA
ATOM      8  C   UNL     1      -2.809   3.263  24.442  0.00  0.00    +0.097 C 
ATOM      9  C   UNL     1      -2.624   2.300  24.319  0.00  0.00    +0.041 C 
ATOM     10  C   UNL     1      -2.319   1.561  24.161  0.00  0.00    +0.011 C 
ATOM     11  C   UNL     1      -2.917   1.834  24.408  0.00  0.00    +0.056 C 
ATOM     12  C   UNL     1      -3.081   2.768  24.521  0.00  0.00    +0.101 C 
ATOM     13  C   UNL     1      -3.747   1.591  24.718  0.00  0.00    +0.041 A 
ATOM     14  C   UNL     1      -4.206   0.920  24.861  0.00  0.00    +0.012 A 
ATOM     24  C   UNL     1      -4.970   1.000  25.162  0.00  0.00    +0.006 A 
ATOM     25  C   UNL     1      -5.275   1.751  25.320  0.00  0.00    +0.061 A 
ATOM     26  C   UNL     1      -4.816   2.421  25.177  0.00  0.00    +0.261 A 
ATOM     27  O   UNL     1      -5.121   3.171  25.335  0.00  0.00    -0.267 OA
ATOM     28  N   UNL     1      -4.052   2.341  24.876  0.00  0.00    -0.299 N 
ATOM     29  C   UNL     1      -3.493   2.055  24.644  0.00  0.00    +0.110 C 
ENDROOT
BRANCH   7   4
ATOM      4  S   UNL     1      -4.315   3.474  25.038  0.00  0.00    +0.044 S 
ATOM      5  O   UNL     1      -4.016   3.434  25.806  0.00  0.00    -0.157 OA
ATOM      6  O   UNL     1      -4.614   3.513  24.270  0.00  0.00    -0.157 OA
BRANCH   4   3
ATOM      3  C   UNL     1      -5.041   3.730  25.334  0.00  0.00    +0.169 C 
BRANCH   3   2
ATOM      1  C   UNL     1      -5.940   4.794  25.651  0.00  0.00    +0.002 C 
ATOM      2  C   UNL     1      -5.193   4.536  25.415  0.00  0.00    +0.027 C 
ENDBRANCH   3   2
ENDBRANCH   4   3
ENDBRANCH   7   4
BRANCH  14  15
ATOM     15  C   UNL     1      -3.901   0.170  24.703  0.00  0.00    +0.001 C 
ATOM     16  C   UNL     1      -4.342  -0.502  24.888  0.00  0.00    +0.000 C 
BRANCH  16  17
ATOM     17  C   UNL     1      -4.037  -1.252  24.729  0.00  0.00    +0.000 A 
ATOM     18  C   UNL     1      -4.198  -1.619  24.009  0.00  0.00    +0.001 A 
ATOM     19  C   UNL     1      -3.893  -2.369  23.851  0.00  0.00    +0.011 A 
ATOM     20  C   UNL     1      -3.427  -2.752  24.413  0.00  0.00    +0.058 A 
ATOM     21 CL   UNL     1      -3.122  -3.502  24.255  0.00  0.00    -0.082 Cl
ATOM     22  C   UNL     1      -3.266  -2.384  25.134  0.00  0.00    +0.011 A 
ATOM     23  C   UNL     1      -3.571  -1.635  25.292  0.00  0.00    +0.001 A 
ENDBRANCH  16  17
ENDBRANCH  14  15
TORSDOF 5
ENDMDL
MODEL 5
REMARK VINA RESULT:     -12.5      2.923      5.178
REMARK  Name = 
REMARK  5 active torsions:
REMARK  status: ('A' for Active; 'I' for Inactive)
REMARK    1  A    between atoms: C_2  and  C_3
REMARK    2  A    between atoms: C_3  and  S_4
REMARK    3  A    between atoms: S_4  and  N_7
REMARK    4  A    between atoms: C_14  and  C_15
REMARK    5  A    between atoms: C_16  and  C_17
REMARK                            x       y       z     vdW  Elec       q    Type
REMARK                         _______ _______ _______ _____ _____    ______ ____
ROOT
ATOM      7  N   UNL     1      -2.126  -1.312  25.176  0.00  0.00    -0.159 NA
ATOM      8  C   UNL     1      -1.394  -1.380  25.573  0.00  0.00    +0.097 C 
ATOM      9  C   UNL     1      -1.159  -0.424  25.651  0.00  0.00    +0.041 C 
ATOM     10  C   UNL     1      -0.825   0.306  25.793  0.00  0.00    +0.011 C 
ATOM     11  C   UNL     1      -1.407   0.051  25.494  0.00  0.00    +0.056 C 
ATOM     12  C   UNL     1      -1.620  -0.878  25.426  0.00  0.00    +0.101 C 
ATOM     13  C   UNL     1      -2.175   0.319  25.067  0.00  0.00    +0.041 A 
ATOM     14  C   UNL     1      -2.567   1.002  24.822  0.00  0.00    +0.012 A 
ATOM     24  C   UNL     1      -3.293   0.945  24.435  0.00  0.00    +0.006 A 
ATOM     25  C   UNL     1      -3.628   0.204  24.293  0.00  0.00    +0.061 A 
ATOM     26  C   UNL     1      -3.236  -0.479  24.538  0.00  0.00    +0.261 A 
ATOM     27  O   UNL     1      -3.571  -1.220  24.396  0.00  0.00    -0.267 OA
ATOM     28  N   UNL     1      -2.510  -0.422  24.925  0.00  0.00    -0.299 N 
ATOM     29  C   UNL     1      -1.964  -0.153  25.204  0.00  0.00    +0.110 C 
ENDROOT
BRANCH   7   4
ATOM      4  S   UNL     1      -2.828  -1.546  24.811  0.00  0.00    +0.044 S 
ATOM      5  O   UNL     1      -3.219  -1.507  25.537  0.00  0.00    -0.157 OA
ATOM      6  O   UNL     1      -2.437  -1.585  24.085  0.00  0.00    -0.157 OA
BRANCH   4   3
ATOM      3  C   UNL     1      -3.530  -1.780  24.446  0.00  0.00    +0.169 C 
BRANCH   3   2
ATOM      1  C   UNL     1      -4.333  -2.822  23.886  0.00  0.00    +0.002 C 
ATOM      2  C   UNL     1      -3.707  -2.582  24.367  0.00  0.00    +0.027 C 
ENDBRANCH   3   2
ENDBRANCH   4   3
ENDBRANCH   7   4
BRANCH  14  15
ATOM     15  C   UNL     1      -2.232   1.743  24.965  0.00  0.00    +0.001 C 
ATOM     16  C   UNL     1      -2.620   2.426  24.712  0.00  0.00    +0.000 C 
BRANCH  16  17
ATOM     17  C   UNL     1      -2.285   3.166  24.855  0.00  0.00    +0.000 A 
ATOM     18  C   UNL     1      -2.613   3.665  25.424  0.00  0.00    +0.001 A 
ATOM     19  C   UNL     1      -2.279   4.405  25.566  0.00  0.00    +0.011 A 
ATOM     20  C   UNL     1      -1.616   4.648  25.139  0.00  0.00    +0.058 A 
ATOM     21 CL   UNL     1      -1.281   5.388  25.281  0.00  0.00    -0.082 Cl
ATOM     22  C   UNL     1      -1.288   4.149  24.570  0.00  0.00    +0.011 A 
ATOM     23  C   UNL     1      -1.622   3.409  24.428  0.00  0.00    +0.001 A 
ENDBRANCH  16  17
ENDBRANCH  14  15
TORSDOF 5
ENDMDL
MODEL 6
REMARK VINA RESULT:     -11.2      2.820      4.314
REMARK  Name = 
REMARK  5 active torsions:
REMARK  status: ('A' for Active; 'I' for Inactive)
REMARK    1  A    between atoms: C_2  and  C_3
REMARK    2  A    between atoms: C_3  and  S_4
REMARK    3  A    between atoms: S_4  and  N_7
REMARK    4  A    between atoms: C_14  and  C_15
REMARK    5  A    between atoms: C_16  and  C_17
REMARK                            x       y       z     vdW  Elec       q    Type
REMARK                         _______ _______ _______ _____ _____    ______ ____
ROOT
ATOM      7  N   UNL     1      -0.602  -0.604  24.666  0.00  0.00    -0.159 NA
ATOM      8  C   UNL     1      -0.817  -1.143  25.267  0.00  0.00    +0.097 C 
ATOM      9  C   UNL     1      -1.688  -0.759  25.531  0.00  0.00    +0.041 C 
ATOM     10  C   UNL     1      -2.409  -0.571  25.859  0.00  0.00    +0.011 C 
ATOM     11  C   UNL     1      -1.986  -0.320  25.360  0.00  0.00    +0.056 C 
ATOM     12  C   UNL     1      -1.145  -0.703  25.116  0.00  0.00    +0.101 C 
ATOM     13  C   UNL     1      -1.922   0.359  24.743  0.00  0.00    +0.041 A 
ATOM     14  C   UNL     1      -2.338   1.015  24.468  0.00  0.00    +0.012 A 
ATOM     24  C   UNL     1      -2.024   1.479  23.863  0.00  0.00    +0.006 A 
ATOM     25  C   UNL     1      -1.293   1.286  23.532  0.00  0.00    +0.061 A 
ATOM     26  C   UNL     1      -0.876   0.629  23.807  0.00  0.00    +0.261 A 
ATOM     27  O   UNL     1      -0.145   0.436  23.477  0.00  0.00    -0.267 OA
ATOM     28  N   UNL     1      -1.191   0.165  24.412  0.00  0.00    -0.299 N 
ATOM     29  C   UNL     1      -1.613  -0.054  24.883  0.00  0.00    +0.110 C 
ENDROOT
BRANCH   7   4
ATOM      4  S   UNL     1      -0.151  -0.257  24.068  0.00  0.00    +0.044 S 
ATOM      5  O   UNL     1       0.174   0.267  24.616  0.00  0.00    -0.157 OA
ATOM      6  O   UNL     1      -0.477  -0.781  23.519  0.00  0.00    -0.157 OA
BRANCH   4   3
ATOM      3  C   UNL     1       0.299   0.089  23.469  0.00  0.00    +0.169 C 
BRANCH   3   2
ATOM      1  C   UNL     1       1.510   0.112  22.710  0.00  0.00    +0.002 C 
ATOM      2  C   UNL     1       0.971  -0.296  23.184  0.00  0.00    +0.027 C 
ENDBRANCH   3   2
ENDBRANCH   4   3
ENDBRANCH   7   4
BRANCH  14  15
ATOM     15  C   UNL     1      -3.069   1.209  24.798  0.00  0.00    +0.001 C 
ATOM     16  C   UNL     1      -3.498   1.849  24.505  0.00  0.00    +0.000 C 
BRANCH  16  17
ATOM     17  C   UNL     1      -4.229   2.042  24.835  0.00  0.00    +0.000 A 
ATOM     18  C   UNL     1      -4.294   2.689  25.343  0.00  0.00    +0.001 A 
ATOM     19  C   UNL     1      -5.025   2.882  25.674  0.00  0.00    +0.011 A 
ATOM     20  C   UNL     1      -5.691   2.428  25.496  0.00  0.00    +0.058 A 
ATOM     21 CL   UNL     1      -6.421   2.621  25.826  0.00  0.00    -0.082 Cl
ATOM     22  C   UNL     1      -5.625   1.781  24.988  0.00  0.00    +0.011 A 
ATOM     23  C   UNL     1      -4.895   1.589  24.658  0.00  0.00    +0.001 A 
ENDBRANCH  16  17
ENDBRANCH  14  15
TORSDOF 5
ENDMDL
MODEL 7
REMARK VINA RESULT:     -10.7      2.856      4.753
REMARK  Name = 
REMARK  5 active torsions:
REMARK  status: ('A' for Active; 'I' for Inactive)
REMARK    1  A    between atoms: C_2  and  C_3
REMARK    2  A    between atoms: C_3  and  S_4
REMARK    3  A    between atoms: S_4  and  N_7
REMARK    4  A    between atoms: C_14  and  C_15
REMARK    5  A    between atoms: C_16  and  C_17
REMARK                            x       y       z     vdW  Elec       q    Type
REMARK                         _______ _______ _______ _____ _____    ______ ____
ROOT
ATOM      7  N   UNL     1      -2.978  -1.736  24.419  0.00  0.00    -0.159 NA
ATOM      8  C   UNL     1      -3.718  -2.014  24.150  0.00  0.00    +0.097 C 
ATOM      9  C   UNL     1      -4.243  -1.180  24.220  0.00  0.00    +0.041 C 
ATOM     10  C   UNL     1      -4.804  -0.588  24.220  0.00  0.00    +0.011 C 
ATOM     11  C   UNL     1      -4.125  -0.660  24.384  0.00  0.00    +0.056 C 
ATOM     12  C   UNL     1      -3.631  -1.474  24.310  0.00  0.00    +0.101 C 
ATOM     13  C   UNL     1      -3.405  -0.183  24.698  0.00  0.00    +0.041 A 
ATOM     14  C   UNL     1      -3.199   0.577  24.946  0.00  0.00    +0.012 A 
ATOM     24  C   UNL     1      -2.428   0.734  25.192  0.00  0.00    +0.006 A 
ATOM     25  C   UNL     1      -1.863   0.133  25.192  0.00  0.00    +0.061 A 
ATOM     26  C   UNL     1      -2.069  -0.626  24.944  0.00  0.00    +0.261 A 
ATOM     27  O   UNL     1      -1.504  -1.228  24.943  0.00  0.00    -0.267 OA
ATOM     28  N   UNL     1      -2.840  -0.784  24.697  0.00  0.00    -0.299 N 
ATOM     29  C   UNL     1      -3.486  -0.689  24.548  0.00  0.00    +0.110 C 
ENDROOT
BRANCH   7   4
ATOM      4  S   UNL     1      -2.180  -1.752  24.629  0.00  0.00    +0.044 S 
ATOM      5  O   UNL     1      -1.971  -1.572  23.850  0.00  0.00    -0.157 OA
ATOM      6  O   UNL     1      -2.388  -1.932  25.407  0.00  0.00    -0.157 OA
BRANCH   4   3
ATOM      3  C   UNL     1      -1.381  -1.768  24.839  0.00  0.00    +0.169 C 
BRANCH   3   2
ATOM      1  C   UNL     1      -0.192  -2.515  25.099  0.00  0.00    +0.002 C 
ATOM      2  C   UNL     1      -0.958  -2.474  24.794  0.00  0.00    +0.027 C 
ENDBRANCH   3   2
ENDBRANCH   4   3
ENDBRANCH   7   4
BRANCH  14  15
ATOM     15  C   UNL     1      -3.764   1.178  24.946  0.00  0.00    +0.001 C 
ATOM     16  C   UNL     1      -3.572   1.924  25.241  0.00  0.00    +0.000 C 
BRANCH  16  17
ATOM     17  C   UNL     1      -4.137   2.525  25.242  0.00  0.00    +0.000 A 
ATOM     18  C   UNL     1      -4.789   2.477  25.744  0.00  0.00    +0.001 A 
ATOM     19  C   UNL     1      -5.355   3.079  25.745  0.00  0.00    +0.011 A 
ATOM     20  C   UNL     1      -5.267   3.728  25.244  0.00  0.00    +0.058 A 
ATOM     21 CL   UNL     1      -5.831   4.329  25.244  0.00  0.00    -0.082 Cl
ATOM     22  C   UNL     1      -4.614   3.775  24.741  0.00  0.00    +0.011 A 
ATOM     23  C   UNL     1      -4.049   3.175  24.741  0.00  0.00    +0.001 A 
ENDBRANCH  16  17
ENDBRANCH  14  15
TORSDOF 5
ENDMDL
