MODEL 1
REMARK VINA RESULT:     -11.7      0.000      0.000
REMARK  Name = 
REMARK  6 active torsions:
REMARK  status: ('A' for Active; 'I' for Inactive)
REMARK    1  A    between atoms: O_2  and  C_3
REMARK    2  A    between atoms: C_8  and  C_9
REMARK    3  A    between atoms: C_12  and  C_14
REMARK    4  A    between atoms: N_17  and  C_18
REMARK    5  A    between atoms: C_18  and  C_19
REMARK    6  A    between atoms: C_22  and  S_25
REMARK                            x       y       z     vdW  Elec       q    Type
REMARK                         _______ _______ _______ _____ _____    ______ ____
ROOT
ATOM     14  C   UNL     1      -0.655   1.013  25.301  0.00  0.00    +0.096 C 
ATOM     15  C   UNL     1      -0.347   0.678  24.612  0.00  0.00    +0.028 C 
ATOM     16  C   UNL     1      -0.518  -0.130  24.624  0.00  0.00    +0.073 C 
ATOM     17  N   UNL     1      -0.931  -0.293  25.319  0.00  0.00    -0.268 NA
ATOM     29  C   UNL     1      -1.015   0.413  25.737  0.00  0.00    +0.082 C 
ENDROOT
BRANCH  14  12
ATOM      9  C   UNL     1      -0.787   3.131  25.528  0.00  0.00    +0.252 A 
ATOM     10  N   UNL     1      -0.294   2.933  26.159  0.00  0.00    -0.107 NA
ATOM     11  N   UNL     1      -0.184   2.116  26.151  0.00  0.00    -0.111 NA
ATOM     12  C   UNL     1      -0.609   1.808  25.515  0.00  0.00    +0.227 A 
ATOM     13  O   UNL     1      -0.982   2.436  25.130  0.00  0.00    -0.419 OA
BRANCH   9   8
ATOM      3  C   UNL     1      -1.782   4.155  25.575  0.00  0.00    +0.143 A 
ATOM      4  C   UNL     1      -2.035   4.915  25.377  0.00  0.00    +0.037 A 
ATOM      5  C   UNL     1      -1.547   5.411  24.934  0.00  0.00    +0.003 A 
ATOM      6  C   UNL     1      -0.804   5.146  24.689  0.00  0.00    +0.000 A 
ATOM      7  C   UNL     1      -0.551   4.386  24.887  0.00  0.00    +0.008 A 
ATOM      8  C   UNL     1      -1.040   3.891  25.330  0.00  0.00    +0.089 A 
BRANCH   3   2
ATOM      1  C   UNL     1      -3.026   3.911  26.235  0.00  0.00    +0.252 C 
ATOM      2  O   UNL     1      -2.271   3.660  26.018  0.00  0.00    -0.471 OA
ENDBRANCH   3   2
ENDBRANCH   9   8
ENDBRANCH  14  12
BRANCH  17  18
ATOM     18  C   UNL     1      -1.210  -1.033  25.554  0.00  0.00    +0.099 C 
BRANCH  18  19
ATOM     19  C   UNL     1      -1.884  -1.352  25.200  0.00  0.00    -0.006 A 
ATOM     20  C   UNL     1      -1.808  -1.909  24.596  0.00  0.00    -0.002 A 
ATOM     21  C   UNL     1      -2.482  -2.228  24.242  0.00  0.00    +0.018 A 
ATOM     22  C   UNL     1      -3.231  -1.988  24.491  0.00  0.00    +0.106 A 
ATOM     23  C   UNL     1      -3.307  -1.431  25.095  0.00  0.00    +0.018 A 
ATOM     24  C   UNL     1      -2.633  -1.112  25.449  0.00  0.00    -0.002 A 
BRANCH  22  25
ATOM     25  S   UNL     1      -3.905  -2.306  24.137  0.00  0.00    +0.010 S 
ATOM     26  C   UNL     1      -4.579  -2.626  23.783  0.00  0.00    +0.182 C 
ATOM     27  O   UNL     1      -3.746  -3.035  24.490  0.00  0.00    -0.169 OA
ATOM     28  O   UNL     1      -4.063  -1.578  23.784  0.00  0.00    -0.169 OA
ENDBRANCH  22  25
ENDBRANCH  18  19
ENDBRANCH  17  18
TORSDOF 6
ENDMDL
MODEL 2
REMARK VINA RESULT:     -11.6      1.856      2.659
REMARK  Name = 
REMARK  6 active torsions:
REMARK  status: ('A' for Active; 'I' for Inactive)
REMARK    1  A    between atoms: O_2  and  C_3
REMARK    2  A    between atoms: C_8  and  C_9
REMARK    3  A    between atoms: C_12  and  C_14
REMARK    4  A    between atoms: N_17  and  C_18
REMARK    5  A    between atoms: C_18  and  C_19
REMARK    6  A    between atoms: C_22  and  S_25
REMARK                            x       y       z     vdW  Elec       q    Type
REMARK                         _______ _______ _______ _____ _____    ______ ____
ROOT
ATOM     14  C   UNL     1      -4.153   2.329  25.063  0.00  0.00    +0.096 C 
ATOM     15  C   UNL     1      -4.709   2.370  24.454  0.00  0.00    +0.028 C 
ATOM     16  C   UNL     1      -5.071   1.631  24.389  0.00  0.00    +0.073 C 
ATOM     17  N   UNL     1      -4.739   1.134  24.957  0.00  0.00    -0.268 NA
ATOM     29  C   UNL     1      -4.172   1.565  25.374  0.00  0.00    +0.082 C 
ENDROOT
BRANCH  14  12
ATOM      9  C   UNL     1      -2.648   3.804  25.401  0.00  0.00    +0.252 A 
ATOM     10  N   UNL     1      -3.179   3.976  26.007  0.00  0.00    -0.107 NA
ATOM     11  N   UNL     1      -3.808   3.445  25.955  0.00  0.00    -0.111 NA
ATOM     12  C   UNL     1      -3.665   2.944  25.316  0.00  0.00    +0.227 A 
ATOM     13  O   UNL     1      -2.948   3.166  24.973  0.00  0.00    -0.419 OA
BRANCH   9   8
ATOM      3  C   UNL     1      -1.220   3.827  25.392  0.00  0.00    +0.143 A 
ATOM      4  C   UNL     1      -0.512   4.223  25.240  0.00  0.00    +0.037 A 
ATOM      5  C   UNL     1      -0.525   4.992  24.944  0.00  0.00    +0.003 A 
ATOM      6  C   UNL     1      -1.247   5.366  24.800  0.00  0.00    +0.000 A 
ATOM      7  C   UNL     1      -1.955   4.970  24.952  0.00  0.00    +0.008 A 
ATOM      8  C   UNL     1      -1.940   4.200  25.249  0.00  0.00    +0.089 A 
BRANCH   3   2
ATOM      1  C   UNL     1      -0.485   2.693  25.860  0.00  0.00    +0.252 C 
ATOM      2  O   UNL     1      -1.205   3.056  25.689  0.00  0.00    -0.471 OA
ENDBRANCH   3   2
ENDBRANCH   9   8
ENDBRANCH  14  12
BRANCH  17  18
ATOM     18  C   UNL     1      -4.940   0.344  25.087  0.00  0.00    +0.099 C 
BRANCH  18  19
ATOM     19  C   UNL     1      -4.383  -0.250  24.954  0.00  0.00    -0.006 A 
ATOM     20  C   UNL     1      -3.907  -0.515  25.574  0.00  0.00    -0.002 A 
ATOM     21  C   UNL     1      -3.350  -1.109  25.441  0.00  0.00    +0.018 A 
ATOM     22  C   UNL     1      -3.269  -1.438  24.689  0.00  0.00    +0.106 A 
ATOM     23  C   UNL     1      -3.744  -1.173  24.069  0.00  0.00    +0.018 A 
ATOM     24  C   UNL     1      -4.302  -0.578  24.202  0.00  0.00    -0.002 A 
BRANCH  22  25
ATOM     25  S   UNL     1      -2.712  -2.031  24.556  0.00  0.00    +0.010 S 
ATOM     26  C   UNL     1      -2.154  -2.625  24.423  0.00  0.00    +0.182 C 
ATOM     27  O   UNL     1      -2.126  -1.459  24.455  0.00  0.00    -0.169 OA
ATOM     28  O   UNL     1      -3.297  -2.603  24.657  0.00  0.00    -0.169 OA
ENDBRANCH  22  25
ENDBRANCH  18  19
ENDBRANCH  17  18
TORSDOF 6
ENDMDL
MODEL 3
REMARK VINA RESULT:     -11.4      2.397      6.085
REMARK  Name = 
REMARK  6 active torsions:
REMARK  status: ('A' for Active; 'I' for Inactive)
REMARK    1  A    between atoms: O_2  and  C_3
REMARK    2  A    between atoms: C_8  and  C_9
REMARK    3  A    between atoms: C_12  and  C_14
REMARK    4  A    between atoms: N_17  and  C_18
REMARK    5  A    between atoms: C_18  and  C_19
REMARK    6  A    between atoms: C_22  and  S_25
REMARK                            x       y       z     vdW  Elec       q    Type
REMARK                         _______ _______ _______ _____ _____    ______ ____
ROOT
ATOM     14  C   UNL     1      -4.473   1.446  24.793  0.00  0.00    +0.096 C 
ATOM     15  C   UNL     1      -5.260   1.558  25.015  0.00  0.00    +0.028 C 
ATOM     16  C   UNL     1      -5.326   2.309  25.353  0.00  0.00    +0.073 C 
ATOM     17  N   UNL     1      -4.580   2.660  25.338  0.00  0.00    -0.268 NA
ATOM     29  C   UNL     1      -4.053   2.128  24.992  0.00  0.00    +0.082 C 
ENDROOT
BRANCH  14  12
ATOM      9  C   UNL     1      -3.808  -0.494  24.203  0.00  0.00    +0.252 A 
ATOM     10  N   UNL     1      -3.559  -0.038  23.562  0.00  0.00    -0.107 NA
ATOM     11  N   UNL     1      -3.778   0.744  23.704  0.00  0.00    -0.111 NA
ATOM     12  C   UNL     1      -4.162   0.772  24.434  0.00  0.00    +0.227 A 
ATOM     13  O   UNL     1      -4.181   0.007  24.741  0.00  0.00    -0.419 OA
BRANCH   9   8
ATOM      3  C   UNL     1      -3.040  -1.598  24.684  0.00  0.00    +0.143 A 
ATOM      4  C   UNL     1      -2.935  -2.412  24.770  0.00  0.00    +0.037 A 
ATOM      5  C   UNL     1      -3.492  -2.935  24.462  0.00  0.00    +0.003 A 
ATOM      6  C   UNL     1      -4.156  -2.644  24.067  0.00  0.00    +0.000 A 
ATOM      7  C   UNL     1      -4.262  -1.831  23.980  0.00  0.00    +0.008 A 
ATOM      8  C   UNL     1      -3.703  -1.308  24.289  0.00  0.00    +0.089 A 
BRANCH   3   2
ATOM      1  C   UNL     1      -1.792  -1.365  25.341  0.00  0.00    +0.252 C 
ATOM      2  O   UNL     1      -2.481  -1.075  24.993  0.00  0.00    -0.471 OA
ENDBRANCH   3   2
ENDBRANCH   9   8
ENDBRANCH  14  12
BRANCH  17  18
ATOM     18  C   UNL     1      -4.393   3.413  25.620  0.00  0.00    +0.099 C 
BRANCH  18  19
ATOM     19  C   UNL     1      -3.644   3.731  25.484  0.00  0.00    -0.006 A 
ATOM     20  C   UNL     1      -3.072   3.708  26.079  0.00  0.00    -0.002 A 
ATOM     21  C   UNL     1      -2.323   4.026  25.944  0.00  0.00    +0.018 A 
ATOM     22  C   UNL     1      -2.146   4.365  25.213  0.00  0.00    +0.106 A 
ATOM     23  C   UNL     1      -2.717   4.388  24.618  0.00  0.00    +0.018 A 
ATOM     24  C   UNL     1      -3.467   4.070  24.754  0.00  0.00    -0.002 A 
BRANCH  22  25
ATOM     25  S   UNL     1      -1.397   4.683  25.077  0.00  0.00    +0.010 S 
ATOM     26  C   UNL     1      -0.647   5.001  24.941  0.00  0.00    +0.182 C 
ATOM     27  O   UNL     1      -1.668   5.425  25.316  0.00  0.00    -0.169 OA
ATOM     28  O   UNL     1      -1.126   3.941  24.839  0.00  0.00    -0.169 OA
ENDBRANCH  22  25
ENDBRANCH  18  19
ENDBRANCH  17  18
TORSDOF 6
ENDMDL
MODEL 4
REMARK VINA RESULT:     -10.9      1.779      5.530
REMARK  Name = 
REMARK  6 active torsions:
REMARK  status: ('A' for Active; 'I' for Inactive)
REMARK    1  A    between atoms: O_2  and  C_3
REMARK    2  A    between atoms: C_8  and  C_9
REMARK    3  A    between atoms: C_12  and  C_14
REMARK    4  A    between atoms: N_17  and  C_18
REMARK    5  A    between atoms: C_18  and  C_19
REMARK    6  A    between atoms: C_22  and  S_25
REMARK                            x       y       z     vdW  Elec       q    Type
REMARK                         _______ _______ _______ _____ _____    ______ ____
ROOT
ATOM     14  C   UNL     1      -0.918   0.233  24.873  0.00  0.00    +0.096 C 
ATOM     15  C   UNL     1      -0.418   0.246  24.217  0.00  0.00    +0.028 C 
ATOM     16  C   UNL     1       0.056   0.920  24.271  0.00  0.00    +0.073 C 
ATOM     17  N   UNL     1      -0.151   1.322  24.961  0.00  0.00    -0.268 NA
ATOM     29  C   UNL     1      -0.753   0.898  25.333  0.00  0.00    +0.082 C 
ENDROOT
BRANCH  14  12
ATOM      9  C   UNL     1      -2.483  -1.218  24.904  0.00  0.00    +0.252 A 
ATOM     10  N   UNL     1      -2.225  -1.245  25.687  0.00  0.00    -0.107 NA
ATOM     11  N   UNL     1      -1.607  -0.705  25.771  0.00  0.00    -0.111 NA
ATOM     12  C   UNL     1      -1.483  -0.344  25.040  0.00  0.00    +0.227 A 
ATOM     13  O   UNL     1      -2.025  -0.661  24.504  0.00  0.00    -0.419 OA
BRANCH   9   8
ATOM      3  C   UNL     1      -3.809  -1.312  24.380  0.00  0.00    +0.143 A 
ATOM      4  C   UNL     1      -4.418  -1.762  24.055  0.00  0.00    +0.037 A 
ATOM      5  C   UNL     1      -4.312  -2.570  23.928  0.00  0.00    +0.003 A 
ATOM      6  C   UNL     1      -3.595  -2.928  24.126  0.00  0.00    +0.000 A 
ATOM      7  C   UNL     1      -2.985  -2.477  24.452  0.00  0.00    +0.008 A 
ATOM      8  C   UNL     1      -3.093  -1.669  24.579  0.00  0.00    +0.089 A 
BRANCH   3   2
ATOM      1  C   UNL     1      -4.652  -0.158  24.370  0.00  0.00    +0.252 C 
ATOM      2  O   UNL     1      -3.916  -0.503  24.507  0.00  0.00    -0.471 OA
ENDBRANCH   3   2
ENDBRANCH   9   8
ENDBRANCH  14  12
BRANCH  17  18
ATOM     18  C   UNL     1       0.185   2.026  25.231  0.00  0.00    +0.099 C 
BRANCH  18  19
ATOM     19  C   UNL     1      -0.251   2.726  25.209  0.00  0.00    -0.006 A 
ATOM     20  C   UNL     1      -0.274   3.177  24.518  0.00  0.00    -0.002 A 
ATOM     21  C   UNL     1      -0.710   3.877  24.497  0.00  0.00    +0.018 A 
ATOM     22  C   UNL     1      -1.122   4.126  25.166  0.00  0.00    +0.106 A 
ATOM     23  C   UNL     1      -1.099   3.677  25.857  0.00  0.00    +0.018 A 
ATOM     24  C   UNL     1      -0.663   2.976  25.879  0.00  0.00    -0.002 A 
BRANCH  22  25
ATOM     25  S   UNL     1      -1.558   4.826  25.145  0.00  0.00    +0.010 S 
ATOM     26  C   UNL     1      -1.995   5.527  25.123  0.00  0.00    +0.182 C 
ATOM     27  O   UNL     1      -2.249   4.401  25.291  0.00  0.00    -0.169 OA
ATOM     28  O   UNL     1      -0.867   5.252  24.998  0.00  0.00    -0.169 OA
ENDBRANCH  22  25
ENDBRANCH  18  19
ENDBRANCH  17  18
TORSDOF 6
ENDMDL
