REMARK  Name = 
REMARK  4 active torsions:
REMARK  status: ('A' for Active; 'I' for Inactive)
REMARK    1  A    between atoms: C_2  and  C_23
REMARK    2  A    between atoms: C_6  and  C_8
REMARK    3  A    between atoms: C_11  and  C_12
REMARK    4  A    between atoms: C_12  and  C_13
REMARK                            x       y       z     vdW  Elec       q    Type
REMARK                         _______ _______ _______ _____ _____    ______ ____
ROOT
ATOM      8  C   UNL     1       0.697   2.587   0.000  0.00  0.00    +0.227 A 
ATOM      9  N   UNL     1       1.310   2.035   0.000  0.00  0.00    -0.112 NA
ATOM     10  N   UNL     1       0.974   1.281   0.000  0.00  0.00    -0.111 NA
ATOM     11  C   UNL     1       0.154   1.367   0.000  0.00  0.00    +0.231 A 
ATOM     22  O   UNL     1      -0.018   2.174   0.000  0.00  0.00    -0.423 OA
ENDROOT
BRANCH   8   6
ATOM      1  O   UNL     1      -0.732   5.427   0.000  0.00  0.00    -0.269 OA
ATOM      2  C   UNL     1       0.093   5.427   0.000  0.00  0.00    +0.255 C 
ATOM      3  N   UNL     1       0.505   4.713   0.000  0.00  0.00    -0.275 N 
ATOM      4  C   UNL     1       1.326   4.627   0.000  0.00  0.00    +0.094 C 
ATOM      5  C   UNL     1       1.497   3.820   0.000  0.00  0.00    +0.033 C 
ATOM      6  C   UNL     1       0.783   3.407   0.000  0.00  0.00    +0.100 C 
ATOM      7  C   UNL     1       0.170   3.959   0.000  0.00  0.00    +0.103 C 
BRANCH   2  23
ATOM     23  C   UNL     1       0.505   6.142   0.000  0.00  0.00    +0.083 A 
ATOM     24  C   UNL     1       0.170   6.896   0.000  0.00  0.00    +0.012 A 
ATOM     25  C   UNL     1       0.783   7.447   0.000  0.00  0.00    +0.008 A 
ATOM     26  C   UNL     1       1.497   7.035   0.000  0.00  0.00    +0.036 A 
ATOM     27  S   UNL     1       1.326   6.228   0.000  0.00  0.00    -0.082 S 
ENDBRANCH   2  23
ENDBRANCH   8   6
BRANCH  11  12
ATOM     12  C   UNL     1      -0.398   0.754   0.000  0.00  0.00    +0.115 C 
BRANCH  12  13
ATOM     13  C   UNL     1      -0.143  -0.030   0.000  0.00  0.00    +0.008 A 
ATOM     14  C   UNL     1      -0.628  -0.698   0.000  0.00  0.00    +0.095 A 
ATOM     15  N   UNL     1      -0.143  -1.365   0.000  0.00  0.00    -0.244 NA
ATOM     16  C   UNL     1       0.641  -1.110   0.000  0.00  0.00    +0.081 A 
ATOM     17  C   UNL     1       0.641  -0.285   0.000  0.00  0.00    +0.016 A 
ATOM     18  C   UNL     1       1.356   0.127   0.000  0.00  0.00    +0.001 A 
ATOM     19  C   UNL     1       2.070  -0.285   0.000  0.00  0.00    +0.000 A 
ATOM     20  C   UNL     1       2.070  -1.110   0.000  0.00  0.00    +0.002 A 
ATOM     21  C   UNL     1       1.356  -1.523   0.000  0.00  0.00    +0.019 A 
ENDBRANCH  12  13
ENDBRANCH  11  12
TORSDOF 4
