REMARK  Name = 
REMARK  6 active torsions:
REMARK  status: ('A' for Active; 'I' for Inactive)
REMARK    1  A    between atoms: O_2  and  C_3
REMARK    2  A    between atoms: C_3  and  C_4
REMARK    3  A    between atoms: C_6  and  C_7
REMARK    4  A    between atoms: C_7  and  C_8
REMARK    5  A    between atoms: C_8  and  N_12
REMARK    6  A    between atoms: N_12  and  C_13
REMARK                            x       y       z     vdW  Elec       q    Type
REMARK                         _______ _______ _______ _____ _____    ______ ____
ROOT
ATOM      8  C   UNL     1       1.992  -0.916   0.000  0.00  0.00    +0.119 C 
ATOM      9  C   UNL     1       2.576  -1.499   0.000  0.00  0.00    +0.161 C 
ATOM     10  O   UNL     1       1.992  -2.082   0.000  0.00  0.00    -0.351 OA
ATOM     11  C   UNL     1       1.409  -1.499   0.000  0.00  0.00    +0.161 C 
ENDROOT
BRANCH   8   7
ATOM      7  C   UNL     1       1.409  -0.332   0.000  0.00  0.00    +0.070 C 
BRANCH   7   6
ATOM      4  C   UNL     1       2.350   1.584   0.000  0.00  0.00    +0.184 A 
ATOM      5  C   UNL     1       2.393   0.760   0.000  0.00  0.00    +0.056 A 
ATOM      6  C   UNL     1       1.623   0.465   0.000  0.00  0.00    +0.102 A 
ATOM     19  N   UNL     1       1.103   1.106   0.000  0.00  0.00    -0.082 NA
ATOM     20  O   UNL     1       1.553   1.798   0.000  0.00  0.00    -0.356 OA
BRANCH   4   3
ATOM      3  C   UNL     1       2.991   2.103   0.000  0.00  0.00    +0.209 C 
BRANCH   3   2
ATOM      1  C   UNL     1       3.503   3.437   0.000  0.00  0.00    +0.175 C 
ATOM      2  O   UNL     1       2.862   2.918   0.000  0.00  0.00    -0.343 OA
ENDBRANCH   3   2
ENDBRANCH   4   3
ENDBRANCH   7   6
ENDBRANCH   8   7
BRANCH   8  12
ATOM     12  N   UNL     1       2.576  -0.332   0.000  0.00  0.00    -0.217 NA
BRANCH  12  13
ATOM     13  C   UNL     1       3.373  -0.546   0.000  0.00  0.00    +0.073 C 
ATOM     14  C   UNL     1       3.956   0.037   0.000  0.00  0.00    +0.017 C 
ATOM     15  C   UNL     1       4.753  -0.176   0.000  0.00  0.00    +0.001 C 
ATOM     16  C   UNL     1       4.966  -0.973   0.000  0.00  0.00    +0.000 C 
ATOM     17  C   UNL     1       4.383  -1.556   0.000  0.00  0.00    +0.001 C 
ATOM     18  C   UNL     1       3.586  -1.343   0.000  0.00  0.00    +0.017 C 
ENDBRANCH  12  13
ENDBRANCH   8  12
TORSDOF 6
