REMARK  Name = 
REMARK  3 active torsions:
REMARK  status: ('A' for Active; 'I' for Inactive)
REMARK    1  A    between atoms: C_5  and  C_7
REMARK    2  A    between atoms: N_14  and  C_15
REMARK    3  A    between atoms: C_15  and  C_16
REMARK                            x       y       z     vdW  Elec       q    Type
REMARK                         _______ _______ _______ _____ _____    ______ ____
ROOT
ATOM      7  C   UNL     1       4.070  -4.241   0.000  0.00  0.00    +0.100 C 
ATOM      8  C   UNL     1       4.325  -5.025   0.000  0.00  0.00    +0.033 C 
ATOM      9  C   UNL     1       3.658  -5.510   0.000  0.00  0.00    +0.096 C 
ATOM     10  N   UNL     1       2.990  -5.025   0.000  0.00  0.00    -0.262 N 
ATOM     11  C   UNL     1       3.245  -4.241   0.000  0.00  0.00    +0.104 C 
ATOM     12  C   UNL     1       2.206  -5.280   0.000  0.00  0.00    +0.324 C 
ATOM     13  O   UNL     1       2.034  -6.087   0.000  0.00  0.00    -0.251 OA
ATOM     14  N   UNL     1       1.593  -4.728   0.000  0.00  0.00    -0.184 NA
ENDROOT
BRANCH   7   5
ATOM      1  C   UNL     1       4.968  -1.479   0.000  0.00  0.00    +0.097 C 
ATOM      2  C   UNL     1       4.968  -2.304   0.000  0.00  0.00    +0.227 A 
ATOM      3  N   UNL     1       5.635  -2.789   0.000  0.00  0.00    -0.112 NA
ATOM      4  N   UNL     1       5.380  -3.573   0.000  0.00  0.00    -0.112 NA
ATOM      5  C   UNL     1       4.555  -3.573   0.000  0.00  0.00    +0.227 A 
ATOM      6  O   UNL     1       4.300  -2.789   0.000  0.00  0.00    -0.423 OA
ENDBRANCH   7   5
BRANCH  14  15
ATOM     15  C   UNL     1       0.808  -4.983   0.000  0.00  0.00    +0.143 C 
BRANCH  15  16
ATOM     16  C   UNL     1       0.195  -4.431   0.000  0.00  0.00    -0.001 A 
ATOM     17  C   UNL     1      -0.590  -4.686   0.000  0.00  0.00    -0.003 A 
ATOM     18  C   UNL     1      -1.203  -4.134   0.000  0.00  0.00    -0.000 A 
ATOM     19  C   UNL     1      -1.031  -3.327   0.000  0.00  0.00    -0.000 A 
ATOM     20  C   UNL     1      -0.247  -3.072   0.000  0.00  0.00    -0.000 A 
ATOM     21  C   UNL     1       0.366  -3.624   0.000  0.00  0.00    -0.003 A 
ENDBRANCH  15  16
ENDBRANCH  14  15
TORSDOF 3
