MODEL 1
REMARK VINA RESULT:     -11.5      0.000      0.000
REMARK  Name = 
REMARK  8 active torsions:
REMARK  status: ('A' for Active; 'I' for Inactive)
REMARK    1  A    between atoms: O_2  and  C_3
REMARK    2  A    between atoms: C_6  and  C_7
REMARK    3  A    between atoms: C_7  and  N_8
REMARK    4  A    between atoms: C_9  and  C_11
REMARK    5  A    between atoms: C_11  and  C_12
REMARK    6  A    between atoms: C_14  and  C_15
REMARK    7  A    between atoms: C_15  and  N_16
REMARK    8  A    between atoms: C_17  and  C_19
REMARK                            x       y       z     vdW  Elec       q    Type
REMARK                         _______ _______ _______ _____ _____    ______ ____
ROOT
ATOM     12  C   UNL     1      -0.753   1.711  24.635  0.00  0.00    +0.157 C 
ATOM     13  O   UNL     1      -1.549   1.920  24.689  0.00  0.00    -0.351 OA
ATOM     14  C   UNL     1      -1.610   2.729  24.540  0.00  0.00    +0.170 C 
ATOM     26  C   UNL     1      -0.852   3.020  24.395  0.00  0.00    +0.213 C 
ATOM     27  O   UNL     1      -0.658   3.802  24.222  0.00  0.00    -0.218 OA
ATOM     28  C   UNL     1      -0.323   2.390  24.454  0.00  0.00    +0.212 C 
ATOM     29  O   UNL     1       0.495   2.433  24.350  0.00  0.00    -0.218 OA
ENDROOT
BRANCH  12  11
ATOM     11  C   UNL     1      -0.443   0.954  24.744  0.00  0.00    +0.119 C 
BRANCH  11   9
ATOM      8  N   UNL     1      -1.255  -0.196  24.987  0.00  0.00    -0.200 NA
ATOM      9  C   UNL     1      -0.803   0.433  25.272  0.00  0.00    +0.244 C 
ATOM     10  O   UNL     1      -0.713   0.540  26.085  0.00  0.00    -0.273 OA
BRANCH   8   7
ATOM      7  C   UNL     1      -1.616  -0.717  25.515  0.00  0.00    +0.141 C 
BRANCH   7   6
ATOM      3  C   UNL     1      -3.353  -2.287  24.710  0.00  0.00    +0.139 A 
ATOM      4  C   UNL     1      -3.561  -1.654  25.197  0.00  0.00    +0.037 A 
ATOM      5  C   UNL     1      -2.983  -1.132  25.465  0.00  0.00    +0.001 A 
ATOM      6  C   UNL     1      -2.195  -1.241  25.246  0.00  0.00    -0.000 A 
ATOM     30  C   UNL     1      -1.986  -1.872  24.759  0.00  0.00    +0.001 A 
ATOM     31  C   UNL     1      -2.565  -2.396  24.491  0.00  0.00    +0.037 A 
BRANCH   3   2
ATOM      1  C   UNL     1      -4.333  -2.655  23.738  0.00  0.00    +0.252 C 
ATOM      2  O   UNL     1      -3.931  -2.810  24.442  0.00  0.00    -0.471 OA
ENDBRANCH   3   2
ENDBRANCH   7   6
ENDBRANCH   8   7
ENDBRANCH  11   9
ENDBRANCH  12  11
BRANCH  14  15
ATOM     15  C   UNL     1      -2.308   3.171  24.537  0.00  0.00    +0.148 C 
BRANCH  15  16
ATOM     16  N   UNL     1      -3.010   2.836  24.811  0.00  0.00    -0.199 NA
ATOM     17  C   UNL     1      -3.727   3.226  24.694  0.00  0.00    +0.265 C 
ATOM     18  O   UNL     1      -3.742   3.953  24.303  0.00  0.00    -0.268 OA
BRANCH  17  19
ATOM     19  C   UNL     1      -4.429   2.891  24.968  0.00  0.00    +0.057 A 
ATOM     20  C   UNL     1      -4.853   3.258  25.574  0.00  0.00    +0.005 A 
ATOM     21  C   UNL     1      -5.555   2.921  25.847  0.00  0.00    +0.002 A 
ATOM     22  C   UNL     1      -5.833   2.220  25.516  0.00  0.00    +0.030 A 
ATOM     23  C   UNL     1      -5.411   1.853  24.910  0.00  0.00    +0.140 A 
ATOM     24  F   UNL     1      -5.689   1.152  24.578  0.00  0.00    -0.204 F 
ATOM     25  C   UNL     1      -4.708   2.189  24.636  0.00  0.00    +0.034 A 
ENDBRANCH  17  19
ENDBRANCH  15  16
ENDBRANCH  14  15
TORSDOF 8
ENDMDL
MODEL 2
REMARK VINA RESULT:     -11.4      1.622      4.271
REMARK  Name = 
REMARK  8 active torsions:
REMARK  status: ('A' for Active; 'I' for Inactive)
REMARK    1  A    between atoms: O_2  and  C_3
REMARK    2  A    between atoms: C_6  and  C_7
REMARK    3  A    between atoms: C_7  and  N_8
REMARK    4  A    between atoms: C_9  and  C_11
REMARK    5  A    between atoms: C_11  and  C_12
REMARK    6  A    between atoms: C_14  and  C_15
REMARK    7  A    between atoms: C_15  and  N_16
REMARK    8  A    between atoms: C_17  and  C_19
REMARK                            x       y       z     vdW  Elec       q    Type
REMARK                         _______ _______ _______ _____ _____    ______ ____
ROOT
ATOM     12  C   UNL     1      -2.392  -0.651  25.079  0.00  0.00    +0.157 C 
ATOM     13  O   UNL     1      -2.117   0.119  25.185  0.00  0.00    -0.351 OA
ATOM     14  C   UNL     1      -1.292   0.099  25.176  0.00  0.00    +0.170 C 
ATOM     26  C   UNL     1      -1.057  -0.684  25.065  0.00  0.00    +0.213 C 
ATOM     27  O   UNL     1      -0.280  -0.956  25.021  0.00  0.00    -0.218 OA
ATOM     28  C   UNL     1      -1.737  -1.148  25.005  0.00  0.00    +0.212 C 
ATOM     29  O   UNL     1      -1.759  -1.964  24.890  0.00  0.00    -0.218 OA
ENDROOT
BRANCH  12  11
ATOM     11  C   UNL     1      -3.183  -0.884  25.053  0.00  0.00    +0.119 C 
BRANCH  11   9
ATOM      8  N   UNL     1      -4.152   0.165  25.004  0.00  0.00    -0.200 NA
ATOM      9  C   UNL     1      -3.730  -0.437  24.627  0.00  0.00    +0.244 C 
ATOM     10  O   UNL     1      -3.855  -0.589  23.826  0.00  0.00    -0.273 OA
BRANCH   8   7
ATOM      7  C   UNL     1      -4.699   0.612  24.578  0.00  0.00    +0.141 C 
BRANCH   7   6
ATOM      3  C   UNL     1      -5.523   2.758  25.499  0.00  0.00    +0.139 A 
ATOM      4  C   UNL     1      -5.008   2.755  24.854  0.00  0.00    +0.037 A 
ATOM      5  C   UNL     1      -4.733   2.041  24.548  0.00  0.00    +0.001 A 
ATOM      6  C   UNL     1      -4.974   1.328  24.885  0.00  0.00    -0.000 A 
ATOM     30  C   UNL     1      -5.489   1.329  25.529  0.00  0.00    +0.001 A 
ATOM     31  C   UNL     1      -5.764   2.044  25.836  0.00  0.00    +0.037 A 
BRANCH   3   2
ATOM      1  C   UNL     1      -5.534   4.187  25.489  0.00  0.00    +0.252 C 
ATOM      2  O   UNL     1      -5.798   3.472  25.805  0.00  0.00    -0.471 OA
ENDBRANCH   3   2
ENDBRANCH   7   6
ENDBRANCH   8   7
ENDBRANCH  11   9
ENDBRANCH  12  11
BRANCH  14  15
ATOM     15  C   UNL     1      -0.790   0.748  25.264  0.00  0.00    +0.148 C 
BRANCH  15  16
ATOM     16  N   UNL     1      -1.094   1.513  25.226  0.00  0.00    -0.199 NA
ATOM     17  C   UNL     1      -0.613   2.158  25.407  0.00  0.00    +0.265 C 
ATOM     18  O   UNL     1       0.174   2.037  25.626  0.00  0.00    -0.268 OA
BRANCH  17  19
ATOM     19  C   UNL     1      -0.917   2.924  25.370  0.00  0.00    +0.057 A 
ATOM     20  C   UNL     1      -0.630   3.455  24.807  0.00  0.00    +0.005 A 
ATOM     21  C   UNL     1      -0.935   4.221  24.770  0.00  0.00    +0.002 A 
ATOM     22  C   UNL     1      -1.525   4.456  25.295  0.00  0.00    +0.030 A 
ATOM     23  C   UNL     1      -1.813   3.925  25.858  0.00  0.00    +0.140 A 
ATOM     24  F   UNL     1      -2.403   4.160  26.383  0.00  0.00    -0.204 F 
ATOM     25  C   UNL     1      -1.508   3.159  25.895  0.00  0.00    +0.034 A 
ENDBRANCH  17  19
ENDBRANCH  15  16
ENDBRANCH  14  15
TORSDOF 8
ENDMDL
MODEL 3
REMARK VINA RESULT:     -11.3      2.080      3.858
REMARK  Name = 
REMARK  8 active torsions:
REMARK  status: ('A' for Active; 'I' for Inactive)
REMARK    1  A    between atoms: O_2  and  C_3
REMARK    2  A    between atoms: C_6  and  C_7
REMARK    3  A    between atoms: C_7  and  N_8
REMARK    4  A    between atoms: C_9  and  C_11
REMARK    5  A    between atoms: C_11  and  C_12
REMARK    6  A    between atoms: C_14  and  C_15
REMARK    7  A    between atoms: C_15  and  N_16
REMARK    8  A    between atoms: C_17  and  C_19
REMARK                            x       y       z     vdW  Elec       q    Type
REMARK                         _______ _______ _______ _____ _____    ______ ____
ROOT
ATOM     12  C   UNL     1      -4.818   1.459  24.959  0.00  0.00    +0.157 C 
ATOM     13  O   UNL     1      -4.207   1.960  25.196  0.00  0.00    -0.351 OA
ATOM     14  C   UNL     1      -4.537   2.691  25.385  0.00  0.00    +0.170 C 
ATOM     26  C   UNL     1      -5.352   2.643  25.265  0.00  0.00    +0.213 C 
ATOM     27  O   UNL     1      -5.897   3.249  25.387  0.00  0.00    -0.218 OA
ATOM     28  C   UNL     1      -5.525   1.880  25.002  0.00  0.00    +0.212 C 
ATOM     29  O   UNL     1      -6.274   1.591  24.814  0.00  0.00    -0.218 OA
ENDROOT
BRANCH  12  11
ATOM     11  C   UNL     1      -4.735   0.673  24.721  0.00  0.00    +0.119 C 
BRANCH  11   9
ATOM      8  N   UNL     1      -3.473   0.007  24.808  0.00  0.00    -0.200 NA
ATOM      9  C   UNL     1      -4.218   0.172  25.124  0.00  0.00    +0.244 C 
ATOM     10  O   UNL     1      -4.445  -0.163  25.843  0.00  0.00    -0.273 OA
BRANCH   8   7
ATOM      7  C   UNL     1      -2.956  -0.493  25.212  0.00  0.00    +0.141 C 
BRANCH   7   6
ATOM      3  C   UNL     1      -0.653  -0.831  24.368  0.00  0.00    +0.139 A 
ATOM      4  C   UNL     1      -0.889  -0.089  24.641  0.00  0.00    +0.037 A 
ATOM      5  C   UNL     1      -1.655   0.024  24.922  0.00  0.00    +0.001 A 
ATOM      6  C   UNL     1      -2.188  -0.606  24.930  0.00  0.00    -0.000 A 
ATOM     30  C   UNL     1      -1.954  -1.348  24.658  0.00  0.00    +0.001 A 
ATOM     31  C   UNL     1      -1.186  -1.461  24.377  0.00  0.00    +0.037 A 
BRANCH   3   2
ATOM      1  C   UNL     1       0.458  -0.383  23.590  0.00  0.00    +0.252 C 
ATOM      2  O   UNL     1       0.113  -0.944  24.087  0.00  0.00    -0.471 OA
ENDBRANCH   3   2
ENDBRANCH   7   6
ENDBRANCH   8   7
ENDBRANCH  11   9
ENDBRANCH  12  11
BRANCH  14  15
ATOM     15  C   UNL     1      -4.124   3.356  25.648  0.00  0.00    +0.148 C 
BRANCH  15  16
ATOM     16  N   UNL     1      -3.351   3.490  25.394  0.00  0.00    -0.199 NA
ATOM     17  C   UNL     1      -2.860   3.999  25.818  0.00  0.00    +0.265 C 
ATOM     18  O   UNL     1      -3.141   4.373  26.497  0.00  0.00    -0.268 OA
BRANCH  17  19
ATOM     19  C   UNL     1      -2.087   4.133  25.563  0.00  0.00    +0.057 A 
ATOM     20  C   UNL     1      -1.529   3.526  25.600  0.00  0.00    +0.005 A 
ATOM     21  C   UNL     1      -0.756   3.661  25.345  0.00  0.00    +0.002 A 
ATOM     22  C   UNL     1      -0.540   4.401  25.054  0.00  0.00    +0.030 A 
ATOM     23  C   UNL     1      -1.097   5.008  25.017  0.00  0.00    +0.140 A 
ATOM     24  F   UNL     1      -0.882   5.749  24.726  0.00  0.00    -0.204 F 
ATOM     25  C   UNL     1      -1.871   4.874  25.272  0.00  0.00    +0.034 A 
ENDBRANCH  17  19
ENDBRANCH  15  16
ENDBRANCH  14  15
TORSDOF 8
ENDMDL
MODEL 4
REMARK VINA RESULT:     -11.2      1.662      4.712
REMARK  Name = 
REMARK  8 active torsions:
REMARK  status: ('A' for Active; 'I' for Inactive)
REMARK    1  A    between atoms: O_2  and  C_3
REMARK    2  A    between atoms: C_6  and  C_7
REMARK    3  A    between atoms: C_7  and  N_8
REMARK    4  A    between atoms: C_9  and  C_11
REMARK    5  A    between atoms: C_11  and  C_12
REMARK    6  A    between atoms: C_14  and  C_15
REMARK    7  A    between atoms: C_15  and  N_16
REMARK    8  A    between atoms: C_17  and  C_19
REMARK                            x       y       z     vdW  Elec       q    Type
REMARK                         _______ _______ _______ _____ _____    ______ ____
ROOT
ATOM     12  C   UNL     1      -4.441   3.214  25.237  0.00  0.00    +0.157 C 
ATOM     13  O   UNL     1      -4.195   2.453  25.037  0.00  0.00    -0.351 OA
ATOM     14  C   UNL     1      -4.858   1.962  25.043  0.00  0.00    +0.170 C 
ATOM     26  C   UNL     1      -5.514   2.420  25.247  0.00  0.00    +0.213 C 
ATOM     27  O   UNL     1      -6.289   2.151  25.318  0.00  0.00    -0.218 OA
ATOM     28  C   UNL     1      -5.255   3.194  25.367  0.00  0.00    +0.212 C 
ATOM     29  O   UNL     1      -5.729   3.835  25.579  0.00  0.00    -0.218 OA
ENDROOT
BRANCH  12  11
ATOM     11  C   UNL     1      -3.957   3.881  25.296  0.00  0.00    +0.119 C 
BRANCH  11   9
ATOM      8  N   UNL     1      -2.552   3.630  25.358  0.00  0.00    -0.200 NA
ATOM      9  C   UNL     1      -3.257   3.843  25.731  0.00  0.00    +0.244 C 
ATOM     10  O   UNL     1      -3.261   4.018  26.537  0.00  0.00    -0.273 OA
BRANCH   8   7
ATOM      7  C   UNL     1      -1.851   3.592  25.792  0.00  0.00    +0.141 C 
BRANCH   7   6
ATOM      3  C   UNL     1       0.099   2.364  24.887  0.00  0.00    +0.139 A 
ATOM      4  C   UNL     1      -0.234   2.138  25.608  0.00  0.00    +0.037 A 
ATOM      5  C   UNL     1      -0.883   2.547  25.909  0.00  0.00    +0.001 A 
ATOM      6  C   UNL     1      -1.201   3.182  25.490  0.00  0.00    -0.000 A 
ATOM     30  C   UNL     1      -0.870   3.409  24.769  0.00  0.00    +0.001 A 
ATOM     31  C   UNL     1      -0.219   2.999  24.468  0.00  0.00    +0.037 A 
BRANCH   3   2
ATOM      1  C   UNL     1       0.643   1.396  23.987  0.00  0.00    +0.252 C 
ATOM      2  O   UNL     1       0.748   1.955  24.585  0.00  0.00    -0.471 OA
ENDBRANCH   3   2
ENDBRANCH   7   6
ENDBRANCH   8   7
ENDBRANCH  11   9
ENDBRANCH  12  11
BRANCH  14  15
ATOM     15  C   UNL     1      -4.864   1.154  24.875  0.00  0.00    +0.148 C 
BRANCH  15  16
ATOM     16  N   UNL     1      -4.217   0.685  25.078  0.00  0.00    -0.199 NA
ATOM     17  C   UNL     1      -4.150  -0.079  24.774  0.00  0.00    +0.265 C 
ATOM     18  O   UNL     1      -4.730  -0.374  24.267  0.00  0.00    -0.268 OA
BRANCH  17  19
ATOM     19  C   UNL     1      -3.503  -0.548  24.977  0.00  0.00    +0.057 A 
ATOM     20  C   UNL     1      -3.542  -1.045  25.636  0.00  0.00    +0.005 A 
ATOM     21  C   UNL     1      -2.894  -1.513  25.837  0.00  0.00    +0.002 A 
ATOM     22  C   UNL     1      -2.207  -1.487  25.383  0.00  0.00    +0.030 A 
ATOM     23  C   UNL     1      -2.167  -0.991  24.725  0.00  0.00    +0.140 A 
ATOM     24  F   UNL     1      -1.480  -0.964  24.269  0.00  0.00    -0.204 F 
ATOM     25  C   UNL     1      -2.815  -0.522  24.522  0.00  0.00    +0.034 A 
ENDBRANCH  17  19
ENDBRANCH  15  16
ENDBRANCH  14  15
TORSDOF 8
ENDMDL
MODEL 5
REMARK VINA RESULT:     -11.1      1.387      4.019
REMARK  Name = 
REMARK  8 active torsions:
REMARK  status: ('A' for Active; 'I' for Inactive)
REMARK    1  A    between atoms: O_2  and  C_3
REMARK    2  A    between atoms: C_6  and  C_7
REMARK    3  A    between atoms: C_7  and  N_8
REMARK    4  A    between atoms: C_9  and  C_11
REMARK    5  A    between atoms: C_11  and  C_12
REMARK    6  A    between atoms: C_14  and  C_15
REMARK    7  A    between atoms: C_15  and  N_16
REMARK    8  A    between atoms: C_17  and  C_19
REMARK                            x       y       z     vdW  Elec       q    Type
REMARK                         _______ _______ _______ _____ _____    ______ ____
ROOT
ATOM     12  C   UNL     1      -2.438  -0.877  24.764  0.00  0.00    +0.157 C 
ATOM     13  O   UNL     1      -2.934  -0.228  24.876  0.00  0.00    -0.351 OA
ATOM     14  C   UNL     1      -3.702  -0.458  24.681  0.00  0.00    +0.170 C 
ATOM     26  C   UNL     1      -3.680  -1.249  24.447  0.00  0.00    +0.213 C 
ATOM     27  O   UNL     1      -4.325  -1.702  24.205  0.00  0.00    -0.218 OA
ATOM     28  C   UNL     1      -2.898  -1.508  24.499  0.00  0.00    +0.212 C 
ATOM     29  O   UNL     1      -2.625  -2.264  24.318  0.00  0.00    -0.218 OA
ENDROOT
BRANCH  12  11
ATOM     11  C   UNL     1      -1.623  -0.891  24.894  0.00  0.00    +0.119 C 
BRANCH  11   9
ATOM      8  N   UNL     1      -1.029   0.396  25.074  0.00  0.00    -0.200 NA
ATOM      9  C   UNL     1      -1.274  -0.328  25.386  0.00  0.00    +0.244 C 
ATOM     10  O   UNL     1      -1.170  -0.488  26.188  0.00  0.00    -0.273 OA
BRANCH   8   7
ATOM      7  C   UNL     1      -0.680   0.959  25.565  0.00  0.00    +0.141 C 
BRANCH   7   6
ATOM      3  C   UNL     1      -0.661   3.342  24.894  0.00  0.00    +0.139 A 
ATOM      4  C   UNL     1      -0.348   2.769  24.390  0.00  0.00    +0.037 A 
ATOM      5  C   UNL     1      -0.354   1.975  24.613  0.00  0.00    +0.001 A 
ATOM      6  C   UNL     1      -0.674   1.754  25.341  0.00  0.00    -0.000 A 
ATOM     30  C   UNL     1      -0.987   2.327  25.846  0.00  0.00    +0.001 A 
ATOM     31  C   UNL     1      -0.980   3.121  25.622  0.00  0.00    +0.037 A 
BRANCH   3   2
ATOM      1  C   UNL     1      -1.050   4.697  25.129  0.00  0.00    +0.252 C 
ATOM      2  O   UNL     1      -0.654   4.136  24.671  0.00  0.00    -0.471 OA
ENDBRANCH   3   2
ENDBRANCH   7   6
ENDBRANCH   8   7
ENDBRANCH  11   9
ENDBRANCH  12  11
BRANCH  14  15
ATOM     15  C   UNL     1      -4.375   0.019  24.712  0.00  0.00    +0.148 C 
BRANCH  15  16
ATOM     16  N   UNL     1      -4.301   0.828  24.856  0.00  0.00    -0.199 NA
ATOM     17  C   UNL     1      -4.967   1.314  24.831  0.00  0.00    +0.265 C 
ATOM     18  O   UNL     1      -5.708   0.990  24.664  0.00  0.00    -0.268 OA
BRANCH  17  19
ATOM     19  C   UNL     1      -4.893   2.122  24.975  0.00  0.00    +0.057 A 
ATOM     20  C   UNL     1      -5.199   2.449  25.669  0.00  0.00    +0.005 A 
ATOM     21  C   UNL     1      -5.125   3.258  25.811  0.00  0.00    +0.002 A 
ATOM     22  C   UNL     1      -4.745   3.741  25.261  0.00  0.00    +0.030 A 
ATOM     23  C   UNL     1      -4.439   3.416  24.568  0.00  0.00    +0.140 A 
ATOM     24  F   UNL     1      -4.060   3.898  24.017  0.00  0.00    -0.204 F 
ATOM     25  C   UNL     1      -4.513   2.606  24.425  0.00  0.00    +0.034 A 
ENDBRANCH  17  19
ENDBRANCH  15  16
ENDBRANCH  14  15
TORSDOF 8
ENDMDL
MODEL 6
REMARK VINA RESULT:     -10.9      1.202      4.319
REMARK  Name = 
REMARK  8 active torsions:
REMARK  status: ('A' for Active; 'I' for Inactive)
REMARK    1  A    between atoms: O_2  and  C_3
REMARK    2  A    between atoms: C_6  and  C_7
REMARK    3  A    between atoms: C_7  and  N_8
REMARK    4  A    between atoms: C_9  and  C_11
REMARK    5  A    between atoms: C_11  and  C_12
REMARK    6  A    between atoms: C_14  and  C_15
REMARK    7  A    between atoms: C_15  and  N_16
REMARK    8  A    between atoms: C_17  and  C_19
REMARK                            x       y       z     vdW  Elec       q    Type
REMARK                         _______ _______ _______ _____ _____    ______ ____
ROOT
ATOM     12  C   UNL     1      -0.749   1.430  24.285  0.00  0.00    +0.157 C 
ATOM     13  O   UNL     1      -1.216   0.774  24.466  0.00  0.00    -0.351 OA
ATOM     14  C   UNL     1      -0.749   0.099  24.384  0.00  0.00    +0.170 C 
ATOM     26  C   UNL     1       0.007   0.338  24.153  0.00  0.00    +0.213 C 
ATOM     27  O   UNL     1       0.649  -0.158  24.009  0.00  0.00    -0.218 OA
ATOM     28  C   UNL     1       0.006   1.161  24.093  0.00  0.00    +0.212 C 
ATOM     29  O   UNL     1       0.648   1.631  23.877  0.00  0.00    -0.218 OA
ENDROOT
BRANCH  12  11
ATOM     11  C   UNL     1      -0.995   2.218  24.296  0.00  0.00    +0.119 C 
BRANCH  11   9
ATOM      8  N   UNL     1      -2.357   2.622  24.448  0.00  0.00    -0.200 NA
ATOM      9  C   UNL     1      -1.719   2.428  23.961  0.00  0.00    +0.244 C 
ATOM     10  O   UNL     1      -1.806   2.443  23.141  0.00  0.00    -0.273 OA
BRANCH   8   7
ATOM      7  C   UNL     1      -3.081   2.832  24.113  0.00  0.00    +0.141 C 
BRANCH   7   6
ATOM      3  C   UNL     1      -5.107   2.962  25.530  0.00  0.00    +0.139 A 
ATOM      4  C   UNL     1      -5.043   2.376  24.953  0.00  0.00    +0.037 A 
ATOM      5  C   UNL     1      -4.369   2.332  24.481  0.00  0.00    +0.001 A 
ATOM      6  C   UNL     1      -3.757   2.876  24.586  0.00  0.00    -0.000 A 
ATOM     30  C   UNL     1      -3.819   3.462  25.162  0.00  0.00    +0.001 A 
ATOM     31  C   UNL     1      -4.495   3.505  25.635  0.00  0.00    +0.037 A 
BRANCH   3   2
ATOM      1  C   UNL     1      -6.175   2.316  26.225  0.00  0.00    +0.252 C 
ATOM      2  O   UNL     1      -5.781   3.006  26.002  0.00  0.00    -0.471 OA
ENDBRANCH   3   2
ENDBRANCH   7   6
ENDBRANCH   8   7
ENDBRANCH  11   9
ENDBRANCH  12  11
BRANCH  14  15
ATOM     15  C   UNL     1      -0.993  -0.679  24.511  0.00  0.00    +0.148 C 
BRANCH  15  16
ATOM     16  N   UNL     1      -1.772  -0.898  24.349  0.00  0.00    -0.199 NA
ATOM     17  C   UNL     1      -2.053  -1.633  24.595  0.00  0.00    +0.265 C 
ATOM     18  O   UNL     1      -1.555  -2.150  25.003  0.00  0.00    -0.268 OA
BRANCH  17  19
ATOM     19  C   UNL     1      -2.831  -1.853  24.432  0.00  0.00    +0.057 A 
ATOM     20  C   UNL     1      -3.029  -2.651  24.361  0.00  0.00    +0.005 A 
ATOM     21  C   UNL     1      -3.808  -2.869  24.199  0.00  0.00    +0.002 A 
ATOM     22  C   UNL     1      -4.388  -2.291  24.108  0.00  0.00    +0.030 A 
ATOM     23  C   UNL     1      -4.192  -1.494  24.178  0.00  0.00    +0.140 A 
ATOM     24  F   UNL     1      -4.772  -0.915  24.087  0.00  0.00    -0.204 F 
ATOM     25  C   UNL     1      -3.412  -1.275  24.341  0.00  0.00    +0.034 A 
ENDBRANCH  17  19
ENDBRANCH  15  16
ENDBRANCH  14  15
TORSDOF 8
ENDMDL
