REMARK  Name = 
REMARK  9 active torsions:
REMARK  status: ('A' for Active; 'I' for Inactive)
REMARK    1  A    between atoms: S_2  and  C_3
REMARK    2  A    between atoms: C_7  and  N_8
REMARK    3  A    between atoms: N_11  and  C_12
REMARK    4  A    between atoms: C_16  and  C_17
REMARK    5  A    between atoms: N_19  and  C_20
REMARK    6  A    between atoms: C_20  and  C_21
REMARK    7  A    between atoms: C_20  and  C_27
REMARK    8  A    between atoms: C_21  and  C_22
REMARK    9  A    between atoms: C_30  and  C_32
REMARK                            x       y       z     vdW  Elec       q    Type
REMARK                         _______ _______ _______ _____ _____    ______ ____
ROOT
ATOM     12  C   UNL     1       4.122   2.024   0.000  0.00  0.00    +0.126 C 
ATOM     13  C   UNL     1       3.315   1.853   0.000  0.00  0.00    +0.045 C 
ATOM     14  C   UNL     1       2.903   2.567   0.000  0.00  0.00    +0.096 C 
ATOM     15  N   UNL     1       3.455   3.180   0.000  0.00  0.00    -0.268 N 
ATOM     16  C   UNL     1       4.209   2.845   0.000  0.00  0.00    +0.174 C 
ATOM     30  C   UNL     1       3.283   3.987   0.000  0.00  0.00    +0.249 C 
ATOM     31  O   UNL     1       3.897   4.539   0.000  0.00  0.00    -0.270 OA
ENDROOT
BRANCH  12  11
ATOM      8  N   UNL     1       5.177   0.113   0.000  0.00  0.00    -0.161 NA
ATOM      9  C   UNL     1       4.564   0.665   0.000  0.00  0.00    +0.344 C 
ATOM     10  O   UNL     1       3.779   0.410   0.000  0.00  0.00    -0.249 OA
ATOM     11  N   UNL     1       4.735   1.472   0.000  0.00  0.00    -0.186 NA
BRANCH   8   7
ATOM      3  C   UNL     1       5.447  -2.053   0.000  0.00  0.00    +0.027 A 
ATOM      4  C   UNL     1       4.662  -2.308   0.000  0.00  0.00    +0.006 A 
ATOM      5  C   UNL     1       4.049  -1.756   0.000  0.00  0.00    +0.002 A 
ATOM      6  C   UNL     1       4.221  -0.949   0.000  0.00  0.00    +0.017 A 
ATOM      7  C   UNL     1       5.005  -0.694   0.000  0.00  0.00    +0.075 A 
ATOM     36  C   UNL     1       5.619  -1.246   0.000  0.00  0.00    +0.023 A 
BRANCH   3   2
ATOM      1  C   UNL     1       5.889  -3.412   0.000  0.00  0.00    +0.074 C 
ATOM      2  S   UNL     1       6.060  -2.605   0.000  0.00  0.00    -0.113 S 
ENDBRANCH   3   2
ENDBRANCH   8   7
ENDBRANCH  12  11
BRANCH  30  32
ATOM     32  C   UNL     1       2.499   4.242   0.000  0.00  0.00    +0.049 C 
ATOM     33  C   UNL     1       1.886   3.690   0.000  0.00  0.00    -0.039 C 
ATOM     34  C   UNL     1       1.101   3.945   0.000  0.00  0.00    +0.027 C 
ATOM     35  C   UNL     1       2.057   2.883   0.000  0.00  0.00    +0.027 C 
ENDBRANCH  30  32
BRANCH  16  17
ATOM     17  C   UNL     1       4.923   3.257   0.000  0.00  0.00    +0.262 C 
ATOM     18  O   UNL     1       5.638   2.845   0.000  0.00  0.00    -0.271 OA
ATOM     19  N   UNL     1       4.923   4.082   0.000  0.00  0.00    -0.196 NA
BRANCH  19  20
ATOM     20  C   UNL     1       5.638   4.495   0.000  0.00  0.00    +0.179 C 
BRANCH  20  27
ATOM     27  C   UNL     1       6.352   4.082   0.000  0.00  0.00    +0.281 C 
ATOM     28  N   UNL     1       7.066   4.495   0.000  0.00  0.00    -0.086 NA
ATOM     29  O   UNL     1       6.352   3.257   0.000  0.00  0.00    -0.270 OA
ENDBRANCH  20  27
BRANCH  20  21
ATOM     21  C   UNL     1       5.638   5.319   0.000  0.00  0.00    +0.064 C 
BRANCH  21  22
ATOM     22  C   UNL     1       6.352   5.732   0.000  0.00  0.00    +0.010 A 
ATOM     23  C   UNL     1       6.438   6.553   0.000  0.00  0.00    +0.003 A 
ATOM     24  C   UNL     1       7.245   6.724   0.000  0.00  0.00    +0.007 A 
ATOM     25  C   UNL     1       7.658   6.010   0.000  0.00  0.00    +0.035 A 
ATOM     26  S   UNL     1       7.106   5.396   0.000  0.00  0.00    -0.091 S 
ENDBRANCH  21  22
ENDBRANCH  20  21
ENDBRANCH  19  20
ENDBRANCH  16  17
TORSDOF 9
