MODEL 1
REMARK VINA RESULT:     -10.7      0.000      0.000
REMARK  Name = 
REMARK  7 active torsions:
REMARK  status: ('A' for Active; 'I' for Inactive)
REMARK    1  A    between atoms: C_2  and  N_3
REMARK    2  A    between atoms: N_3  and  C_4
REMARK    3  A    between atoms: C_6  and  C_8
REMARK    4  A    between atoms: C_8  and  C_9
REMARK    5  A    between atoms: C_9  and  C_10
REMARK    6  A    between atoms: C_17  and  N_20
REMARK    7  A    between atoms: C_21  and  C_23
REMARK                            x       y       z     vdW  Elec       q    Type
REMARK                         _______ _______ _______ _____ _____    ______ ____
ROOT
ATOM     10  C   UNL     1      -4.761   1.423  24.888  0.00  0.00    +0.080 C 
ATOM     11  C   UNL     1      -5.505   1.298  25.221  0.00  0.00    +0.131 C 
ATOM     12  N   UNL     1      -5.888   1.913  25.616  0.00  0.00    -0.203 NA
ATOM     13  C   UNL     1      -5.526   2.652  25.678  0.00  0.00    +0.256 C 
ATOM     14  O   UNL     1      -5.909   3.266  26.074  0.00  0.00    -0.272 OA
ATOM     15  C   UNL     1      -4.782   2.776  25.346  0.00  0.00    +0.138 C 
ATOM     16  C   UNL     1      -4.292   3.439  25.319  0.00  0.00    +0.048 C 
ATOM     17  C   UNL     1      -3.608   3.235  24.908  0.00  0.00    +0.113 C 
ATOM     18  C   UNL     1      -3.673   2.445  24.680  0.00  0.00    +0.094 C 
ATOM     19  N   UNL     1      -4.399   2.162  24.951  0.00  0.00    -0.265 NA
ENDROOT
BRANCH  17  20
ATOM     20  N   UNL     1      -2.968   3.733  24.751  0.00  0.00    -0.202 NA
ATOM     21  C   UNL     1      -2.345   3.784  25.289  0.00  0.00    +0.271 C 
ATOM     22  O   UNL     1      -2.360   3.338  25.982  0.00  0.00    -0.268 OA
BRANCH  21  23
ATOM     23  C   UNL     1      -1.705   4.283  25.132  0.00  0.00    +0.084 A 
ATOM     24  C   UNL     1      -1.717   5.107  25.155  0.00  0.00    +0.012 A 
ATOM     25  C   UNL     1      -0.962   5.378  24.963  0.00  0.00    +0.008 A 
ATOM     26  C   UNL     1      -0.483   4.721  24.821  0.00  0.00    +0.036 A 
ATOM     27  S   UNL     1      -0.944   4.044  24.927  0.00  0.00    -0.082 S 
ENDBRANCH  21  23
ENDBRANCH  17  20
BRANCH  10   9
ATOM      9  C   UNL     1      -4.378   0.808  24.493  0.00  0.00    +0.027 C 
BRANCH   9   8
ATOM      8  C   UNL     1      -4.324   0.062  24.843  0.00  0.00    +0.087 C 
BRANCH   8   6
ATOM      3  N   UNL     1      -3.689  -1.217  24.814  0.00  0.00    -0.280 N 
ATOM      6  C   UNL     1      -4.016  -0.572  24.416  0.00  0.00    +0.226 C 
ATOM      7  O   UNL     1      -4.033  -0.563  23.591  0.00  0.00    -0.275 OA
BRANCH   3   2
ATOM      1  C   UNL     1      -3.719  -2.601  24.457  0.00  0.00    +0.023 C 
ATOM      2  C   UNL     1      -3.380  -1.852  24.387  0.00  0.00    +0.093 C 
ENDBRANCH   3   2
BRANCH   3   4
ATOM      4  C   UNL     1      -3.671  -1.227  25.639  0.00  0.00    +0.093 C 
ATOM      5  C   UNL     1      -2.989  -1.475  26.033  0.00  0.00    +0.023 C 
ENDBRANCH   3   4
ENDBRANCH   8   6
ENDBRANCH   9   8
ENDBRANCH  10   9
TORSDOF 7
ENDMDL
MODEL 2
REMARK VINA RESULT:     -10.1      1.592      4.760
REMARK  Name = 
REMARK  7 active torsions:
REMARK  status: ('A' for Active; 'I' for Inactive)
REMARK    1  A    between atoms: C_2  and  N_3
REMARK    2  A    between atoms: N_3  and  C_4
REMARK    3  A    between atoms: C_6  and  C_8
REMARK    4  A    between atoms: C_8  and  C_9
REMARK    5  A    between atoms: C_9  and  C_10
REMARK    6  A    between atoms: C_17  and  N_20
REMARK    7  A    between atoms: C_21  and  C_23
REMARK                            x       y       z     vdW  Elec       q    Type
REMARK                         _______ _______ _______ _____ _____    ______ ____
ROOT
ATOM     10  C   UNL     1      -4.249   2.722  25.051  0.00  0.00    +0.080 C 
ATOM     11  C   UNL     1      -4.729   3.245  25.471  0.00  0.00    +0.131 C 
ATOM     12  N   UNL     1      -5.425   2.973  25.821  0.00  0.00    -0.203 NA
ATOM     13  C   UNL     1      -5.641   2.180  25.750  0.00  0.00    +0.256 C 
ATOM     14  O   UNL     1      -6.338   1.910  26.099  0.00  0.00    -0.272 OA
ATOM     15  C   UNL     1      -5.161   1.659  25.329  0.00  0.00    +0.138 C 
ATOM     16  C   UNL     1      -5.230   0.853  25.167  0.00  0.00    +0.048 C 
ATOM     17  C   UNL     1      -4.578   0.626  24.717  0.00  0.00    +0.113 C 
ATOM     18  C   UNL     1      -4.104   1.290  24.601  0.00  0.00    +0.094 C 
ATOM     19  N   UNL     1      -4.465   1.929  24.980  0.00  0.00    -0.265 NA
ENDROOT
BRANCH  17  20
ATOM     20  N   UNL     1      -4.424  -0.134  24.433  0.00  0.00    -0.202 NA
ATOM     21  C   UNL     1      -4.044  -0.685  24.915  0.00  0.00    +0.271 C 
ATOM     22  O   UNL     1      -3.817  -0.478  25.680  0.00  0.00    -0.268 OA
BRANCH  21  23
ATOM     23  C   UNL     1      -3.891  -1.445  24.631  0.00  0.00    +0.084 A 
ATOM     24  C   UNL     1      -4.223  -1.786  23.957  0.00  0.00    +0.012 A 
ATOM     25  C   UNL     1      -3.917  -2.548  23.880  0.00  0.00    +0.008 A 
ATOM     26  C   UNL     1      -3.396  -2.679  24.507  0.00  0.00    +0.036 A 
ATOM     27  S   UNL     1      -3.381  -1.996  24.971  0.00  0.00    -0.082 S 
ENDBRANCH  21  23
ENDBRANCH  17  20
BRANCH  10   9
ATOM      9  C   UNL     1      -3.552   2.993  24.701  0.00  0.00    +0.027 C 
BRANCH   9   8
ATOM      8  C   UNL     1      -2.964   3.339  25.166  0.00  0.00    +0.087 C 
BRANCH   8   6
ATOM      3  N   UNL     1      -1.614   3.804  25.178  0.00  0.00    -0.280 N 
ATOM      6  C   UNL     1      -2.350   3.758  24.809  0.00  0.00    +0.226 C 
ATOM      7  O   UNL     1      -2.472   4.132  24.084  0.00  0.00    -0.275 OA
BRANCH   3   2
ATOM      1  C   UNL     1      -0.847   5.003  25.045  0.00  0.00    +0.023 C 
ATOM      2  C   UNL     1      -0.999   4.223  24.821  0.00  0.00    +0.093 C 
ENDBRANCH   3   2
BRANCH   3   4
ATOM      4  C   UNL     1      -1.491   3.430  25.903  0.00  0.00    +0.093 C 
ATOM      5  C   UNL     1      -0.793   3.011  26.038  0.00  0.00    +0.023 C 
ENDBRANCH   3   4
ENDBRANCH   8   6
ENDBRANCH   9   8
ENDBRANCH  10   9
TORSDOF 7
ENDMDL
MODEL 3
REMARK VINA RESULT:      -8.9      2.636      3.750
REMARK  Name = 
REMARK  7 active torsions:
REMARK  status: ('A' for Active; 'I' for Inactive)
REMARK    1  A    between atoms: C_2  and  N_3
REMARK    2  A    between atoms: N_3  and  C_4
REMARK    3  A    between atoms: C_6  and  C_8
REMARK    4  A    between atoms: C_8  and  C_9
REMARK    5  A    between atoms: C_9  and  C_10
REMARK    6  A    between atoms: C_17  and  N_20
REMARK    7  A    between atoms: C_21  and  C_23
REMARK                            x       y       z     vdW  Elec       q    Type
REMARK                         _______ _______ _______ _____ _____    ______ ____
ROOT
ATOM     10  C   UNL     1      -0.602  -0.307  24.438  0.00  0.00    +0.080 C 
ATOM     11  C   UNL     1      -0.131  -0.789  23.961  0.00  0.00    +0.131 C 
ATOM     12  N   UNL     1       0.480  -0.457  23.518  0.00  0.00    -0.203 NA
ATOM     13  C   UNL     1       0.620   0.356  23.551  0.00  0.00    +0.256 C 
ATOM     14  O   UNL     1       1.232   0.686  23.107  0.00  0.00    -0.272 OA
ATOM     15  C   UNL     1       0.149   0.836  24.028  0.00  0.00    +0.138 C 
ATOM     16  C   UNL     1       0.156   1.648  24.171  0.00  0.00    +0.048 C 
ATOM     17  C   UNL     1      -0.450   1.819  24.703  0.00  0.00    +0.113 C 
ATOM     18  C   UNL     1      -0.833   1.113  24.889  0.00  0.00    +0.094 C 
ATOM     19  N   UNL     1      -0.462   0.505  24.471  0.00  0.00    -0.265 NA
ENDROOT
BRANCH  17  20
ATOM     20  N   UNL     1      -0.641   2.566  24.998  0.00  0.00    -0.202 NA
ATOM     21  C   UNL     1      -1.185   3.040  24.598  0.00  0.00    +0.271 C 
ATOM     22  O   UNL     1      -1.539   2.767  23.904  0.00  0.00    -0.268 OA
BRANCH  21  23
ATOM     23  C   UNL     1      -1.377   3.787  24.893  0.00  0.00    +0.084 A 
ATOM     24  C   UNL     1      -0.911   4.465  24.833  0.00  0.00    +0.012 A 
ATOM     25  C   UNL     1      -1.313   5.083  25.202  0.00  0.00    +0.008 A 
ATOM     26  C   UNL     1      -2.027   4.787  25.490  0.00  0.00    +0.036 A 
ATOM     27  S   UNL     1      -2.066   3.986  25.299  0.00  0.00    -0.082 S 
ENDBRANCH  21  23
ENDBRANCH  17  20
BRANCH  10   9
ATOM      9  C   UNL     1      -1.214  -0.639  24.882  0.00  0.00    +0.027 C 
BRANCH   9   8
ATOM      8  C   UNL     1      -1.824  -1.047  24.505  0.00  0.00    +0.087 C 
BRANCH   8   6
ATOM      3  N   UNL     1      -3.037  -1.782  24.672  0.00  0.00    -0.280 N 
ATOM      6  C   UNL     1      -2.274  -1.595  24.924  0.00  0.00    +0.226 C 
ATOM      7  O   UNL     1      -1.963  -1.958  25.597  0.00  0.00    -0.275 OA
BRANCH   3   2
ATOM      1  C   UNL     1      -3.674  -3.059  24.751  0.00  0.00    +0.023 C 
ATOM      2  C   UNL     1      -3.489  -2.331  25.091  0.00  0.00    +0.093 C 
ENDBRANCH   3   2
BRANCH   3   4
ATOM      4  C   UNL     1      -3.349  -1.420  23.999  0.00  0.00    +0.093 C 
ATOM      5  C   UNL     1      -4.150  -1.218  23.974  0.00  0.00    +0.023 C 
ENDBRANCH   3   4
ENDBRANCH   8   6
ENDBRANCH   9   8
ENDBRANCH  10   9
TORSDOF 7
ENDMDL
MODEL 4
REMARK VINA RESULT:      -8.5      2.319      5.359
REMARK  Name = 
REMARK  7 active torsions:
REMARK  status: ('A' for Active; 'I' for Inactive)
REMARK    1  A    between atoms: C_2  and  N_3
REMARK    2  A    between atoms: N_3  and  C_4
REMARK    3  A    between atoms: C_6  and  C_8
REMARK    4  A    between atoms: C_8  and  C_9
REMARK    5  A    between atoms: C_9  and  C_10
REMARK    6  A    between atoms: C_17  and  N_20
REMARK    7  A    between atoms: C_21  and  C_23
REMARK                            x       y       z     vdW  Elec       q    Type
REMARK                         _______ _______ _______ _____ _____    ______ ____
ROOT
ATOM     10  C   UNL     1      -1.239   2.438  25.180  0.00  0.00    +0.080 C 
ATOM     11  C   UNL     1      -0.633   2.928  24.908  0.00  0.00    +0.131 C 
ATOM     12  N   UNL     1       0.026   2.600  24.538  0.00  0.00    -0.203 NA
ATOM     13  C   UNL     1       0.081   1.783  24.440  0.00  0.00    +0.256 C 
ATOM     14  O   UNL     1       0.742   1.456  24.069  0.00  0.00    -0.272 OA
ATOM     15  C   UNL     1      -0.524   1.294  24.712  0.00  0.00    +0.138 C 
ATOM     16  C   UNL     1      -0.623   0.475  24.693  0.00  0.00    +0.048 C 
ATOM     17  C   UNL     1      -1.344   0.297  25.051  0.00  0.00    +0.113 C 
ATOM     18  C   UNL     1      -1.692   1.005  25.292  0.00  0.00    +0.094 C 
ATOM     19  N   UNL     1      -1.184   1.621  25.082  0.00  0.00    -0.265 NA
ENDROOT
BRANCH  17  20
ATOM     20  N   UNL     1      -1.663  -0.458  25.152  0.00  0.00    -0.202 NA
ATOM     21  C   UNL     1      -2.280  -0.713  24.667  0.00  0.00    +0.271 C 
ATOM     22  O   UNL     1      -2.578  -0.213  24.082  0.00  0.00    -0.268 OA
BRANCH  21  23
ATOM     23  C   UNL     1      -2.598  -1.468  24.768  0.00  0.00    +0.084 A 
ATOM     24  C   UNL     1      -3.306  -1.647  25.152  0.00  0.00    +0.012 A 
ATOM     25  C   UNL     1      -3.410  -2.465  25.123  0.00  0.00    +0.008 A 
ATOM     26  C   UNL     1      -2.767  -2.791  24.721  0.00  0.00    +0.036 A 
ATOM     27  S   UNL     1      -2.266  -2.174  24.502  0.00  0.00    -0.082 S 
ENDBRANCH  21  23
ENDBRANCH  17  20
BRANCH  10   9
ATOM      9  C   UNL     1      -1.900   2.767  25.551  0.00  0.00    +0.027 C 
BRANCH   9   8
ATOM      8  C   UNL     1      -2.414   3.251  25.124  0.00  0.00    +0.087 C 
BRANCH   8   6
ATOM      3  N   UNL     1      -3.785   3.649  25.083  0.00  0.00    -0.280 N 
ATOM      6  C   UNL     1      -3.073   3.579  25.495  0.00  0.00    +0.226 C 
ATOM      7  O   UNL     1      -3.023   3.836  26.277  0.00  0.00    -0.275 OA
BRANCH   3   2
ATOM      1  C   UNL     1      -5.129   3.526  25.554  0.00  0.00    +0.023 C 
ATOM      2  C   UNL     1      -4.446   3.977  25.454  0.00  0.00    +0.093 C 
ENDBRANCH   3   2
BRANCH   3   4
ATOM      4  C   UNL     1      -3.837   3.392  24.301  0.00  0.00    +0.093 C 
ATOM      5  C   UNL     1      -4.176   3.881  23.728  0.00  0.00    +0.023 C 
ENDBRANCH   3   4
ENDBRANCH   8   6
ENDBRANCH   9   8
ENDBRANCH  10   9
TORSDOF 7
ENDMDL
MODEL 5
REMARK VINA RESULT:      -8.3      2.439      4.616
REMARK  Name = 
REMARK  7 active torsions:
REMARK  status: ('A' for Active; 'I' for Inactive)
REMARK    1  A    between atoms: C_2  and  N_3
REMARK    2  A    between atoms: N_3  and  C_4
REMARK    3  A    between atoms: C_6  and  C_8
REMARK    4  A    between atoms: C_8  and  C_9
REMARK    5  A    between atoms: C_9  and  C_10
REMARK    6  A    between atoms: C_17  and  N_20
REMARK    7  A    between atoms: C_21  and  C_23
REMARK                            x       y       z     vdW  Elec       q    Type
REMARK                         _______ _______ _______ _____ _____    ______ ____
ROOT
ATOM     10  C   UNL     1      -2.047  -1.175  24.864  0.00  0.00    +0.080 C 
ATOM     11  C   UNL     1      -1.882  -1.931  24.578  0.00  0.00    +0.131 C 
ATOM     12  N   UNL     1      -2.499  -2.427  24.348  0.00  0.00    -0.203 NA
ATOM     13  C   UNL     1      -3.281  -2.168  24.404  0.00  0.00    +0.256 C 
ATOM     14  O   UNL     1      -3.897  -2.666  24.173  0.00  0.00    -0.272 OA
ATOM     15  C   UNL     1      -3.445  -1.413  24.690  0.00  0.00    +0.138 C 
ATOM     16  C   UNL     1      -4.154  -1.008  24.806  0.00  0.00    +0.048 C 
ATOM     17  C   UNL     1      -3.976  -0.262  25.109  0.00  0.00    +0.113 C 
ATOM     18  C   UNL     1      -3.157  -0.204  25.179  0.00  0.00    +0.094 C 
ATOM     19  N   UNL     1      -2.828  -0.916  24.920  0.00  0.00    -0.265 NA
ENDROOT
BRANCH  17  20
ATOM     20  N   UNL     1      -4.522   0.325  25.307  0.00  0.00    -0.202 NA
ATOM     21  C   UNL     1      -4.589   1.000  24.837  0.00  0.00    +0.271 C 
ATOM     22  O   UNL     1      -4.111   1.089  24.171  0.00  0.00    -0.268 OA
BRANCH  21  23
ATOM     23  C   UNL     1      -5.135   1.587  25.035  0.00  0.00    +0.084 A 
ATOM     24  C   UNL     1      -5.954   1.495  25.065  0.00  0.00    +0.012 A 
ATOM     25  C   UNL     1      -6.283   2.219  25.286  0.00  0.00    +0.008 A 
ATOM     26  C   UNL     1      -5.667   2.758  25.392  0.00  0.00    +0.036 A 
ATOM     27  S   UNL     1      -4.958   2.366  25.237  0.00  0.00    -0.082 S 
ENDBRANCH  21  23
ENDBRANCH  17  20
BRANCH  10   9
ATOM      9  C   UNL     1      -1.429  -0.678  25.095  0.00  0.00    +0.027 C 
BRANCH   9   8
ATOM      8  C   UNL     1      -0.853  -0.455  24.548  0.00  0.00    +0.087 C 
BRANCH   8   6
ATOM      3  N   UNL     1       0.128   0.485  24.109  0.00  0.00    -0.280 N 
ATOM      6  C   UNL     1      -0.376   0.200  24.697  0.00  0.00    +0.226 C 
ATOM      7  O   UNL     1      -0.401   0.572  25.433  0.00  0.00    -0.275 OA
BRANCH   3   2
ATOM      1  C   UNL     1       0.403   1.879  23.949  0.00  0.00    +0.023 C 
ATOM      2  C   UNL     1       0.607   1.142  24.258  0.00  0.00    +0.093 C 
ENDBRANCH   3   2
BRANCH   3   4
ATOM      4  C   UNL     1       0.155   0.115  23.372  0.00  0.00    +0.093 C 
ATOM      5  C   UNL     1       0.882  -0.020  23.005  0.00  0.00    +0.023 C 
ENDBRANCH   3   4
ENDBRANCH   8   6
ENDBRANCH   9   8
ENDBRANCH  10   9
TORSDOF 7
ENDMDL
MODEL 6
REMARK VINA RESULT:      -8.0     16.223     19.317
REMARK  Name = 
REMARK  7 active torsions:
REMARK  status: ('A' for Active; 'I' for Inactive)
REMARK    1  A    between atoms: C_2  and  N_3
REMARK    2  A    between atoms: N_3  and  C_4
REMARK    3  A    between atoms: C_6  and  C_8
REMARK    4  A    between atoms: C_8  and  C_9
REMARK    5  A    between atoms: C_9  and  C_10
REMARK    6  A    between atoms: C_17  and  N_20
REMARK    7  A    between atoms: C_21  and  C_23
REMARK                            x       y       z     vdW  Elec       q    Type
REMARK                         _______ _______ _______ _____ _____    ______ ____
ROOT
ATOM     10  C   UNL     1      14.260   7.751  18.628  0.00  0.00    +0.080 C 
ATOM     11  C   UNL     1      14.391   7.587  17.831  0.00  0.00    +0.131 C 
ATOM     12  N   UNL     1      13.752   7.529  17.312  0.00  0.00    -0.203 NA
ATOM     13  C   UNL     1      12.983   7.636  17.591  0.00  0.00    +0.256 C 
ATOM     14  O   UNL     1      12.344   7.579  17.072  0.00  0.00    -0.272 OA
ATOM     15  C   UNL     1      12.853   7.800  18.389  0.00  0.00    +0.138 C 
ATOM     16  C   UNL     1      12.162   7.932  18.820  0.00  0.00    +0.048 C 
ATOM     17  C   UNL     1      12.374   8.070  19.605  0.00  0.00    +0.113 C 
ATOM     18  C   UNL     1      13.195   8.024  19.660  0.00  0.00    +0.094 C 
ATOM     19  N   UNL     1      13.491   7.858  18.907  0.00  0.00    -0.265 NA
ENDROOT
BRANCH  17  20
ATOM     20  N   UNL     1      11.854   8.227  20.227  0.00  0.00    -0.202 NA
ATOM     21  C   UNL     1      11.536   7.604  20.664  0.00  0.00    +0.271 C 
ATOM     22  O   UNL     1      11.736   6.825  20.480  0.00  0.00    -0.268 OA
BRANCH  21  23
ATOM     23  C   UNL     1      11.016   7.761  21.287  0.00  0.00    +0.084 A 
ATOM     24  C   UNL     1      10.734   8.504  21.507  0.00  0.00    +0.012 A 
ATOM     25  C   UNL     1      10.232   8.404  22.153  0.00  0.00    +0.008 A 
ATOM     26  C   UNL     1      10.204   7.599  22.333  0.00  0.00    +0.036 A 
ATOM     27  S   UNL     1      10.689   7.202  21.797  0.00  0.00    -0.082 S 
ENDBRANCH  21  23
ENDBRANCH  17  20
BRANCH  10   9
ATOM      9  C   UNL     1      14.900   7.808  19.148  0.00  0.00    +0.027 C 
BRANCH   9   8
ATOM      8  C   UNL     1      15.540   7.293  19.072  0.00  0.00    +0.087 C 
BRANCH   8   6
ATOM      3  N   UNL     1      16.726   6.742  19.645  0.00  0.00    -0.280 N 
ATOM      6  C   UNL     1      16.185   7.361  19.581  0.00  0.00    +0.226 C 
ATOM      7  O   UNL     1      16.290   8.047  20.027  0.00  0.00    -0.275 OA
BRANCH   3   2
ATOM      1  C   UNL     1      17.404   6.357  20.843  0.00  0.00    +0.023 C 
ATOM      2  C   UNL     1      17.373   6.809  20.154  0.00  0.00    +0.093 C 
ENDBRANCH   3   2
BRANCH   3   4
ATOM      4  C   UNL     1      16.623   6.055  19.200  0.00  0.00    +0.093 C 
ATOM      5  C   UNL     1      17.278   5.669  18.879  0.00  0.00    +0.023 C 
ENDBRANCH   3   4
ENDBRANCH   8   6
ENDBRANCH   9   8
ENDBRANCH  10   9
TORSDOF 7
ENDMDL
MODEL 7
REMARK VINA RESULT:      -8.0      2.484      4.048
REMARK  Name = 
REMARK  7 active torsions:
REMARK  status: ('A' for Active; 'I' for Inactive)
REMARK    1  A    between atoms: C_2  and  N_3
REMARK    2  A    between atoms: N_3  and  C_4
REMARK    3  A    between atoms: C_6  and  C_8
REMARK    4  A    between atoms: C_8  and  C_9
REMARK    5  A    between atoms: C_9  and  C_10
REMARK    6  A    between atoms: C_17  and  N_20
REMARK    7  A    between atoms: C_21  and  C_23
REMARK                            x       y       z     vdW  Elec       q    Type
REMARK                         _______ _______ _______ _____ _____    ______ ____
ROOT
ATOM     10  C   UNL     1      -0.854   2.682  25.363  0.00  0.00    +0.080 C 
ATOM     11  C   UNL     1      -0.212   3.165  25.178  0.00  0.00    +0.131 C 
ATOM     12  N   UNL     1      -0.330   3.969  25.034  0.00  0.00    -0.203 NA
ATOM     13  C   UNL     1      -1.089   4.289  25.075  0.00  0.00    +0.256 C 
ATOM     14  O   UNL     1      -1.205   5.093  24.931  0.00  0.00    -0.272 OA
ATOM     15  C   UNL     1      -1.730   3.805  25.260  0.00  0.00    +0.138 C 
ATOM     16  C   UNL     1      -2.536   3.963  25.340  0.00  0.00    +0.048 C 
ATOM     17  C   UNL     1      -2.917   3.258  25.533  0.00  0.00    +0.113 C 
ATOM     18  C   UNL     1      -2.347   2.663  25.573  0.00  0.00    +0.094 C 
ATOM     19  N   UNL     1      -1.614   3.002  25.404  0.00  0.00    -0.265 NA
ENDROOT
BRANCH  17  20
ATOM     20  N   UNL     1      -3.727   3.163  25.664  0.00  0.00    -0.202 NA
ATOM     21  C   UNL     1      -4.193   2.784  25.099  0.00  0.00    +0.271 C 
ATOM     22  O   UNL     1      -3.851   2.499  24.404  0.00  0.00    -0.268 OA
BRANCH  21  23
ATOM     23  C   UNL     1      -5.003   2.689  25.230  0.00  0.00    +0.084 A 
ATOM     24  C   UNL     1      -5.505   3.243  25.577  0.00  0.00    +0.012 A 
ATOM     25  C   UNL     1      -6.264   2.920  25.598  0.00  0.00    +0.008 A 
ATOM     26  C   UNL     1      -6.231   2.167  25.264  0.00  0.00    +0.036 A 
ATOM     27  S   UNL     1      -5.451   2.024  25.036  0.00  0.00    -0.082 S 
ENDBRANCH  21  23
ENDBRANCH  17  20
BRANCH  10   9
ATOM      9  C   UNL     1      -0.737   1.877  25.506  0.00  0.00    +0.027 C 
BRANCH   9   8
ATOM      8  C   UNL     1      -0.436   1.391  24.912  0.00  0.00    +0.087 C 
BRANCH   8   6
ATOM      3  N   UNL     1      -0.239   0.084  24.372  0.00  0.00    -0.280 N 
ATOM      6  C   UNL     1      -0.449   0.572  25.003  0.00  0.00    +0.226 C 
ATOM      7  O   UNL     1      -0.671   0.240  25.725  0.00  0.00    -0.275 OA
BRANCH   3   2
ATOM      1  C   UNL     1      -0.897  -1.173  24.191  0.00  0.00    +0.023 C 
ATOM      2  C   UNL     1      -0.252  -0.737  24.464  0.00  0.00    +0.093 C 
ENDBRANCH   3   2
BRANCH   3   4
ATOM      4  C   UNL     1      -0.017   0.414  23.650  0.00  0.00    +0.093 C 
ATOM      5  C   UNL     1       0.576   0.058  23.199  0.00  0.00    +0.023 C 
ENDBRANCH   3   4
ENDBRANCH   8   6
ENDBRANCH   9   8
ENDBRANCH  10   9
TORSDOF 7
ENDMDL
