MODEL 1
REMARK VINA RESULT:     -12.7      0.000      0.000
REMARK  Name = 
REMARK  4 active torsions:
REMARK  status: ('A' for Active; 'I' for Inactive)
REMARK    1  A    between atoms: C_7  and  N_10
REMARK    2  A    between atoms: C_14  and  C_15
REMARK    3  A    between atoms: C_17  and  C_20
REMARK    4  A    between atoms: C_24  and  N_26
REMARK                            x       y       z     vdW  Elec       q    Type
REMARK                         _______ _______ _______ _____ _____    ______ ____
ROOT
ATOM     15  C   UNL     1      -1.180   2.985  25.396  0.00  0.00    +0.251 A 
ATOM     16  N   UNL     1      -1.227   2.355  24.864  0.00  0.00    -0.190 NA
ATOM     17  C   UNL     1      -1.145   1.654  25.291  0.00  0.00    +0.203 A 
ATOM     18  N   UNL     1      -1.047   1.850  26.086  0.00  0.00    -0.056 NA
ATOM     19  O   UNL     1      -1.069   2.671  26.151  0.00  0.00    -0.336 OA
ENDROOT
BRANCH  17  20
ATOM     20  C   UNL     1      -1.158   0.891  24.976  0.00  0.00    +0.043 A 
ATOM     21  C   UNL     1      -0.481   0.578  24.625  0.00  0.00    +0.024 A 
ATOM     22  C   UNL     1      -0.494  -0.185  24.311  0.00  0.00    +0.100 A 
ATOM     23  N   UNL     1      -1.185  -0.634  24.348  0.00  0.00    -0.229 NA
ATOM     24  C   UNL     1      -1.862  -0.321  24.700  0.00  0.00    +0.132 A 
ATOM     25  C   UNL     1      -1.849   0.442  25.014  0.00  0.00    +0.037 A 
BRANCH  24  26
ATOM     26  N   UNL     1      -2.553  -0.771  24.737  0.00  0.00    -0.293 N 
ATOM     27  C   UNL     1      -2.650  -1.477  25.152  0.00  0.00    +0.092 C 
ATOM     28  C   UNL     1      -3.425  -1.735  25.037  0.00  0.00    +0.023 C 
ATOM     29  C   UNL     1      -3.807  -1.189  24.552  0.00  0.00    +0.023 C 
ATOM     30  C   UNL     1      -3.268  -0.593  24.366  0.00  0.00    +0.092 C 
ENDBRANCH  24  26
ENDBRANCH  17  20
BRANCH  15  14
ATOM     10  N   UNL     1      -1.930   4.224  25.150  0.00  0.00    -0.268 NA
ATOM     11  C   UNL     1      -1.729   4.998  24.948  0.00  0.00    +0.072 C 
ATOM     12  C   UNL     1      -0.908   5.038  24.879  0.00  0.00    +0.019 C 
ATOM     13  C   UNL     1      -0.602   4.288  25.039  0.00  0.00    +0.027 C 
ATOM     14  C   UNL     1      -1.234   3.785  25.206  0.00  0.00    +0.138 C 
BRANCH  10   7
ATOM      1  C   UNL     1      -5.419   2.775  25.017  0.00  0.00    +0.095 C 
ATOM      2  C   UNL     1      -4.987   3.082  25.648  0.00  0.00    +0.226 C 
ATOM      3  O   UNL     1      -5.317   3.105  26.404  0.00  0.00    -0.275 OA
ATOM      4  N   UNL     1      -4.222   3.368  25.523  0.00  0.00    -0.279 N 
ATOM      5  C   UNL     1      -3.789   3.676  26.155  0.00  0.00    +0.095 C 
ATOM      6  C   UNL     1      -3.025   3.961  26.031  0.00  0.00    +0.038 C 
ATOM      7  C   UNL     1      -2.694   3.938  25.275  0.00  0.00    +0.061 C 
ATOM      8  C   UNL     1      -3.127   3.630  24.644  0.00  0.00    +0.038 C 
ATOM      9  C   UNL     1      -3.891   3.345  24.769  0.00  0.00    +0.095 C 
ENDBRANCH  10   7
ENDBRANCH  15  14
TORSDOF 4
ENDMDL
MODEL 2
REMARK VINA RESULT:     -12.2      1.216      3.120
REMARK  Name = 
REMARK  4 active torsions:
REMARK  status: ('A' for Active; 'I' for Inactive)
REMARK    1  A    between atoms: C_7  and  N_10
REMARK    2  A    between atoms: C_14  and  C_15
REMARK    3  A    between atoms: C_17  and  C_20
REMARK    4  A    between atoms: C_24  and  N_26
REMARK                            x       y       z     vdW  Elec       q    Type
REMARK                         _______ _______ _______ _____ _____    ______ ____
ROOT
ATOM     15  C   UNL     1      -4.371   1.923  24.629  0.00  0.00    +0.251 A 
ATOM     16  N   UNL     1      -4.242   1.168  24.936  0.00  0.00    -0.190 NA
ATOM     17  C   UNL     1      -3.880   0.713  24.351  0.00  0.00    +0.203 A 
ATOM     18  N   UNL     1      -3.786   1.186  23.683  0.00  0.00    -0.056 NA
ATOM     19  O   UNL     1      -4.089   1.933  23.855  0.00  0.00    -0.336 OA
ENDROOT
BRANCH  17  20
ATOM     20  C   UNL     1      -3.653  -0.077  24.423  0.00  0.00    +0.043 A 
ATOM     21  C   UNL     1      -4.201  -0.678  24.284  0.00  0.00    +0.024 A 
ATOM     22  C   UNL     1      -3.974  -1.468  24.355  0.00  0.00    +0.100 A 
ATOM     23  N   UNL     1      -3.199  -1.657  24.565  0.00  0.00    -0.229 NA
ATOM     24  C   UNL     1      -2.651  -1.056  24.704  0.00  0.00    +0.132 A 
ATOM     25  C   UNL     1      -2.878  -0.266  24.633  0.00  0.00    +0.037 A 
BRANCH  24  26
ATOM     26  N   UNL     1      -1.876  -1.245  24.914  0.00  0.00    -0.293 N 
ATOM     27  C   UNL     1      -1.429  -0.876  25.502  0.00  0.00    +0.092 C 
ATOM     28  C   UNL     1      -0.689  -1.240  25.524  0.00  0.00    +0.023 C 
ATOM     29  C   UNL     1      -0.678  -1.832  24.951  0.00  0.00    +0.023 C 
ATOM     30  C   UNL     1      -1.411  -1.835  24.574  0.00  0.00    +0.092 C 
ENDBRANCH  24  26
ENDBRANCH  17  20
BRANCH  15  14
ATOM     10  N   UNL     1      -4.328   3.209  25.338  0.00  0.00    -0.268 NA
ATOM     11  C   UNL     1      -4.889   3.703  25.687  0.00  0.00    +0.072 C 
ATOM     12  C   UNL     1      -5.630   3.353  25.592  0.00  0.00    +0.019 C 
ATOM     13  C   UNL     1      -5.526   2.643  25.184  0.00  0.00    +0.027 C 
ATOM     14  C   UNL     1      -4.721   2.555  25.027  0.00  0.00    +0.138 C 
BRANCH  10   7
ATOM      1  C   UNL     1      -0.752   4.168  24.570  0.00  0.00    +0.095 C 
ATOM      2  C   UNL     1      -1.075   3.758  25.208  0.00  0.00    +0.226 C 
ATOM      3  O   UNL     1      -0.587   3.485  25.815  0.00  0.00    -0.275 OA
ATOM      4  N   UNL     1      -1.889   3.621  25.241  0.00  0.00    -0.279 N 
ATOM      5  C   UNL     1      -2.213   3.211  25.879  0.00  0.00    +0.095 C 
ATOM      6  C   UNL     1      -3.026   3.073  25.912  0.00  0.00    +0.038 C 
ATOM      7  C   UNL     1      -3.515   3.346  25.306  0.00  0.00    +0.061 C 
ATOM      8  C   UNL     1      -3.191   3.756  24.668  0.00  0.00    +0.038 C 
ATOM      9  C   UNL     1      -2.378   3.894  24.635  0.00  0.00    +0.095 C 
ENDBRANCH  10   7
ENDBRANCH  15  14
TORSDOF 4
ENDMDL
MODEL 3
REMARK VINA RESULT:     -11.9      1.453      3.276
REMARK  Name = 
REMARK  4 active torsions:
REMARK  status: ('A' for Active; 'I' for Inactive)
REMARK    1  A    between atoms: C_7  and  N_10
REMARK    2  A    between atoms: C_14  and  C_15
REMARK    3  A    between atoms: C_17  and  C_20
REMARK    4  A    between atoms: C_24  and  N_26
REMARK                            x       y       z     vdW  Elec       q    Type
REMARK                         _______ _______ _______ _____ _____    ______ ____
ROOT
ATOM     15  C   UNL     1      -2.749   3.333  24.588  0.00  0.00    +0.251 A 
ATOM     16  N   UNL     1      -3.139   2.741  25.012  0.00  0.00    -0.190 NA
ATOM     17  C   UNL     1      -3.702   2.401  24.515  0.00  0.00    +0.203 A 
ATOM     18  N   UNL     1      -3.661   2.781  23.785  0.00  0.00    -0.056 NA
ATOM     19  O   UNL     1      -3.073   3.356  23.830  0.00  0.00    -0.336 OA
ENDROOT
BRANCH  17  20
ATOM     20  C   UNL     1      -4.217   1.787  24.714  0.00  0.00    +0.043 A 
ATOM     21  C   UNL     1      -4.987   1.957  24.955  0.00  0.00    +0.024 A 
ATOM     22  C   UNL     1      -5.502   1.343  25.154  0.00  0.00    +0.100 A 
ATOM     23  N   UNL     1      -5.245   0.560  25.112  0.00  0.00    -0.229 NA
ATOM     24  C   UNL     1      -4.475   0.390  24.871  0.00  0.00    +0.132 A 
ATOM     25  C   UNL     1      -3.960   1.004  24.672  0.00  0.00    +0.037 A 
BRANCH  24  26
ATOM     26  N   UNL     1      -4.218  -0.393  24.829  0.00  0.00    -0.293 N 
ATOM     27  C   UNL     1      -3.793  -0.796  25.411  0.00  0.00    +0.092 C 
ATOM     28  C   UNL     1      -3.655  -1.562  25.139  0.00  0.00    +0.023 C 
ATOM     29  C   UNL     1      -3.994  -1.633  24.390  0.00  0.00    +0.023 C 
ATOM     30  C   UNL     1      -4.342  -0.911  24.199  0.00  0.00    +0.092 C 
ENDBRANCH  24  26
ENDBRANCH  17  20
BRANCH  15  14
ATOM     10  N   UNL     1      -1.353   3.600  24.957  0.00  0.00    -0.268 NA
ATOM     11  C   UNL     1      -0.942   4.248  25.260  0.00  0.00    +0.072 C 
ATOM     12  C   UNL     1      -1.481   4.864  25.364  0.00  0.00    +0.019 C 
ATOM     13  C   UNL     1      -2.223   4.596  25.124  0.00  0.00    +0.027 C 
ATOM     14  C   UNL     1      -2.144   3.814  24.873  0.00  0.00    +0.138 C 
BRANCH  10   7
ATOM      1  C   UNL     1       0.198   0.502  23.441  0.00  0.00    +0.095 C 
ATOM      2  C   UNL     1      -0.052   0.659  24.210  0.00  0.00    +0.226 C 
ATOM      3  O   UNL     1       0.022   0.081  24.795  0.00  0.00    -0.275 OA
ATOM      4  N   UNL     1      -0.378   1.395  24.397  0.00  0.00    -0.279 N 
ATOM      5  C   UNL     1      -0.628   1.551  25.168  0.00  0.00    +0.095 C 
ATOM      6  C   UNL     1      -0.953   2.286  25.354  0.00  0.00    +0.038 C 
ATOM      7  C   UNL     1      -1.028   2.865  24.770  0.00  0.00    +0.061 C 
ATOM      8  C   UNL     1      -0.777   2.707  24.000  0.00  0.00    +0.038 C 
ATOM      9  C   UNL     1      -0.452   1.972  23.814  0.00  0.00    +0.095 C 
ENDBRANCH  10   7
ENDBRANCH  15  14
TORSDOF 4
ENDMDL
MODEL 4
REMARK VINA RESULT:     -11.8      1.130      1.502
REMARK  Name = 
REMARK  4 active torsions:
REMARK  status: ('A' for Active; 'I' for Inactive)
REMARK    1  A    between atoms: C_7  and  N_10
REMARK    2  A    between atoms: C_14  and  C_15
REMARK    3  A    between atoms: C_17  and  C_20
REMARK    4  A    between atoms: C_24  and  N_26
REMARK                            x       y       z     vdW  Elec       q    Type
REMARK                         _______ _______ _______ _____ _____    ______ ____
ROOT
ATOM     15  C   UNL     1      -0.981   1.615  25.050  0.00  0.00    +0.251 A 
ATOM     16  N   UNL     1      -1.065   0.904  24.638  0.00  0.00    -0.190 NA
ATOM     17  C   UNL     1      -1.225   0.310  25.187  0.00  0.00    +0.203 A 
ATOM     18  N   UNL     1      -1.241   0.652  25.936  0.00  0.00    -0.056 NA
ATOM     19  O   UNL     1      -1.090   1.457  25.852  0.00  0.00    -0.336 OA
ENDROOT
BRANCH  17  20
ATOM     20  C   UNL     1      -1.349  -0.488  25.015  0.00  0.00    +0.043 A 
ATOM     21  C   UNL     1      -0.720  -1.021  25.059  0.00  0.00    +0.024 A 
ATOM     22  C   UNL     1      -0.844  -1.819  24.887  0.00  0.00    +0.100 A 
ATOM     23  N   UNL     1      -1.595  -2.083  24.671  0.00  0.00    -0.229 NA
ATOM     24  C   UNL     1      -2.223  -1.550  24.627  0.00  0.00    +0.132 A 
ATOM     25  C   UNL     1      -2.100  -0.752  24.799  0.00  0.00    +0.037 A 
BRANCH  24  26
ATOM     26  N   UNL     1      -2.974  -1.814  24.411  0.00  0.00    -0.293 N 
ATOM     27  C   UNL     1      -3.274  -2.574  24.530  0.00  0.00    +0.092 C 
ATOM     28  C   UNL     1      -4.042  -2.594  24.231  0.00  0.00    +0.023 C 
ATOM     29  C   UNL     1      -4.217  -1.847  23.927  0.00  0.00    +0.023 C 
ATOM     30  C   UNL     1      -3.557  -1.366  24.038  0.00  0.00    +0.092 C 
ENDBRANCH  24  26
ENDBRANCH  17  20
BRANCH  15  14
ATOM     10  N   UNL     1      -1.373   2.925  24.514  0.00  0.00    -0.268 NA
ATOM     11  C   UNL     1      -0.969   3.573  24.200  0.00  0.00    +0.072 C 
ATOM     12  C   UNL     1      -0.163   3.398  24.209  0.00  0.00    +0.019 C 
ATOM     13  C   UNL     1      -0.069   2.643  24.529  0.00  0.00    +0.027 C 
ATOM     14  C   UNL     1      -0.818   2.351  24.717  0.00  0.00    +0.138 C 
BRANCH  10   7
ATOM      1  C   UNL     1      -4.995   2.911  25.598  0.00  0.00    +0.095 C 
ATOM      2  C   UNL     1      -4.643   2.678  24.890  0.00  0.00    +0.226 C 
ATOM      3  O   UNL     1      -5.107   2.384  24.275  0.00  0.00    -0.275 OA
ATOM      4  N   UNL     1      -3.825   2.740  24.796  0.00  0.00    -0.279 N 
ATOM      5  C   UNL     1      -3.473   2.507  24.087  0.00  0.00    +0.095 C 
ATOM      6  C   UNL     1      -2.655   2.569  23.993  0.00  0.00    +0.038 C 
ATOM      7  C   UNL     1      -2.190   2.864  24.608  0.00  0.00    +0.061 C 
ATOM      8  C   UNL     1      -2.543   3.096  25.316  0.00  0.00    +0.038 C 
ATOM      9  C   UNL     1      -3.361   3.035  25.410  0.00  0.00    +0.095 C 
ENDBRANCH  10   7
ENDBRANCH  15  14
TORSDOF 4
ENDMDL
MODEL 5
REMARK VINA RESULT:     -11.8      1.357      4.179
REMARK  Name = 
REMARK  4 active torsions:
REMARK  status: ('A' for Active; 'I' for Inactive)
REMARK    1  A    between atoms: C_7  and  N_10
REMARK    2  A    between atoms: C_14  and  C_15
REMARK    3  A    between atoms: C_17  and  C_20
REMARK    4  A    between atoms: C_24  and  N_26
REMARK                            x       y       z     vdW  Elec       q    Type
REMARK                         _______ _______ _______ _____ _____    ______ ____
ROOT
ATOM     15  C   UNL     1      -2.045  -0.603  25.069  0.00  0.00    +0.251 A 
ATOM     16  N   UNL     1      -1.701  -0.003  24.619  0.00  0.00    -0.190 NA
ATOM     17  C   UNL     1      -1.253   0.469  25.125  0.00  0.00    +0.203 A 
ATOM     18  N   UNL     1      -1.319   0.161  25.887  0.00  0.00    -0.056 NA
ATOM     19  O   UNL     1      -1.808  -0.501  25.852  0.00  0.00    -0.336 OA
ENDROOT
BRANCH  17  20
ATOM     20  C   UNL     1      -0.814   1.134  24.906  0.00  0.00    +0.043 A 
ATOM     21  C   UNL     1      -0.085   1.041  24.531  0.00  0.00    +0.024 A 
ATOM     22  C   UNL     1       0.353   1.705  24.312  0.00  0.00    +0.100 A 
ATOM     23  N   UNL     1       0.062   2.461  24.469  0.00  0.00    -0.229 NA
ATOM     24  C   UNL     1      -0.667   2.554  24.844  0.00  0.00    +0.132 A 
ATOM     25  C   UNL     1      -1.105   1.890  25.063  0.00  0.00    +0.037 A 
BRANCH  24  26
ATOM     26  N   UNL     1      -0.957   3.310  25.001  0.00  0.00    -0.293 N 
ATOM     27  C   UNL     1      -1.663   3.486  25.391  0.00  0.00    +0.092 C 
ATOM     28  C   UNL     1      -1.735   4.308  25.426  0.00  0.00    +0.023 C 
ATOM     29  C   UNL     1      -1.074   4.638  25.058  0.00  0.00    +0.023 C 
ATOM     30  C   UNL     1      -0.594   4.021  24.796  0.00  0.00    +0.092 C 
ENDBRANCH  24  26
ENDBRANCH  17  20
BRANCH  15  14
ATOM     10  N   UNL     1      -3.340  -1.124  24.610  0.00  0.00    -0.268 NA
ATOM     11  C   UNL     1      -3.615  -1.854  24.343  0.00  0.00    +0.072 C 
ATOM     12  C   UNL     1      -2.982  -2.383  24.353  0.00  0.00    +0.019 C 
ATOM     13  C   UNL     1      -2.316  -1.979  24.626  0.00  0.00    +0.027 C 
ATOM     14  C   UNL     1      -2.538  -1.200  24.785  0.00  0.00    +0.138 C 
BRANCH  10   7
ATOM      1  C   UNL     1      -5.509   1.797  25.640  0.00  0.00    +0.095 C 
ATOM      2  C   UNL     1      -5.139   1.626  24.924  0.00  0.00    +0.226 C 
ATOM      3  O   UNL     1      -5.218   2.142  24.284  0.00  0.00    -0.275 OA
ATOM      4  N   UNL     1      -4.689   0.938  24.845  0.00  0.00    -0.279 N 
ATOM      5  C   UNL     1      -4.319   0.767  24.128  0.00  0.00    +0.095 C 
ATOM      6  C   UNL     1      -3.870   0.080  24.049  0.00  0.00    +0.038 C 
ATOM      7  C   UNL     1      -3.790  -0.436  24.689  0.00  0.00    +0.061 C 
ATOM      8  C   UNL     1      -4.160  -0.264  25.405  0.00  0.00    +0.038 C 
ATOM      9  C   UNL     1      -4.610   0.423  25.484  0.00  0.00    +0.095 C 
ENDBRANCH  10   7
ENDBRANCH  15  14
TORSDOF 4
ENDMDL
MODEL 6
REMARK VINA RESULT:     -11.7      1.167      4.154
REMARK  Name = 
REMARK  4 active torsions:
REMARK  status: ('A' for Active; 'I' for Inactive)
REMARK    1  A    between atoms: C_7  and  N_10
REMARK    2  A    between atoms: C_14  and  C_15
REMARK    3  A    between atoms: C_17  and  C_20
REMARK    4  A    between atoms: C_24  and  N_26
REMARK                            x       y       z     vdW  Elec       q    Type
REMARK                         _______ _______ _______ _____ _____    ______ ____
ROOT
ATOM     15  C   UNL     1      -0.370   1.423  24.782  0.00  0.00    +0.251 A 
ATOM     16  N   UNL     1      -0.880   2.032  24.559  0.00  0.00    -0.190 NA
ATOM     17  C   UNL     1      -1.014   2.508  25.219  0.00  0.00    +0.203 A 
ATOM     18  N   UNL     1      -0.588   2.193  25.850  0.00  0.00    -0.056 NA
ATOM     19  O   UNL     1      -0.190   1.523  25.581  0.00  0.00    -0.336 OA
ENDROOT
BRANCH  17  20
ATOM     20  C   UNL     1      -1.492   3.181  25.243  0.00  0.00    +0.043 A 
ATOM     21  C   UNL     1      -1.147   3.930  25.251  0.00  0.00    +0.024 A 
ATOM     22  C   UNL     1      -1.624   4.603  25.275  0.00  0.00    +0.100 A 
ATOM     23  N   UNL     1      -2.445   4.526  25.291  0.00  0.00    -0.229 NA
ATOM     24  C   UNL     1      -2.790   3.777  25.283  0.00  0.00    +0.132 A 
ATOM     25  C   UNL     1      -2.313   3.104  25.259  0.00  0.00    +0.037 A 
BRANCH  24  26
ATOM     26  N   UNL     1      -3.611   3.699  25.299  0.00  0.00    -0.293 N 
ATOM     27  C   UNL     1      -4.091   3.496  24.659  0.00  0.00    +0.092 C 
ATOM     28  C   UNL     1      -4.873   3.483  24.923  0.00  0.00    +0.023 C 
ATOM     29  C   UNL     1      -4.876   3.679  25.724  0.00  0.00    +0.023 C 
ATOM     30  C   UNL     1      -4.096   3.812  25.956  0.00  0.00    +0.092 C 
ENDBRANCH  24  26
ENDBRANCH  17  20
BRANCH  15  14
ATOM     10  N   UNL     1      -0.443   0.084  24.183  0.00  0.00    -0.268 NA
ATOM     11  C   UNL     1       0.019  -0.344  23.650  0.00  0.00    +0.072 C 
ATOM     12  C   UNL     1       0.659   0.130  23.432  0.00  0.00    +0.019 C 
ATOM     13  C   UNL     1       0.591   0.849  23.829  0.00  0.00    +0.027 C 
ATOM     14  C   UNL     1      -0.091   0.820  24.294  0.00  0.00    +0.138 C 
BRANCH  10   7
ATOM      1  C   UNL     1      -3.946  -0.873  25.237  0.00  0.00    +0.095 C 
ATOM      2  C   UNL     1      -3.222  -0.972  25.618  0.00  0.00    +0.226 C 
ATOM      3  O   UNL     1      -3.191  -1.336  26.358  0.00  0.00    -0.275 OA
ATOM      4  N   UNL     1      -2.527  -0.708  25.259  0.00  0.00    -0.279 N 
ATOM      5  C   UNL     1      -1.802  -0.808  25.640  0.00  0.00    +0.095 C 
ATOM      6  C   UNL     1      -1.108  -0.544  25.282  0.00  0.00    +0.038 C 
ATOM      7  C   UNL     1      -1.138  -0.180  24.541  0.00  0.00    +0.061 C 
ATOM      8  C   UNL     1      -1.863  -0.081  24.161  0.00  0.00    +0.038 C 
ATOM      9  C   UNL     1      -2.557  -0.345  24.519  0.00  0.00    +0.095 C 
ENDBRANCH  10   7
ENDBRANCH  15  14
TORSDOF 4
ENDMDL
MODEL 7
REMARK VINA RESULT:     -11.7      1.499      5.129
REMARK  Name = 
REMARK  4 active torsions:
REMARK  status: ('A' for Active; 'I' for Inactive)
REMARK    1  A    between atoms: C_7  and  N_10
REMARK    2  A    between atoms: C_14  and  C_15
REMARK    3  A    between atoms: C_17  and  C_20
REMARK    4  A    between atoms: C_24  and  N_26
REMARK                            x       y       z     vdW  Elec       q    Type
REMARK                         _______ _______ _______ _____ _____    ______ ____
ROOT
ATOM     15  C   UNL     1      -3.602  -0.450  24.546  0.00  0.00    +0.251 A 
ATOM     16  N   UNL     1      -3.823   0.175  25.037  0.00  0.00    -0.190 NA
ATOM     17  C   UNL     1      -4.175   0.756  24.569  0.00  0.00    +0.203 A 
ATOM     18  N   UNL     1      -4.173   0.490  23.789  0.00  0.00    -0.056 NA
ATOM     19  O   UNL     1      -3.819  -0.254  23.774  0.00  0.00    -0.336 OA
ENDROOT
BRANCH  17  20
ATOM     20  C   UNL     1      -4.477   1.476  24.836  0.00  0.00    +0.043 A 
ATOM     21  C   UNL     1      -5.290   1.571  24.935  0.00  0.00    +0.024 A 
ATOM     22  C   UNL     1      -5.592   2.291  25.201  0.00  0.00    +0.100 A 
ATOM     23  N   UNL     1      -5.081   2.917  25.368  0.00  0.00    -0.229 NA
ATOM     24  C   UNL     1      -4.267   2.822  25.268  0.00  0.00    +0.132 A 
ATOM     25  C   UNL     1      -3.965   2.102  25.002  0.00  0.00    +0.037 A 
BRANCH  24  26
ATOM     26  N   UNL     1      -3.755   3.448  25.435  0.00  0.00    -0.293 N 
ATOM     27  C   UNL     1      -3.272   3.836  24.891  0.00  0.00    +0.092 C 
ATOM     28  C   UNL     1      -2.855   4.423  25.295  0.00  0.00    +0.023 C 
ATOM     29  C   UNL     1      -3.081   4.396  26.088  0.00  0.00    +0.023 C 
ATOM     30  C   UNL     1      -3.637   3.794  26.174  0.00  0.00    +0.092 C 
ENDBRANCH  24  26
ENDBRANCH  17  20
BRANCH  15  14
ATOM     10  N   UNL     1      -2.426  -1.241  24.931  0.00  0.00    -0.268 NA
ATOM     11  C   UNL     1      -2.296  -2.024  25.156  0.00  0.00    +0.072 C 
ATOM     12  C   UNL     1      -3.023  -2.414  25.147  0.00  0.00    +0.019 C 
ATOM     13  C   UNL     1      -3.601  -1.872  24.918  0.00  0.00    +0.027 C 
ATOM     14  C   UNL     1      -3.231  -1.146  24.784  0.00  0.00    +0.138 C 
BRANCH  10   7
ATOM      1  C   UNL     1       0.067   1.575  25.320  0.00  0.00    +0.095 C 
ATOM      2  C   UNL     1      -0.120   1.107  24.668  0.00  0.00    +0.226 C 
ATOM      3  O   UNL     1       0.269   1.224  23.950  0.00  0.00    -0.275 OA
ATOM      4  N   UNL     1      -0.697   0.519  24.734  0.00  0.00    -0.279 N 
ATOM      5  C   UNL     1      -0.884   0.050  24.081  0.00  0.00    +0.095 C 
ATOM      6  C   UNL     1      -1.460  -0.536  24.147  0.00  0.00    +0.038 C 
ATOM      7  C   UNL     1      -1.850  -0.654  24.865  0.00  0.00    +0.061 C 
ATOM      8  C   UNL     1      -1.662  -0.185  25.517  0.00  0.00    +0.038 C 
ATOM      9  C   UNL     1      -1.085   0.402  25.452  0.00  0.00    +0.095 C 
ENDBRANCH  10   7
ENDBRANCH  15  14
TORSDOF 4
ENDMDL
MODEL 8
REMARK VINA RESULT:     -11.5      1.877      3.938
REMARK  Name = 
REMARK  4 active torsions:
REMARK  status: ('A' for Active; 'I' for Inactive)
REMARK    1  A    between atoms: C_7  and  N_10
REMARK    2  A    between atoms: C_14  and  C_15
REMARK    3  A    between atoms: C_17  and  C_20
REMARK    4  A    between atoms: C_24  and  N_26
REMARK                            x       y       z     vdW  Elec       q    Type
REMARK                         _______ _______ _______ _____ _____    ______ ____
ROOT
ATOM     15  C   UNL     1      -3.686   1.970  24.395  0.00  0.00    +0.251 A 
ATOM     16  N   UNL     1      -2.924   1.926  24.709  0.00  0.00    -0.190 NA
ATOM     17  C   UNL     1      -2.388   1.976  24.084  0.00  0.00    +0.203 A 
ATOM     18  N   UNL     1      -2.818   2.052  23.385  0.00  0.00    -0.056 NA
ATOM     19  O   UNL     1      -3.619   2.048  23.577  0.00  0.00    -0.336 OA
ENDROOT
BRANCH  17  20
ATOM     20  C   UNL     1      -1.565   1.955  24.148  0.00  0.00    +0.043 A 
ATOM     21  C   UNL     1      -1.159   2.603  24.458  0.00  0.00    +0.024 A 
ATOM     22  C   UNL     1      -0.336   2.582  24.521  0.00  0.00    +0.100 A 
ATOM     23  N   UNL     1       0.079   1.913  24.276  0.00  0.00    -0.229 NA
ATOM     24  C   UNL     1      -0.327   1.265  23.966  0.00  0.00    +0.132 A 
ATOM     25  C   UNL     1      -1.149   1.286  23.902  0.00  0.00    +0.037 A 
BRANCH  24  26
ATOM     26  N   UNL     1       0.089   0.597  23.720  0.00  0.00    -0.293 N 
ATOM     27  C   UNL     1       0.694   0.581  23.159  0.00  0.00    +0.092 C 
ATOM     28  C   UNL     1       0.951  -0.200  23.084  0.00  0.00    +0.023 C 
ATOM     29  C   UNL     1       0.506  -0.666  23.599  0.00  0.00    +0.023 C 
ATOM     30  C   UNL     1      -0.026  -0.173  23.992  0.00  0.00    +0.092 C 
ENDBRANCH  24  26
ENDBRANCH  17  20
BRANCH  15  14
ATOM     10  N   UNL     1      -4.781   1.258  25.067  0.00  0.00    -0.268 NA
ATOM     11  C   UNL     1      -5.459   1.484  25.480  0.00  0.00    +0.072 C 
ATOM     12  C   UNL     1      -5.485   2.309  25.493  0.00  0.00    +0.019 C 
ATOM     13  C   UNL     1      -4.824   2.592  25.088  0.00  0.00    +0.027 C 
ATOM     14  C   UNL     1      -4.389   1.941  24.825  0.00  0.00    +0.138 C 
BRANCH  10   7
ATOM      1  C   UNL     1      -3.371  -2.250  25.051  0.00  0.00    +0.095 C 
ATOM      2  C   UNL     1      -3.813  -1.844  24.486  0.00  0.00    +0.226 C 
ATOM      3  O   UNL     1      -4.013  -2.211  23.775  0.00  0.00    -0.275 OA
ATOM      4  N   UNL     1      -4.055  -1.067  24.631  0.00  0.00    -0.279 N 
ATOM      5  C   UNL     1      -4.497  -0.661  24.065  0.00  0.00    +0.095 C 
ATOM      6  C   UNL     1      -4.739   0.114  24.210  0.00  0.00    +0.038 C 
ATOM      7  C   UNL     1      -4.539   0.483  24.922  0.00  0.00    +0.061 C 
ATOM      8  C   UNL     1      -4.097   0.076  25.487  0.00  0.00    +0.038 C 
ATOM      9  C   UNL     1      -3.855  -0.700  25.342  0.00  0.00    +0.095 C 
ENDBRANCH  10   7
ENDBRANCH  15  14
TORSDOF 4
ENDMDL
