MODEL 1
REMARK VINA RESULT:     -11.1      0.000      0.000
REMARK  Name = 
REMARK  8 active torsions:
REMARK  status: ('A' for Active; 'I' for Inactive)
REMARK    1  A    between atoms: C_2  and  C_4
REMARK    2  A    between atoms: C_6  and  C_7
REMARK    3  A    between atoms: C_7  and  C_8
REMARK    4  A    between atoms: C_19  and  C_20
REMARK    5  A    between atoms: C_20  and  N_21
REMARK    6  A    between atoms: N_21  and  S_22
REMARK    7  A    between atoms: S_22  and  C_25
REMARK    8  A    between atoms: C_25  and  C_26
REMARK                            x       y       z     vdW  Elec       q    Type
REMARK                         _______ _______ _______ _____ _____    ______ ____
ROOT
ATOM      4  C   UNL     1      -3.231   1.321  23.957  0.00  0.00    +0.006 C 
ATOM      5  C   UNL     1      -3.478   0.534  23.972  0.00  0.00    +0.005 C 
ATOM      6  C   UNL     1      -4.104   0.308  24.459  0.00  0.00    +0.027 C 
ATOM     16  C   UNL     1      -4.483   0.869  24.931  0.00  0.00    -0.048 C 
ATOM     17  C   UNL     1      -5.109   0.643  25.418  0.00  0.00    +0.026 C 
ATOM     18  C   UNL     1      -4.236   1.656  24.916  0.00  0.00    -0.033 C 
ATOM     19  C   UNL     1      -3.610   1.882  24.429  0.00  0.00    +0.041 C 
ENDROOT
BRANCH   4   2
ATOM      1  C   UNL     1      -2.756   1.919  22.749  0.00  0.00    +0.000 C 
ATOM      2  C   UNL     1      -2.604   1.548  23.470  0.00  0.00    +0.000 C 
ATOM      3  C   UNL     1      -1.827   1.403  23.704  0.00  0.00    +0.000 C 
ENDBRANCH   4   2
BRANCH   6   7
ATOM      7  C   UNL     1      -4.351  -0.478  24.474  0.00  0.00    +0.089 C 
BRANCH   7   8
ATOM      8  C   UNL     1      -3.884  -1.050  24.842  0.00  0.00    +0.226 C 
ATOM      9  O   UNL     1      -3.438  -0.853  25.507  0.00  0.00    -0.275 OA
ATOM     10  N   UNL     1      -3.864  -1.820  24.545  0.00  0.00    -0.274 N 
ATOM     11  C   UNL     1      -4.311  -2.017  23.880  0.00  0.00    +0.125 C 
ATOM     12  C   UNL     1      -4.290  -2.787  23.583  0.00  0.00    +0.164 C 
ATOM     13  O   UNL     1      -3.823  -3.359  23.952  0.00  0.00    -0.350 OA
ATOM     14  C   UNL     1      -3.376  -3.162  24.617  0.00  0.00    +0.164 C 
ATOM     15  C   UNL     1      -3.397  -2.392  24.913  0.00  0.00    +0.125 C 
ENDBRANCH   7   8
ENDBRANCH   6   7
BRANCH  19  20
ATOM     20  C   UNL     1      -3.363   2.669  24.414  0.00  0.00    +0.119 C 
BRANCH  20  21
ATOM     21  N   UNL     1      -3.685   3.212  24.947  0.00  0.00    -0.081 NA
BRANCH  21  22
ATOM     22  S   UNL     1      -3.271   3.900  25.135  0.00  0.00    +0.062 S 
ATOM     23  O   UNL     1      -3.436   4.205  24.386  0.00  0.00    -0.156 OA
ATOM     24  O   UNL     1      -3.104   3.595  25.884  0.00  0.00    -0.156 OA
BRANCH  22  25
ATOM     25  C   UNL     1      -2.856   4.587  25.323  0.00  0.00    +0.197 C 
BRANCH  25  26
ATOM     26  C   UNL     1      -2.038   4.620  25.212  0.00  0.00    +0.003 A 
ATOM     27  C   UNL     1      -1.720   5.123  24.640  0.00  0.00    -0.003 A 
ATOM     28  C   UNL     1      -0.903   5.155  24.530  0.00  0.00    -0.000 A 
ATOM     29  C   UNL     1      -0.405   4.685  24.991  0.00  0.00    -0.000 A 
ATOM     30  C   UNL     1      -0.724   4.183  25.562  0.00  0.00    -0.000 A 
ATOM     31  C   UNL     1      -1.541   4.151  25.672  0.00  0.00    -0.003 A 
ENDBRANCH  25  26
ENDBRANCH  22  25
ENDBRANCH  21  22
ENDBRANCH  20  21
ENDBRANCH  19  20
TORSDOF 8
ENDMDL
MODEL 2
REMARK VINA RESULT:     -10.5      1.492      5.886
REMARK  Name = 
REMARK  8 active torsions:
REMARK  status: ('A' for Active; 'I' for Inactive)
REMARK    1  A    between atoms: C_2  and  C_4
REMARK    2  A    between atoms: C_6  and  C_7
REMARK    3  A    between atoms: C_7  and  C_8
REMARK    4  A    between atoms: C_19  and  C_20
REMARK    5  A    between atoms: C_20  and  N_21
REMARK    6  A    between atoms: N_21  and  S_22
REMARK    7  A    between atoms: S_22  and  C_25
REMARK    8  A    between atoms: C_25  and  C_26
REMARK                            x       y       z     vdW  Elec       q    Type
REMARK                         _______ _______ _______ _____ _____    ______ ____
ROOT
ATOM      4  C   UNL     1      -3.265   2.246  24.649  0.00  0.00    +0.006 C 
ATOM      5  C   UNL     1      -2.764   2.860  24.878  0.00  0.00    +0.005 C 
ATOM      6  C   UNL     1      -2.039   2.690  25.233  0.00  0.00    +0.027 C 
ATOM     16  C   UNL     1      -1.816   1.906  25.358  0.00  0.00    -0.048 C 
ATOM     17  C   UNL     1      -1.091   1.735  25.713  0.00  0.00    +0.026 C 
ATOM     18  C   UNL     1      -2.317   1.292  25.130  0.00  0.00    -0.033 C 
ATOM     19  C   UNL     1      -3.042   1.462  24.775  0.00  0.00    +0.041 C 
ENDROOT
BRANCH   4   2
ATOM      1  C   UNL     1      -4.674   2.461  24.753  0.00  0.00    +0.000 C 
ATOM      2  C   UNL     1      -3.991   2.416  24.294  0.00  0.00    +0.000 C 
ATOM      3  C   UNL     1      -4.032   2.541  23.479  0.00  0.00    +0.000 C 
ENDBRANCH   4   2
BRANCH   6   7
ATOM      7  C   UNL     1      -1.538   3.304  25.462  0.00  0.00    +0.089 C 
BRANCH   7   8
ATOM      8  C   UNL     1      -1.839   4.065  25.563  0.00  0.00    +0.226 C 
ATOM      9  O   UNL     1      -2.526   4.183  26.005  0.00  0.00    -0.275 OA
ATOM     10  N   UNL     1      -1.452   4.711  25.223  0.00  0.00    -0.274 N 
ATOM     11  C   UNL     1      -0.765   4.593  24.782  0.00  0.00    +0.125 C 
ATOM     12  C   UNL     1      -0.379   5.239  24.442  0.00  0.00    +0.164 C 
ATOM     13  O   UNL     1      -0.679   6.000  24.544  0.00  0.00    -0.350 OA
ATOM     14  C   UNL     1      -1.367   6.117  24.985  0.00  0.00    +0.164 C 
ATOM     15  C   UNL     1      -1.753   5.472  25.325  0.00  0.00    +0.125 C 
ENDBRANCH   7   8
ENDBRANCH   6   7
BRANCH  19  20
ATOM     20  C   UNL     1      -3.543   0.848  24.546  0.00  0.00    +0.119 C 
BRANCH  20  21
ATOM     21  N   UNL     1      -3.295   0.064  24.623  0.00  0.00    -0.081 NA
BRANCH  21  22
ATOM     22  S   UNL     1      -3.817  -0.552  24.453  0.00  0.00    +0.062 S 
ATOM     23  O   UNL     1      -3.565  -0.551  23.668  0.00  0.00    -0.156 OA
ATOM     24  O   UNL     1      -4.070  -0.554  25.239  0.00  0.00    -0.156 OA
BRANCH  22  25
ATOM     25  C   UNL     1      -4.339  -1.167  24.284  0.00  0.00    +0.197 C 
BRANCH  25  26
ATOM     26  C   UNL     1      -4.072  -1.949  24.292  0.00  0.00    +0.003 A 
ATOM     27  C   UNL     1      -4.257  -2.454  23.667  0.00  0.00    -0.003 A 
ATOM     28  C   UNL     1      -3.991  -3.235  23.675  0.00  0.00    -0.000 A 
ATOM     29  C   UNL     1      -3.539  -3.510  24.309  0.00  0.00    -0.000 A 
ATOM     30  C   UNL     1      -3.355  -3.004  24.934  0.00  0.00    -0.000 A 
ATOM     31  C   UNL     1      -3.621  -2.223  24.925  0.00  0.00    -0.003 A 
ENDBRANCH  25  26
ENDBRANCH  22  25
ENDBRANCH  21  22
ENDBRANCH  20  21
ENDBRANCH  19  20
TORSDOF 8
ENDMDL
MODEL 3
REMARK VINA RESULT:      -9.9      3.245      5.110
REMARK  Name = 
REMARK  8 active torsions:
REMARK  status: ('A' for Active; 'I' for Inactive)
REMARK    1  A    between atoms: C_2  and  C_4
REMARK    2  A    between atoms: C_6  and  C_7
REMARK    3  A    between atoms: C_7  and  C_8
REMARK    4  A    between atoms: C_19  and  C_20
REMARK    5  A    between atoms: C_20  and  N_21
REMARK    6  A    between atoms: N_21  and  S_22
REMARK    7  A    between atoms: S_22  and  C_25
REMARK    8  A    between atoms: C_25  and  C_26
REMARK                            x       y       z     vdW  Elec       q    Type
REMARK                         _______ _______ _______ _____ _____    ______ ____
ROOT
ATOM      4  C   UNL     1      -0.864  -0.355  24.385  0.00  0.00    +0.006 C 
ATOM      5  C   UNL     1      -0.081  -0.240  24.152  0.00  0.00    +0.005 C 
ATOM      6  C   UNL     1       0.165   0.502  23.888  0.00  0.00    +0.027 C 
ATOM     16  C   UNL     1      -0.372   1.128  23.858  0.00  0.00    -0.048 C 
ATOM     17  C   UNL     1      -0.126   1.869  23.593  0.00  0.00    +0.026 C 
ATOM     18  C   UNL     1      -1.154   1.012  24.091  0.00  0.00    -0.033 C 
ATOM     19  C   UNL     1      -1.400   0.270  24.355  0.00  0.00    +0.041 C 
ENDROOT
BRANCH   4   2
ATOM      1  C   UNL     1      -1.448  -1.632  24.121  0.00  0.00    +0.000 C 
ATOM      2  C   UNL     1      -1.110  -1.098  24.650  0.00  0.00    +0.000 C 
ATOM      3  C   UNL     1      -1.017  -1.304  25.444  0.00  0.00    +0.000 C 
ENDBRANCH   4   2
BRANCH   6   7
ATOM      7  C   UNL     1       0.948   0.618  23.654  0.00  0.00    +0.089 C 
BRANCH   7   8
ATOM      8  C   UNL     1       1.245   0.219  22.996  0.00  0.00    +0.226 C 
ATOM      9  O   UNL     1       0.752  -0.273  22.554  0.00  0.00    -0.275 OA
ATOM     10  N   UNL     1       2.036   0.311  22.780  0.00  0.00    -0.274 N 
ATOM     11  C   UNL     1       2.529   0.803  23.222  0.00  0.00    +0.125 C 
ATOM     12  C   UNL     1       3.321   0.896  23.006  0.00  0.00    +0.164 C 
ATOM     13  O   UNL     1       3.618   0.497  22.347  0.00  0.00    -0.350 OA
ATOM     14  C   UNL     1       3.124   0.005  21.905  0.00  0.00    +0.164 C 
ATOM     15  C   UNL     1       2.333  -0.087  22.121  0.00  0.00    +0.125 C 
ENDBRANCH   7   8
ENDBRANCH   6   7
BRANCH  19  20
ATOM     20  C   UNL     1      -2.183   0.155  24.589  0.00  0.00    +0.119 C 
BRANCH  20  21
ATOM     21  N   UNL     1      -2.713   0.788  24.581  0.00  0.00    -0.081 NA
BRANCH  21  22
ATOM     22  S   UNL     1      -3.516   0.654  24.711  0.00  0.00    +0.062 S 
ATOM     23  O   UNL     1      -3.640   0.606  23.896  0.00  0.00    -0.156 OA
ATOM     24  O   UNL     1      -3.393   0.702  25.526  0.00  0.00    -0.156 OA
BRANCH  22  25
ATOM     25  C   UNL     1      -4.319   0.521  24.840  0.00  0.00    +0.197 C 
BRANCH  25  26
ATOM     26  C   UNL     1      -4.825   1.157  24.990  0.00  0.00    +0.003 A 
ATOM     27  C   UNL     1      -5.383   1.106  25.596  0.00  0.00    -0.003 A 
ATOM     28  C   UNL     1      -5.887   1.741  25.746  0.00  0.00    -0.000 A 
ATOM     29  C   UNL     1      -5.834   2.427  25.290  0.00  0.00    -0.000 A 
ATOM     30  C   UNL     1      -5.276   2.477  24.685  0.00  0.00    -0.000 A 
ATOM     31  C   UNL     1      -4.771   1.842  24.535  0.00  0.00    -0.003 A 
ENDBRANCH  25  26
ENDBRANCH  22  25
ENDBRANCH  21  22
ENDBRANCH  20  21
ENDBRANCH  19  20
TORSDOF 8
ENDMDL
MODEL 4
REMARK VINA RESULT:      -9.9      3.111      4.851
REMARK  Name = 
REMARK  8 active torsions:
REMARK  status: ('A' for Active; 'I' for Inactive)
REMARK    1  A    between atoms: C_2  and  C_4
REMARK    2  A    between atoms: C_6  and  C_7
REMARK    3  A    between atoms: C_7  and  C_8
REMARK    4  A    between atoms: C_19  and  C_20
REMARK    5  A    between atoms: C_20  and  N_21
REMARK    6  A    between atoms: N_21  and  S_22
REMARK    7  A    between atoms: S_22  and  C_25
REMARK    8  A    between atoms: C_25  and  C_26
REMARK                            x       y       z     vdW  Elec       q    Type
REMARK                         _______ _______ _______ _____ _____    ______ ____
ROOT
ATOM      4  C   UNL     1      -1.789   0.736  24.683  0.00  0.00    +0.006 C 
ATOM      5  C   UNL     1      -2.525   1.109  24.671  0.00  0.00    +0.005 C 
ATOM      6  C   UNL     1      -2.743   1.568  24.020  0.00  0.00    +0.027 C 
ATOM     16  C   UNL     1      -2.226   1.653  23.383  0.00  0.00    -0.048 C 
ATOM     17  C   UNL     1      -2.444   2.111  22.733  0.00  0.00    +0.026 C 
ATOM     18  C   UNL     1      -1.491   1.280  23.396  0.00  0.00    -0.033 C 
ATOM     19  C   UNL     1      -1.272   0.821  24.046  0.00  0.00    +0.041 C 
ENDROOT
BRANCH   4   2
ATOM      1  C   UNL     1      -1.819  -0.507  25.387  0.00  0.00    +0.000 C 
ATOM      2  C   UNL     1      -1.570   0.277  25.334  0.00  0.00    +0.000 C 
ATOM      3  C   UNL     1      -1.103   0.604  25.930  0.00  0.00    +0.000 C 
ENDBRANCH   4   2
BRANCH   6   7
ATOM      7  C   UNL     1      -3.479   1.941  24.008  0.00  0.00    +0.089 C 
BRANCH   7   8
ATOM      8  C   UNL     1      -3.668   2.498  24.585  0.00  0.00    +0.226 C 
ATOM      9  O   UNL     1      -3.090   3.015  24.866  0.00  0.00    -0.275 OA
ATOM     10  N   UNL     1      -4.437   2.539  24.883  0.00  0.00    -0.274 N 
ATOM     11  C   UNL     1      -5.015   2.022  24.603  0.00  0.00    +0.125 C 
ATOM     12  C   UNL     1      -5.784   2.063  24.901  0.00  0.00    +0.164 C 
ATOM     13  O   UNL     1      -5.974   2.621  25.479  0.00  0.00    -0.350 OA
ATOM     14  C   UNL     1      -5.395   3.138  25.759  0.00  0.00    +0.164 C 
ATOM     15  C   UNL     1      -4.627   3.097  25.461  0.00  0.00    +0.125 C 
ENDBRANCH   7   8
ENDBRANCH   6   7
BRANCH  19  20
ATOM     20  C   UNL     1      -0.536   0.448  24.058  0.00  0.00    +0.119 C 
BRANCH  20  21
ATOM     21  N   UNL     1      -0.012   0.549  23.428  0.00  0.00    -0.081 NA
BRANCH  21  22
ATOM     22  S   UNL     1       0.723   0.176  23.440  0.00  0.00    +0.062 S 
ATOM     23  O   UNL     1       1.047   0.825  23.833  0.00  0.00    -0.156 OA
ATOM     24  O   UNL     1       0.399  -0.474  23.046  0.00  0.00    -0.156 OA
BRANCH  22  25
ATOM     25  C   UNL     1       1.458  -0.197  23.451  0.00  0.00    +0.197 C 
BRANCH  25  26
ATOM     26  C   UNL     1       2.049   0.038  22.924  0.00  0.00    +0.003 A 
ATOM     27  C   UNL     1       2.032  -0.227  22.142  0.00  0.00    -0.003 A 
ATOM     28  C   UNL     1       2.622   0.008  21.616  0.00  0.00    -0.000 A 
ATOM     29  C   UNL     1       3.229   0.508  21.870  0.00  0.00    -0.000 A 
ATOM     30  C   UNL     1       3.244   0.771  22.652  0.00  0.00    -0.000 A 
ATOM     31  C   UNL     1       2.654   0.536  23.178  0.00  0.00    -0.003 A 
ENDBRANCH  25  26
ENDBRANCH  22  25
ENDBRANCH  21  22
ENDBRANCH  20  21
ENDBRANCH  19  20
TORSDOF 8
ENDMDL
