REMARK  Name = 
REMARK  7 active torsions:
REMARK  status: ('A' for Active; 'I' for Inactive)
REMARK    1  A    between atoms: N_3  and  C_4
REMARK    2  A    between atoms: C_8  and  O_12
REMARK    3  A    between atoms: O_12  and  C_13
REMARK    4  A    between atoms: N_15  and  C_16
REMARK    5  A    between atoms: N_26  and  C_27
REMARK    6  A    between atoms: C_30  and  O_31
REMARK    7  A    between atoms: O_31  and  C_32
REMARK                            x       y       z     vdW  Elec       q    Type
REMARK                         _______ _______ _______ _____ _____    ______ ____
ROOT
ATOM      4  C   UNL     1       3.837  -5.938   0.000  0.00  0.00    +0.156 C 
ATOM      5  C   UNL     1       3.084  -6.273   0.000  0.00  0.00    +0.166 C 
ATOM      6  O   UNL     1       2.532  -5.660   0.000  0.00  0.00    -0.348 OA
ATOM      7  C   UNL     1       2.944  -4.946   0.000  0.00  0.00    +0.186 C 
ATOM      8  C   UNL     1       2.858  -4.125   0.000  0.00  0.00    +0.229 C 
ATOM      9  C   UNL     1       3.612  -3.789   0.000  0.00  0.00    +0.188 C 
ATOM     10  O   UNL     1       4.164  -4.402   0.000  0.00  0.00    -0.348 OA
ATOM     11  C   UNL     1       3.751  -5.117   0.000  0.00  0.00    +0.168 C 
ENDROOT
BRANCH   4   3
ATOM      1  O   UNL     1       3.837  -7.588   0.000  0.00  0.00    -0.249 OA
ATOM      2  C   UNL     1       4.552  -7.175   0.000  0.00  0.00    +0.344 C 
ATOM      3  N   UNL     1       4.552  -6.350   0.000  0.00  0.00    -0.184 NA
ATOM     26  N   UNL     1       5.266  -7.588   0.000  0.00  0.00    -0.161 NA
BRANCH  26  27
ATOM     27  C   UNL     1       5.266  -8.412   0.000  0.00  0.00    +0.075 A 
ATOM     28  C   UNL     1       5.981  -8.825   0.000  0.00  0.00    +0.020 A 
ATOM     29  C   UNL     1       5.981  -9.650   0.000  0.00  0.00    +0.039 A 
ATOM     30  C   UNL     1       5.266 -10.062   0.000  0.00  0.00    +0.145 A 
ATOM     38  C   UNL     1       4.552  -9.650   0.000  0.00  0.00    +0.039 A 
ATOM     39  C   UNL     1       4.552  -8.825   0.000  0.00  0.00    +0.020 A 
BRANCH  30  31
ATOM     31  O   UNL     1       5.266 -10.887   0.000  0.00  0.00    -0.453 OA
BRANCH  31  32
ATOM     32  C   UNL     1       5.981 -11.300   0.000  0.00  0.00    +0.145 A 
ATOM     33  C   UNL     1       6.695 -10.887   0.000  0.00  0.00    +0.037 A 
ATOM     34  C   UNL     1       7.410 -11.300   0.000  0.00  0.00    +0.003 A 
ATOM     35  C   UNL     1       7.410 -12.125   0.000  0.00  0.00    +0.000 A 
ATOM     36  C   UNL     1       6.695 -12.537   0.000  0.00  0.00    +0.003 A 
ATOM     37  C   UNL     1       5.981 -12.125   0.000  0.00  0.00    +0.037 A 
ENDBRANCH  31  32
ENDBRANCH  30  31
ENDBRANCH  26  27
ENDBRANCH   4   3
BRANCH   8  12
ATOM     12  O   UNL     1       2.143  -3.712   0.000  0.00  0.00    -0.432 OA
BRANCH  12  13
ATOM     13  C   UNL     1       2.143  -2.888   0.000  0.00  0.00    +0.425 C 
ATOM     14  O   UNL     1       2.858  -2.475   0.000  0.00  0.00    -0.224 OA
ATOM     15  N   UNL     1       1.429  -2.475   0.000  0.00  0.00    -0.142 NA
BRANCH  15  16
ATOM     16  C   UNL     1       1.429  -1.650   0.000  0.00  0.00    +0.077 A 
ATOM     17  C   UNL     1       0.715  -1.238   0.000  0.00  0.00    +0.017 A 
ATOM     18  C   UNL     1       0.715  -0.412   0.000  0.00  0.00    +0.001 A 
ATOM     19  C   UNL     1       1.429   0.000   0.000  0.00  0.00    +0.000 A 
ATOM     20  C   UNL     1       2.143  -0.412   0.000  0.00  0.00    +0.001 A 
ATOM     21  C   UNL     1       2.858   0.000   0.000  0.00  0.00    +0.000 A 
ATOM     22  C   UNL     1       3.572  -0.412   0.000  0.00  0.00    +0.000 A 
ATOM     23  C   UNL     1       3.572  -1.238   0.000  0.00  0.00    +0.000 A 
ATOM     24  C   UNL     1       2.858  -1.650   0.000  0.00  0.00    +0.001 A 
ATOM     25  C   UNL     1       2.143  -1.238   0.000  0.00  0.00    +0.015 A 
ENDBRANCH  15  16
ENDBRANCH  12  13
ENDBRANCH   8  12
TORSDOF 7
