MODEL 1
REMARK VINA RESULT:     -12.4      0.000      0.000
REMARK  Name = 
REMARK  3 active torsions:
REMARK  status: ('A' for Active; 'I' for Inactive)
REMARK    1  A    between atoms: C_3  and  C_11
REMARK    2  A    between atoms: N_14  and  C_15
REMARK    3  A    between atoms: C_15  and  C_16
REMARK                            x       y       z     vdW  Elec       q    Type
REMARK                         _______ _______ _______ _____ _____    ______ ____
ROOT
ATOM     11  C   UNL     1      -3.074   1.634  24.353  0.00  0.00    +0.074 C 
ATOM     12  C   UNL     1      -3.149   1.330  23.590  0.00  0.00    +0.026 C 
ATOM     13  C   UNL     1      -3.624   0.656  23.630  0.00  0.00    +0.073 C 
ATOM     14  N   UNL     1      -3.843   0.543  24.417  0.00  0.00    -0.269 NA
ATOM     22  C   UNL     1      -3.503   1.148  24.865  0.00  0.00    +0.080 C 
ENDROOT
BRANCH  11   3
ATOM      1  C   UNL     1      -3.734   3.293  24.532  0.00  0.00    +0.132 C 
ATOM      2  N   UNL     1      -2.949   3.068  24.650  0.00  0.00    -0.313 N 
ATOM      3  C   UNL     1      -2.646   2.305  24.568  0.00  0.00    +0.121 A 
ATOM      4  N   UNL     1      -1.839   2.332  24.739  0.00  0.00    -0.231 NA
ATOM      5  C   UNL     1      -1.644   3.111  24.926  0.00  0.00    +0.098 A 
ATOM      6  C   UNL     1      -2.330   3.566  24.871  0.00  0.00    +0.079 A 
ATOM      7  C   UNL     1      -2.302   4.375  25.030  0.00  0.00    +0.019 A 
ATOM      8  C   UNL     1      -1.589   4.729  25.243  0.00  0.00    +0.002 A 
ATOM      9  C   UNL     1      -0.903   4.274  25.298  0.00  0.00    +0.002 A 
ATOM     10  C   UNL     1      -0.930   3.465  25.139  0.00  0.00    +0.021 A 
ENDBRANCH  11   3
BRANCH  14  15
ATOM     15  C   UNL     1      -4.318  -0.066  24.706  0.00  0.00    +0.099 C 
BRANCH  15  16
ATOM     16  C   UNL     1      -4.024  -0.835  24.745  0.00  0.00    -0.006 A 
ATOM     17  C   UNL     1      -3.602  -1.082  25.411  0.00  0.00    -0.003 A 
ATOM     18  C   UNL     1      -3.308  -1.852  25.449  0.00  0.00    -0.000 A 
ATOM     19  C   UNL     1      -3.436  -2.375  24.824  0.00  0.00    -0.000 A 
ATOM     20  C   UNL     1      -3.857  -2.127  24.159  0.00  0.00    -0.000 A 
ATOM     21  C   UNL     1      -4.152  -1.357  24.120  0.00  0.00    -0.003 A 
ENDBRANCH  15  16
ENDBRANCH  14  15
TORSDOF 3
ENDMDL
MODEL 2
REMARK VINA RESULT:     -12.3      0.984      4.818
REMARK  Name = 
REMARK  3 active torsions:
REMARK  status: ('A' for Active; 'I' for Inactive)
REMARK    1  A    between atoms: C_3  and  C_11
REMARK    2  A    between atoms: N_14  and  C_15
REMARK    3  A    between atoms: C_15  and  C_16
REMARK                            x       y       z     vdW  Elec       q    Type
REMARK                         _______ _______ _______ _____ _____    ______ ____
ROOT
ATOM     11  C   UNL     1      -4.272   0.720  24.704  0.00  0.00    +0.074 C 
ATOM     12  C   UNL     1      -4.889   1.064  25.128  0.00  0.00    +0.026 C 
ATOM     13  C   UNL     1      -4.824   1.884  25.056  0.00  0.00    +0.073 C 
ATOM     14  N   UNL     1      -4.165   2.046  24.587  0.00  0.00    -0.269 NA
ATOM     22  C   UNL     1      -3.823   1.327  24.369  0.00  0.00    +0.080 C 
ENDROOT
BRANCH  11   3
ATOM      1  C   UNL     1      -3.240  -0.274  25.786  0.00  0.00    +0.132 C 
ATOM      2  N   UNL     1      -3.652  -0.545  25.125  0.00  0.00    -0.313 N 
ATOM      3  C   UNL     1      -4.127  -0.089  24.628  0.00  0.00    +0.121 A 
ATOM      4  N   UNL     1      -4.430  -0.583  24.041  0.00  0.00    -0.231 NA
ATOM      5  C   UNL     1      -4.144  -1.344  24.176  0.00  0.00    +0.098 A 
ATOM      6  C   UNL     1      -3.663  -1.321  24.846  0.00  0.00    +0.079 A 
ATOM      7  C   UNL     1      -3.297  -2.010  25.114  0.00  0.00    +0.019 A 
ATOM      8  C   UNL     1      -3.412  -2.721  24.714  0.00  0.00    +0.002 A 
ATOM      9  C   UNL     1      -3.892  -2.744  24.044  0.00  0.00    +0.002 A 
ATOM     10  C   UNL     1      -4.259  -2.056  23.774  0.00  0.00    +0.021 A 
ENDBRANCH  11   3
BRANCH  14  15
ATOM     15  C   UNL     1      -3.895   2.795  24.373  0.00  0.00    +0.099 C 
BRANCH  15  16
ATOM     16  C   UNL     1      -3.382   3.207  24.870  0.00  0.00    -0.006 A 
ATOM     17  C   UNL     1      -3.683   3.647  25.500  0.00  0.00    -0.003 A 
ATOM     18  C   UNL     1      -3.170   4.058  25.997  0.00  0.00    -0.000 A 
ATOM     19  C   UNL     1      -2.356   4.031  25.866  0.00  0.00    -0.000 A 
ATOM     20  C   UNL     1      -2.055   3.591  25.236  0.00  0.00    -0.000 A 
ATOM     21  C   UNL     1      -2.568   3.178  24.737  0.00  0.00    -0.003 A 
ENDBRANCH  15  16
ENDBRANCH  14  15
TORSDOF 3
ENDMDL
MODEL 3
REMARK VINA RESULT:     -11.9      1.114      4.840
REMARK  Name = 
REMARK  3 active torsions:
REMARK  status: ('A' for Active; 'I' for Inactive)
REMARK    1  A    between atoms: C_3  and  C_11
REMARK    2  A    between atoms: N_14  and  C_15
REMARK    3  A    between atoms: C_15  and  C_16
REMARK                            x       y       z     vdW  Elec       q    Type
REMARK                         _______ _______ _______ _____ _____    ______ ____
ROOT
ATOM     11  C   UNL     1      -1.725   0.833  24.718  0.00  0.00    +0.074 C 
ATOM     12  C   UNL     1      -1.145   1.067  24.181  0.00  0.00    +0.026 C 
ATOM     13  C   UNL     1      -0.765   1.732  24.490  0.00  0.00    +0.073 C 
ATOM     14  N   UNL     1      -1.111   1.908  25.218  0.00  0.00    -0.269 NA
ATOM     22  C   UNL     1      -1.705   1.353  25.359  0.00  0.00    +0.080 C 
ENDROOT
BRANCH  11   3
ATOM      1  C   UNL     1      -3.277   0.837  23.816  0.00  0.00    +0.132 C 
ATOM      2  N   UNL     1      -2.951   0.194  24.216  0.00  0.00    -0.313 N 
ATOM      3  C   UNL     1      -2.237   0.192  24.631  0.00  0.00    +0.121 A 
ATOM      4  N   UNL     1      -2.126  -0.564  24.942  0.00  0.00    -0.231 NA
ATOM      5  C   UNL     1      -2.770  -1.028  24.720  0.00  0.00    +0.098 A 
ATOM      6  C   UNL     1      -3.280  -0.560  24.271  0.00  0.00    +0.079 A 
ATOM      7  C   UNL     1      -3.978  -0.882  23.971  0.00  0.00    +0.019 A 
ATOM      8  C   UNL     1      -4.166  -1.670  24.119  0.00  0.00    +0.002 A 
ATOM      9  C   UNL     1      -3.656  -2.138  24.568  0.00  0.00    +0.002 A 
ATOM     10  C   UNL     1      -2.958  -1.818  24.869  0.00  0.00    +0.021 A 
ENDBRANCH  11   3
BRANCH  14  15
ATOM     15  C   UNL     1      -0.900   2.531  25.716  0.00  0.00    +0.099 C 
BRANCH  15  16
ATOM     16  C   UNL     1      -1.165   3.295  25.557  0.00  0.00    -0.006 A 
ATOM     17  C   UNL     1      -1.905   3.541  25.828  0.00  0.00    -0.003 A 
ATOM     18  C   UNL     1      -2.168   4.306  25.668  0.00  0.00    -0.000 A 
ATOM     19  C   UNL     1      -1.694   4.825  25.237  0.00  0.00    -0.000 A 
ATOM     20  C   UNL     1      -0.955   4.579  24.965  0.00  0.00    -0.000 A 
ATOM     21  C   UNL     1      -0.690   3.814  25.125  0.00  0.00    -0.003 A 
ENDBRANCH  15  16
ENDBRANCH  14  15
TORSDOF 3
ENDMDL
MODEL 4
REMARK VINA RESULT:     -11.3      1.736      2.565
REMARK  Name = 
REMARK  3 active torsions:
REMARK  status: ('A' for Active; 'I' for Inactive)
REMARK    1  A    between atoms: C_3  and  C_11
REMARK    2  A    between atoms: N_14  and  C_15
REMARK    3  A    between atoms: C_15  and  C_16
REMARK                            x       y       z     vdW  Elec       q    Type
REMARK                         _______ _______ _______ _____ _____    ______ ____
ROOT
ATOM     11  C   UNL     1      -4.324   0.261  24.814  0.00  0.00    +0.074 C 
ATOM     12  C   UNL     1      -4.531  -0.191  24.156  0.00  0.00    +0.026 C 
ATOM     13  C   UNL     1      -4.241  -0.955  24.269  0.00  0.00    +0.073 C 
ATOM     14  N   UNL     1      -3.854  -0.975  24.997  0.00  0.00    -0.269 NA
ATOM     22  C   UNL     1      -3.905  -0.224  25.334  0.00  0.00    +0.080 C 
ENDROOT
BRANCH  11   3
ATOM      1  C   UNL     1      -3.417   1.658  24.145  0.00  0.00    +0.132 C 
ATOM      2  N   UNL     1      -4.086   1.700  24.624  0.00  0.00    -0.313 N 
ATOM      3  C   UNL     1      -4.504   1.057  24.932  0.00  0.00    +0.121 A 
ATOM      4  N   UNL     1      -5.132   1.352  25.378  0.00  0.00    -0.231 NA
ATOM      5  C   UNL     1      -5.103   2.175  25.346  0.00  0.00    +0.098 A 
ATOM      6  C   UNL     1      -4.457   2.390  24.880  0.00  0.00    +0.079 A 
ATOM      7  C   UNL     1      -4.290   3.188  24.750  0.00  0.00    +0.019 A 
ATOM      8  C   UNL     1      -4.769   3.770  25.084  0.00  0.00    +0.002 A 
ATOM      9  C   UNL     1      -5.415   3.555  25.550  0.00  0.00    +0.002 A 
ATOM     10  C   UNL     1      -5.583   2.758  25.681  0.00  0.00    +0.021 A 
ENDBRANCH  11   3
BRANCH  14  15
ATOM     15  C   UNL     1      -3.481  -1.631  25.330  0.00  0.00    +0.099 C 
BRANCH  15  16
ATOM     16  C   UNL     1      -2.723  -1.844  25.084  0.00  0.00    -0.006 A 
ATOM     17  C   UNL     1      -2.064  -1.462  25.401  0.00  0.00    -0.003 A 
ATOM     18  C   UNL     1      -1.306  -1.675  25.155  0.00  0.00    -0.000 A 
ATOM     19  C   UNL     1      -1.206  -2.270  24.592  0.00  0.00    -0.000 A 
ATOM     20  C   UNL     1      -1.866  -2.652  24.275  0.00  0.00    -0.000 A 
ATOM     21  C   UNL     1      -2.624  -2.439  24.521  0.00  0.00    -0.003 A 
ENDBRANCH  15  16
ENDBRANCH  14  15
TORSDOF 3
ENDMDL
