MODEL 1
REMARK VINA RESULT:      -9.6      0.000      0.000
REMARK  Name = 
REMARK  10 active torsions:
REMARK  status: ('A' for Active; 'I' for Inactive)
REMARK    1  A    between atoms: C_2  and  O_3
REMARK    2  A    between atoms: O_3  and  C_4
REMARK    3  A    between atoms: C_4  and  C_6
REMARK    4  A    between atoms: C_10  and  N_11
REMARK    5  A    between atoms: C_17  and  C_18
REMARK    6  A    between atoms: C_18  and  C_19
REMARK    7  A    between atoms: N_21  and  C_22
REMARK    8  A    between atoms: C_22  and  C_23
REMARK    9  A    between atoms: C_23  and  S_24
REMARK   10  A    between atoms: C_26  and  C_27
REMARK                            x       y       z     vdW  Elec       q    Type
REMARK                         _______ _______ _______ _____ _____    ______ ____
ROOT
ATOM     11  N   UNL     1      -4.106  -0.350  24.514  0.00  0.00    -0.162 NA
ATOM     12  C   UNL     1      -3.778   0.249  24.050  0.00  0.00    +0.327 C 
ATOM     13  O   UNL     1      -3.282   0.057  23.419  0.00  0.00    -0.250 OA
ATOM     14  N   UNL     1      -3.945   1.039  24.218  0.00  0.00    -0.263 N 
ATOM     15  C   UNL     1      -3.617   1.638  23.755  0.00  0.00    +0.095 C 
ATOM     16  C   UNL     1      -3.783   2.428  23.923  0.00  0.00    +0.022 C 
ATOM     17  C   UNL     1      -4.279   2.619  24.555  0.00  0.00    +0.012 C 
ATOM     26  C   UNL     1      -4.608   2.021  25.018  0.00  0.00    +0.020 C 
ATOM     29  C   UNL     1      -4.440   1.230  24.849  0.00  0.00    +0.095 C 
ENDROOT
BRANCH  11  10
ATOM      6  C   UNL     1      -3.027  -2.240  24.356  0.00  0.00    +0.077 A 
ATOM      7  C   UNL     1      -3.602  -2.720  24.008  0.00  0.00    +0.007 A 
ATOM      8  C   UNL     1      -4.345  -2.409  23.830  0.00  0.00    +0.002 A 
ATOM      9  C   UNL     1      -4.513  -1.619  23.998  0.00  0.00    +0.017 A 
ATOM     10  C   UNL     1      -3.939  -1.140  24.345  0.00  0.00    +0.075 A 
ATOM     30  C   UNL     1      -3.196  -1.451  24.524  0.00  0.00    +0.023 A 
BRANCH   6   4
ATOM      4  C   UNL     1      -2.284  -2.551  24.535  0.00  0.00    +0.341 C 
ATOM      5  O   UNL     1      -2.062  -3.287  24.236  0.00  0.00    -0.245 OA
BRANCH   4   3
ATOM      3  O   UNL     1      -1.763  -2.125  25.012  0.00  0.00    -0.445 OA
BRANCH   3   2
ATOM      1  C   UNL     1      -0.421  -1.789  25.369  0.00  0.00    +0.051 C 
ATOM      2  C   UNL     1      -0.955  -2.291  24.992  0.00  0.00    +0.209 C 
ENDBRANCH   3   2
ENDBRANCH   4   3
ENDBRANCH   6   4
ENDBRANCH  11  10
BRANCH  26  27
ATOM     27  C   UNL     1      -5.103   2.213  25.649  0.00  0.00    +0.002 C 
ATOM     28  C   UNL     1      -5.810   1.799  25.759  0.00  0.00    +0.000 C 
ENDBRANCH  26  27
BRANCH  17  18
ATOM     18  C   UNL     1      -4.447   3.410  24.723  0.00  0.00    +0.087 C 
BRANCH  18  19
ATOM     19  C   UNL     1      -3.887   3.993  24.559  0.00  0.00    +0.241 C 
ATOM     20  O   UNL     1      -3.942   4.435  23.864  0.00  0.00    -0.273 OA
ATOM     21  N   UNL     1      -3.272   4.134  25.090  0.00  0.00    -0.204 NA
BRANCH  21  22
ATOM     22  C   UNL     1      -2.711   4.718  24.927  0.00  0.00    +0.127 C 
BRANCH  22  23
ATOM     23  C   UNL     1      -2.007   4.743  25.355  0.00  0.00    +0.081 C 
BRANCH  23  24
ATOM     24  S   UNL     1      -1.349   5.134  25.044  0.00  0.00    -0.137 S 
ATOM     25  C   UNL     1      -0.630   4.736  24.972  0.00  0.00    +0.069 C 
ENDBRANCH  23  24
ENDBRANCH  22  23
ENDBRANCH  21  22
ENDBRANCH  18  19
ENDBRANCH  17  18
TORSDOF 10
ENDMDL
MODEL 2
REMARK VINA RESULT:      -9.5      3.132      5.738
REMARK  Name = 
REMARK  10 active torsions:
REMARK  status: ('A' for Active; 'I' for Inactive)
REMARK    1  A    between atoms: C_2  and  O_3
REMARK    2  A    between atoms: O_3  and  C_4
REMARK    3  A    between atoms: C_4  and  C_6
REMARK    4  A    between atoms: C_10  and  N_11
REMARK    5  A    between atoms: C_17  and  C_18
REMARK    6  A    between atoms: C_18  and  C_19
REMARK    7  A    between atoms: N_21  and  C_22
REMARK    8  A    between atoms: C_22  and  C_23
REMARK    9  A    between atoms: C_23  and  S_24
REMARK   10  A    between atoms: C_26  and  C_27
REMARK                            x       y       z     vdW  Elec       q    Type
REMARK                         _______ _______ _______ _____ _____    ______ ____
ROOT
ATOM     11  N   UNL     1      -2.024   2.179  25.180  0.00  0.00    -0.162 NA
ATOM     12  C   UNL     1      -1.561   2.245  24.499  0.00  0.00    +0.327 C 
ATOM     13  O   UNL     1      -1.586   2.936  24.049  0.00  0.00    -0.250 OA
ATOM     14  N   UNL     1      -1.074   1.621  24.269  0.00  0.00    -0.263 N 
ATOM     15  C   UNL     1      -0.611   1.687  23.589  0.00  0.00    +0.095 C 
ATOM     16  C   UNL     1      -0.124   1.063  23.359  0.00  0.00    +0.022 C 
ATOM     17  C   UNL     1      -0.099   0.371  23.810  0.00  0.00    +0.012 C 
ATOM     26  C   UNL     1      -0.561   0.305  24.490  0.00  0.00    +0.020 C 
ATOM     29  C   UNL     1      -1.048   0.931  24.719  0.00  0.00    +0.095 C 
ENDROOT
BRANCH  11  10
ATOM      6  C   UNL     1      -3.816   3.372  25.536  0.00  0.00    +0.077 A 
ATOM      7  C   UNL     1      -3.487   4.053  25.867  0.00  0.00    +0.007 A 
ATOM      8  C   UNL     1      -2.670   4.109  25.968  0.00  0.00    +0.002 A 
ATOM      9  C   UNL     1      -2.182   3.484  25.739  0.00  0.00    +0.017 A 
ATOM     10  C   UNL     1      -2.511   2.804  25.409  0.00  0.00    +0.075 A 
ATOM     30  C   UNL     1      -3.328   2.748  25.307  0.00  0.00    +0.023 A 
BRANCH   6   4
ATOM      4  C   UNL     1      -4.632   3.317  25.435  0.00  0.00    +0.341 C 
ATOM      5  O   UNL     1      -5.096   3.999  25.433  0.00  0.00    -0.245 OA
BRANCH   4   3
ATOM      3  O   UNL     1      -4.986   2.577  25.334  0.00  0.00    -0.445 OA
BRANCH   3   2
ATOM      1  C   UNL     1      -6.158   1.785  25.139  0.00  0.00    +0.051 C 
ATOM      2  C   UNL     1      -5.807   2.517  25.280  0.00  0.00    +0.209 C 
ENDBRANCH   3   2
ENDBRANCH   4   3
ENDBRANCH   6   4
ENDBRANCH  11  10
BRANCH  26  27
ATOM     27  C   UNL     1      -0.535  -0.386  24.940  0.00  0.00    +0.002 C 
ATOM     28  C   UNL     1      -1.187  -0.605  25.397  0.00  0.00    +0.000 C 
ENDBRANCH  26  27
BRANCH  17  18
ATOM     18  C   UNL     1       0.389  -0.254  23.580  0.00  0.00    +0.087 C 
BRANCH  18  19
ATOM     19  C   UNL     1       0.961  -0.136  22.997  0.00  0.00    +0.241 C 
ATOM     20  O   UNL     1       0.744  -0.120  22.202  0.00  0.00    -0.273 OA
ATOM     21  N   UNL     1       1.752  -0.036  23.212  0.00  0.00    -0.204 NA
BRANCH  21  22
ATOM     22  C   UNL     1       2.325   0.082  22.629  0.00  0.00    +0.127 C 
BRANCH  22  23
ATOM     23  C   UNL     1       3.125   0.028  22.822  0.00  0.00    +0.081 C 
BRANCH  23  24
ATOM     24  S   UNL     1       3.659   0.581  22.521  0.00  0.00    -0.137 S 
ATOM     25  C   UNL     1       4.431   0.608  22.812  0.00  0.00    +0.069 C 
ENDBRANCH  23  24
ENDBRANCH  22  23
ENDBRANCH  21  22
ENDBRANCH  18  19
ENDBRANCH  17  18
TORSDOF 10
ENDMDL
MODEL 3
REMARK VINA RESULT:      -9.1      3.674      5.349
REMARK  Name = 
REMARK  10 active torsions:
REMARK  status: ('A' for Active; 'I' for Inactive)
REMARK    1  A    between atoms: C_2  and  O_3
REMARK    2  A    between atoms: O_3  and  C_4
REMARK    3  A    between atoms: C_4  and  C_6
REMARK    4  A    between atoms: C_10  and  N_11
REMARK    5  A    between atoms: C_17  and  C_18
REMARK    6  A    between atoms: C_18  and  C_19
REMARK    7  A    between atoms: N_21  and  C_22
REMARK    8  A    between atoms: C_22  and  C_23
REMARK    9  A    between atoms: C_23  and  S_24
REMARK   10  A    between atoms: C_26  and  C_27
REMARK                            x       y       z     vdW  Elec       q    Type
REMARK                         _______ _______ _______ _____ _____    ______ ____
ROOT
ATOM     11  N   UNL     1      -1.591   0.169  24.834  0.00  0.00    -0.162 NA
ATOM     12  C   UNL     1      -1.074  -0.267  24.360  0.00  0.00    +0.327 C 
ATOM     13  O   UNL     1      -1.249  -1.051  24.171  0.00  0.00    -0.250 OA
ATOM     14  N   UNL     1      -0.383   0.081  24.075  0.00  0.00    -0.263 N 
ATOM     15  C   UNL     1       0.134  -0.354  23.601  0.00  0.00    +0.095 C 
ATOM     16  C   UNL     1       0.825  -0.006  23.316  0.00  0.00    +0.022 C 
ATOM     17  C   UNL     1       1.000   0.778  23.506  0.00  0.00    +0.012 C 
ATOM     26  C   UNL     1       0.484   1.213  23.980  0.00  0.00    +0.020 C 
ATOM     29  C   UNL     1      -0.207   0.864  24.264  0.00  0.00    +0.095 C 
ENDROOT
BRANCH  11  10
ATOM      6  C   UNL     1      -3.709  -0.221  25.187  0.00  0.00    +0.077 A 
ATOM      7  C   UNL     1      -3.666  -0.877  25.686  0.00  0.00    +0.007 A 
ATOM      8  C   UNL     1      -2.931  -1.184  25.901  0.00  0.00    +0.002 A 
ATOM      9  C   UNL     1      -2.239  -0.835  25.617  0.00  0.00    +0.017 A 
ATOM     10  C   UNL     1      -2.282  -0.180  25.118  0.00  0.00    +0.075 A 
ATOM     30  C   UNL     1      -3.017   0.127  24.903  0.00  0.00    +0.023 A 
BRANCH   6   4
ATOM      4  C   UNL     1      -4.443   0.085  24.972  0.00  0.00    +0.341 C 
ATOM      5  O   UNL     1      -4.893  -0.288  24.391  0.00  0.00    -0.245 OA
BRANCH   4   3
ATOM      3  O   UNL     1      -4.729   0.768  25.339  0.00  0.00    -0.445 OA
BRANCH   3   2
ATOM      1  C   UNL     1      -5.650   1.858  25.377  0.00  0.00    +0.051 C 
ATOM      2  C   UNL     1      -5.377   1.167  25.021  0.00  0.00    +0.209 C 
ENDBRANCH   3   2
ENDBRANCH   4   3
ENDBRANCH   6   4
ENDBRANCH  11  10
BRANCH  26  27
ATOM     27  C   UNL     1       0.660   1.997  24.168  0.00  0.00    +0.002 C 
ATOM     28  C   UNL     1       0.108   2.457  24.576  0.00  0.00    +0.000 C 
ENDBRANCH  26  27
BRANCH  17  18
ATOM     18  C   UNL     1       1.693   1.127  23.221  0.00  0.00    +0.087 C 
BRANCH  18  19
ATOM     19  C   UNL     1       2.309   0.653  22.946  0.00  0.00    +0.241 C 
ATOM     20  O   UNL     1       2.158   0.050  22.404  0.00  0.00    -0.273 OA
ATOM     21  N   UNL     1       3.078   0.782  23.216  0.00  0.00    -0.204 NA
BRANCH  21  22
ATOM     22  C   UNL     1       3.696   0.308  22.941  0.00  0.00    +0.127 C 
BRANCH  22  23
ATOM     23  C   UNL     1       4.478   0.520  23.096  0.00  0.00    +0.081 C 
BRANCH  23  24
ATOM     24  S   UNL     1       5.009  -0.043  23.383  0.00  0.00    -0.137 S 
ATOM     25  C   UNL     1       5.808   0.147  23.462  0.00  0.00    +0.069 C 
ENDBRANCH  23  24
ENDBRANCH  22  23
ENDBRANCH  21  22
ENDBRANCH  18  19
ENDBRANCH  17  18
TORSDOF 10
ENDMDL
MODEL 4
REMARK VINA RESULT:      -8.4      3.793      5.337
REMARK  Name = 
REMARK  10 active torsions:
REMARK  status: ('A' for Active; 'I' for Inactive)
REMARK    1  A    between atoms: C_2  and  O_3
REMARK    2  A    between atoms: O_3  and  C_4
REMARK    3  A    between atoms: C_4  and  C_6
REMARK    4  A    between atoms: C_10  and  N_11
REMARK    5  A    between atoms: C_17  and  C_18
REMARK    6  A    between atoms: C_18  and  C_19
REMARK    7  A    between atoms: N_21  and  C_22
REMARK    8  A    between atoms: C_22  and  C_23
REMARK    9  A    between atoms: C_23  and  S_24
REMARK   10  A    between atoms: C_26  and  C_27
REMARK                            x       y       z     vdW  Elec       q    Type
REMARK                         _______ _______ _______ _____ _____    ______ ____
ROOT
ATOM     11  N   UNL     1       0.838  -0.248  23.290  0.00  0.00    -0.162 NA
ATOM     12  C   UNL     1       0.225   0.305  23.270  0.00  0.00    +0.327 C 
ATOM     13  O   UNL     1       0.275   0.958  22.767  0.00  0.00    -0.250 OA
ATOM     14  N   UNL     1      -0.437   0.205  23.751  0.00  0.00    -0.263 N 
ATOM     15  C   UNL     1      -1.049   0.757  23.731  0.00  0.00    +0.095 C 
ATOM     16  C   UNL     1      -1.712   0.657  24.212  0.00  0.00    +0.022 C 
ATOM     17  C   UNL     1      -1.761   0.004  24.714  0.00  0.00    +0.012 C 
ATOM     26  C   UNL     1      -1.149  -0.548  24.735  0.00  0.00    +0.020 C 
ATOM     29  C   UNL     1      -0.487  -0.447  24.253  0.00  0.00    +0.095 C 
ENDROOT
BRANCH  11  10
ATOM      6  C   UNL     1       2.853   0.283  22.639  0.00  0.00    +0.077 A 
ATOM      7  C   UNL     1       2.825   0.056  21.846  0.00  0.00    +0.007 A 
ATOM      8  C   UNL     1       2.135  -0.272  21.534  0.00  0.00    +0.002 A 
ATOM      9  C   UNL     1       1.473  -0.373  22.016  0.00  0.00    +0.017 A 
ATOM     10  C   UNL     1       1.500  -0.147  22.808  0.00  0.00    +0.075 A 
ATOM     30  C   UNL     1       2.190   0.181  23.120  0.00  0.00    +0.023 A 
BRANCH   6   4
ATOM      4  C   UNL     1       3.542   0.610  22.950  0.00  0.00    +0.341 C 
ATOM      5  O   UNL     1       3.594   1.425  23.072  0.00  0.00    -0.245 OA
BRANCH   4   3
ATOM      3  O   UNL     1       4.181   0.124  23.140  0.00  0.00    -0.445 OA
BRANCH   3   2
ATOM      1  C   UNL     1       5.488  -0.028  23.696  0.00  0.00    +0.051 C 
ATOM      2  C   UNL     1       4.890   0.456  23.400  0.00  0.00    +0.209 C 
ENDBRANCH   3   2
ENDBRANCH   4   3
ENDBRANCH   6   4
ENDBRANCH  11  10
BRANCH  26  27
ATOM     27  C   UNL     1      -1.199  -1.201  25.237  0.00  0.00    +0.002 C 
ATOM     28  C   UNL     1      -0.526  -1.652  25.397  0.00  0.00    +0.000 C 
ENDBRANCH  26  27
BRANCH  17  18
ATOM     18  C   UNL     1      -2.424  -0.096  25.196  0.00  0.00    +0.087 C 
BRANCH  18  19
ATOM     19  C   UNL     1      -3.174   0.097  24.911  0.00  0.00    +0.241 C 
ATOM     20  O   UNL     1      -3.489  -0.312  24.268  0.00  0.00    -0.273 OA
ATOM     21  N   UNL     1      -3.607   0.700  25.270  0.00  0.00    -0.204 NA
BRANCH  21  22
ATOM     22  C   UNL     1      -4.358   0.893  24.985  0.00  0.00    +0.127 C 
BRANCH  22  23
ATOM     23  C   UNL     1      -4.809   1.467  25.369  0.00  0.00    +0.081 C 
BRANCH  23  24
ATOM     24  S   UNL     1      -5.445   1.820  24.979  0.00  0.00    -0.137 S 
ATOM     25  C   UNL     1      -5.884   2.408  25.357  0.00  0.00    +0.069 C 
ENDBRANCH  23  24
ENDBRANCH  22  23
ENDBRANCH  21  22
ENDBRANCH  18  19
ENDBRANCH  17  18
TORSDOF 10
ENDMDL
MODEL 5
REMARK VINA RESULT:      -8.4      2.926      4.035
REMARK  Name = 
REMARK  10 active torsions:
REMARK  status: ('A' for Active; 'I' for Inactive)
REMARK    1  A    between atoms: C_2  and  O_3
REMARK    2  A    between atoms: O_3  and  C_4
REMARK    3  A    between atoms: C_4  and  C_6
REMARK    4  A    between atoms: C_10  and  N_11
REMARK    5  A    between atoms: C_17  and  C_18
REMARK    6  A    between atoms: C_18  and  C_19
REMARK    7  A    between atoms: N_21  and  C_22
REMARK    8  A    between atoms: C_22  and  C_23
REMARK    9  A    between atoms: C_23  and  S_24
REMARK   10  A    between atoms: C_26  and  C_27
REMARK                            x       y       z     vdW  Elec       q    Type
REMARK                         _______ _______ _______ _____ _____    ______ ____
ROOT
ATOM     11  N   UNL     1      -0.403   1.138  24.077  0.00  0.00    -0.162 NA
ATOM     12  C   UNL     1      -1.158   1.264  23.766  0.00  0.00    +0.327 C 
ATOM     13  O   UNL     1      -1.460   0.749  23.196  0.00  0.00    -0.250 OA
ATOM     14  N   UNL     1      -1.609   1.903  24.025  0.00  0.00    -0.263 N 
ATOM     15  C   UNL     1      -2.363   2.029  23.714  0.00  0.00    +0.095 C 
ATOM     16  C   UNL     1      -2.815   2.669  23.973  0.00  0.00    +0.022 C 
ATOM     17  C   UNL     1      -2.513   3.183  24.543  0.00  0.00    +0.012 C 
ATOM     26  C   UNL     1      -1.759   3.058  24.854  0.00  0.00    +0.020 C 
ATOM     29  C   UNL     1      -1.307   2.417  24.594  0.00  0.00    +0.095 C 
ENDROOT
BRANCH  11  10
ATOM      6  C   UNL     1       1.155  -0.014  23.072  0.00  0.00    +0.077 A 
ATOM      7  C   UNL     1       0.951  -0.781  23.297  0.00  0.00    +0.007 A 
ATOM      8  C   UNL     1       0.296  -0.909  23.783  0.00  0.00    +0.002 A 
ATOM      9  C   UNL     1      -0.155  -0.269  24.042  0.00  0.00    +0.017 A 
ATOM     10  C   UNL     1       0.048   0.498  23.817  0.00  0.00    +0.075 A 
ATOM     30  C   UNL     1       0.703   0.626  23.332  0.00  0.00    +0.023 A 
BRANCH   6   4
ATOM      4  C   UNL     1       1.809   0.114  22.587  0.00  0.00    +0.341 C 
ATOM      5  O   UNL     1       1.780  -0.099  21.791  0.00  0.00    -0.245 OA
BRANCH   4   3
ATOM      3  O   UNL     1       2.493   0.455  22.898  0.00  0.00    -0.445 OA
BRANCH   3   2
ATOM      1  C   UNL     1       3.870   0.812  22.762  0.00  0.00    +0.051 C 
ATOM      2  C   UNL     1       3.184   0.478  22.448  0.00  0.00    +0.209 C 
ENDBRANCH   3   2
ENDBRANCH   4   3
ENDBRANCH   6   4
ENDBRANCH  11  10
BRANCH  26  27
ATOM     27  C   UNL     1      -1.457   3.572  25.424  0.00  0.00    +0.002 C 
ATOM     28  C   UNL     1      -0.659   3.785  25.407  0.00  0.00    +0.000 C 
ENDBRANCH  26  27
BRANCH  17  18
ATOM     18  C   UNL     1      -2.965   3.824  24.802  0.00  0.00    +0.087 C 
BRANCH  18  19
ATOM     19  C   UNL     1      -3.788   3.791  24.759  0.00  0.00    +0.241 C 
ATOM     20  O   UNL     1      -4.176   4.055  24.081  0.00  0.00    -0.273 OA
ATOM     21  N   UNL     1      -4.222   3.494  25.394  0.00  0.00    -0.204 NA
BRANCH  21  22
ATOM     22  C   UNL     1      -5.046   3.461  25.351  0.00  0.00    +0.127 C 
BRANCH  22  23
ATOM     23  C   UNL     1      -5.475   3.089  25.949  0.00  0.00    +0.081 C 
BRANCH  23  24
ATOM     24  S   UNL     1      -6.074   2.554  25.756  0.00  0.00    -0.137 S 
ATOM     25  C   UNL     1      -6.291   1.968  26.294  0.00  0.00    +0.069 C 
ENDBRANCH  23  24
ENDBRANCH  22  23
ENDBRANCH  21  22
ENDBRANCH  18  19
ENDBRANCH  17  18
TORSDOF 10
ENDMDL
MODEL 6
REMARK VINA RESULT:      -8.1      2.467      6.333
REMARK  Name = 
REMARK  10 active torsions:
REMARK  status: ('A' for Active; 'I' for Inactive)
REMARK    1  A    between atoms: C_2  and  O_3
REMARK    2  A    between atoms: O_3  and  C_4
REMARK    3  A    between atoms: C_4  and  C_6
REMARK    4  A    between atoms: C_10  and  N_11
REMARK    5  A    between atoms: C_17  and  C_18
REMARK    6  A    between atoms: C_18  and  C_19
REMARK    7  A    between atoms: N_21  and  C_22
REMARK    8  A    between atoms: C_22  and  C_23
REMARK    9  A    between atoms: C_23  and  S_24
REMARK   10  A    between atoms: C_26  and  C_27
REMARK                            x       y       z     vdW  Elec       q    Type
REMARK                         _______ _______ _______ _____ _____    ______ ____
ROOT
ATOM     11  N   UNL     1      -0.990   2.568  24.712  0.00  0.00    -0.162 NA
ATOM     12  C   UNL     1      -1.095   1.970  25.272  0.00  0.00    +0.327 C 
ATOM     13  O   UNL     1      -1.401   2.152  26.016  0.00  0.00    -0.250 OA
ATOM     14  N   UNL     1      -0.893   1.192  25.087  0.00  0.00    -0.263 N 
ATOM     15  C   UNL     1      -0.998   0.595  25.647  0.00  0.00    +0.095 C 
ATOM     16  C   UNL     1      -0.796  -0.183  25.463  0.00  0.00    +0.022 C 
ATOM     17  C   UNL     1      -0.489  -0.364  24.718  0.00  0.00    +0.012 C 
ATOM     26  C   UNL     1      -0.385   0.233  24.158  0.00  0.00    +0.020 C 
ATOM     29  C   UNL     1      -0.587   1.011  24.344  0.00  0.00    +0.095 C 
ENDROOT
BRANCH  11  10
ATOM      6  C   UNL     1      -2.158   4.300  25.344  0.00  0.00    +0.077 A 
ATOM      7  C   UNL     1      -1.597   4.902  25.269  0.00  0.00    +0.007 A 
ATOM      8  C   UNL     1      -0.835   4.725  25.008  0.00  0.00    +0.002 A 
ATOM      9  C   UNL     1      -0.633   3.947  24.822  0.00  0.00    +0.017 A 
ATOM     10  C   UNL     1      -1.192   3.346  24.897  0.00  0.00    +0.075 A 
ATOM     30  C   UNL     1      -1.954   3.523  25.158  0.00  0.00    +0.023 A 
BRANCH   6   4
ATOM      4  C   UNL     1      -2.919   4.477  25.605  0.00  0.00    +0.341 C 
ATOM      5  O   UNL     1      -3.028   4.962  26.263  0.00  0.00    -0.245 OA
BRANCH   4   3
ATOM      3  O   UNL     1      -3.574   4.168  25.207  0.00  0.00    -0.445 OA
BRANCH   3   2
ATOM      1  C   UNL     1      -4.925   3.707  25.243  0.00  0.00    +0.051 C 
ATOM      2  C   UNL     1      -4.306   4.129  25.586  0.00  0.00    +0.209 C 
ENDBRANCH   3   2
ENDBRANCH   4   3
ENDBRANCH   6   4
ENDBRANCH  11  10
BRANCH  26  27
ATOM     27  C   UNL     1      -0.078   0.051  23.414  0.00  0.00    +0.002 C 
ATOM     28  C   UNL     1       0.553   0.489  23.110  0.00  0.00    +0.000 C 
ENDBRANCH  26  27
BRANCH  17  18
ATOM     18  C   UNL     1      -0.287  -1.143  24.533  0.00  0.00    +0.087 C 
BRANCH  18  19
ATOM     19  C   UNL     1      -0.759  -1.765  24.799  0.00  0.00    +0.241 C 
ATOM     20  O   UNL     1      -0.552  -2.178  25.483  0.00  0.00    -0.273 OA
ATOM     21  N   UNL     1      -1.439  -1.974  24.381  0.00  0.00    -0.204 NA
BRANCH  21  22
ATOM     22  C   UNL     1      -1.912  -2.597  24.647  0.00  0.00    +0.127 C 
BRANCH  22  23
ATOM     23  C   UNL     1      -2.588  -2.809  24.225  0.00  0.00    +0.081 C 
BRANCH  23  24
ATOM     24  S   UNL     1      -3.316  -2.862  24.612  0.00  0.00    -0.137 S 
ATOM     25  C   UNL     1      -4.016  -2.820  24.179  0.00  0.00    +0.069 C 
ENDBRANCH  23  24
ENDBRANCH  22  23
ENDBRANCH  21  22
ENDBRANCH  18  19
ENDBRANCH  17  18
TORSDOF 10
ENDMDL
