MODEL 1
REMARK VINA RESULT:     -10.7      0.000      0.000
REMARK  Name = 
REMARK  7 active torsions:
REMARK  status: ('A' for Active; 'I' for Inactive)
REMARK    1  A    between atoms: O_2  and  C_3
REMARK    2  A    between atoms: C_6  and  C_7
REMARK    3  A    between atoms: C_7  and  N_8
REMARK    4  A    between atoms: N_8  and  C_9
REMARK    5  A    between atoms: C_9  and  C_10
REMARK    6  A    between atoms: C_10  and  C_11
REMARK    7  A    between atoms: C_14  and  C_16
REMARK                            x       y       z     vdW  Elec       q    Type
REMARK                         _______ _______ _______ _____ _____    ______ ____
ROOT
ATOM      9  C   UNL     1      -4.731   2.304  25.073  0.00  0.00    +0.120 C 
ATOM     20  C   UNL     1      -5.354   1.960  25.492  0.00  0.00    +0.161 C 
ATOM     21  O   UNL     1      -5.753   2.681  25.492  0.00  0.00    -0.351 OA
ATOM     22  C   UNL     1      -5.131   3.026  25.073  0.00  0.00    +0.161 C 
ENDROOT
BRANCH   9   8
ATOM      8  N   UNL     1      -4.332   1.582  25.073  0.00  0.00    -0.211 NA
BRANCH   8   7
ATOM      7  C   UNL     1      -4.740   0.885  24.908  0.00  0.00    +0.115 C 
BRANCH   7   6
ATOM      3  C   UNL     1      -3.505  -1.248  24.682  0.00  0.00    +0.139 A 
ATOM      4  C   UNL     1      -3.807  -0.874  24.012  0.00  0.00    +0.037 A 
ATOM      5  C   UNL     1      -4.219  -0.163  24.087  0.00  0.00    +0.000 A 
ATOM      6  C   UNL     1      -4.328   0.173  24.832  0.00  0.00    -0.005 A 
ATOM     23  C   UNL     1      -4.026  -0.201  25.502  0.00  0.00    +0.000 A 
ATOM     24  C   UNL     1      -3.614  -0.912  25.428  0.00  0.00    +0.037 A 
BRANCH   3   2
ATOM      1  C   UNL     1      -3.505  -2.673  24.576  0.00  0.00    +0.252 C 
ATOM      2  O   UNL     1      -3.093  -1.960  24.607  0.00  0.00    -0.471 OA
ENDBRANCH   3   2
ENDBRANCH   7   6
ENDBRANCH   8   7
ENDBRANCH   9   8
BRANCH   9  10
ATOM     10  C   UNL     1      -4.110   2.649  24.654  0.00  0.00    +0.070 C 
BRANCH  10  11
ATOM     11  C   UNL     1      -3.542   3.098  25.051  0.00  0.00    +0.102 A 
ATOM     12  N   UNL     1      -3.639   3.458  25.786  0.00  0.00    -0.082 NA
ATOM     13  O   UNL     1      -2.936   3.848  25.973  0.00  0.00    -0.358 OA
ATOM     14  C   UNL     1      -2.405   3.728  25.352  0.00  0.00    +0.153 A 
ATOM     15  C   UNL     1      -2.781   3.264  24.783  0.00  0.00    +0.054 A 
BRANCH  14  16
ATOM     16  C   UNL     1      -1.635   4.020  25.309  0.00  0.00    +0.054 C 
ATOM     17  C   UNL     1      -0.865   4.312  25.267  0.00  0.00    +0.008 C 
ATOM     18  C   UNL     1      -1.342   3.271  25.490  0.00  0.00    +0.008 C 
ATOM     19  C   UNL     1      -1.929   4.770  25.129  0.00  0.00    +0.008 C 
ENDBRANCH  14  16
ENDBRANCH  10  11
ENDBRANCH   9  10
TORSDOF 7
ENDMDL
MODEL 2
REMARK VINA RESULT:     -10.4      0.906      4.586
REMARK  Name = 
REMARK  7 active torsions:
REMARK  status: ('A' for Active; 'I' for Inactive)
REMARK    1  A    between atoms: O_2  and  C_3
REMARK    2  A    between atoms: C_6  and  C_7
REMARK    3  A    between atoms: C_7  and  N_8
REMARK    4  A    between atoms: N_8  and  C_9
REMARK    5  A    between atoms: C_9  and  C_10
REMARK    6  A    between atoms: C_10  and  C_11
REMARK    7  A    between atoms: C_14  and  C_16
REMARK                            x       y       z     vdW  Elec       q    Type
REMARK                         _______ _______ _______ _____ _____    ______ ____
ROOT
ATOM      9  C   UNL     1      -4.940   1.719  25.051  0.00  0.00    +0.120 C 
ATOM     20  C   UNL     1      -5.407   2.312  24.718  0.00  0.00    +0.161 C 
ATOM     21  O   UNL     1      -6.070   1.825  24.778  0.00  0.00    -0.351 OA
ATOM     22  C   UNL     1      -5.604   1.231  25.112  0.00  0.00    +0.161 C 
ENDROOT
BRANCH   9   8
ATOM      8  N   UNL     1      -4.278   2.206  24.990  0.00  0.00    -0.211 NA
BRANCH   8   7
ATOM      7  C   UNL     1      -4.313   2.986  25.259  0.00  0.00    +0.115 C 
BRANCH   7   6
ATOM      3  C   UNL     1      -2.253   4.352  25.364  0.00  0.00    +0.139 A 
ATOM      4  C   UNL     1      -2.631   4.123  26.060  0.00  0.00    +0.037 A 
ATOM      5  C   UNL     1      -3.317   3.667  26.025  0.00  0.00    +0.000 A 
ATOM      6  C   UNL     1      -3.625   3.442  25.294  0.00  0.00    -0.005 A 
ATOM     23  C   UNL     1      -3.248   3.671  24.598  0.00  0.00    +0.000 A 
ATOM     24  C   UNL     1      -2.561   4.126  24.632  0.00  0.00    +0.037 A 
BRANCH   3   2
ATOM      1  C   UNL     1      -0.881   4.553  25.015  0.00  0.00    +0.252 C 
ATOM      2  O   UNL     1      -1.565   4.808  25.399  0.00  0.00    -0.471 OA
ENDBRANCH   3   2
ENDBRANCH   7   6
ENDBRANCH   8   7
ENDBRANCH   9   8
BRANCH   9  10
ATOM     10  C   UNL     1      -4.474   1.125  25.384  0.00  0.00    +0.070 C 
BRANCH  10  11
ATOM     11  C   UNL     1      -4.252   0.471  24.933  0.00  0.00    +0.102 A 
ATOM     12  N   UNL     1      -4.107   0.470  24.121  0.00  0.00    -0.082 NA
ATOM     13  O   UNL     1      -3.902  -0.298  23.901  0.00  0.00    -0.358 OA
ATOM     14  C   UNL     1      -3.921  -0.772  24.576  0.00  0.00    +0.153 A 
ATOM     15  C   UNL     1      -4.137  -0.296  25.214  0.00  0.00    +0.054 A 
BRANCH  14  16
ATOM     16  C   UNL     1      -3.753  -1.578  24.608  0.00  0.00    +0.054 C 
ATOM     17  C   UNL     1      -3.585  -2.386  24.638  0.00  0.00    +0.008 C 
ATOM     18  C   UNL     1      -4.192  -1.696  23.919  0.00  0.00    +0.008 C 
ATOM     19  C   UNL     1      -3.314  -1.461  25.296  0.00  0.00    +0.008 C 
ENDBRANCH  14  16
ENDBRANCH  10  11
ENDBRANCH   9  10
TORSDOF 7
ENDMDL
MODEL 3
REMARK VINA RESULT:      -9.5      1.787      4.850
REMARK  Name = 
REMARK  7 active torsions:
REMARK  status: ('A' for Active; 'I' for Inactive)
REMARK    1  A    between atoms: O_2  and  C_3
REMARK    2  A    between atoms: C_6  and  C_7
REMARK    3  A    between atoms: C_7  and  N_8
REMARK    4  A    between atoms: N_8  and  C_9
REMARK    5  A    between atoms: C_9  and  C_10
REMARK    6  A    between atoms: C_10  and  C_11
REMARK    7  A    between atoms: C_14  and  C_16
REMARK                            x       y       z     vdW  Elec       q    Type
REMARK                         _______ _______ _______ _____ _____    ______ ____
ROOT
ATOM      9  C   UNL     1      -1.225   1.229  24.600  0.00  0.00    +0.120 C 
ATOM     20  C   UNL     1      -0.763   1.815  24.952  0.00  0.00    +0.161 C 
ATOM     21  O   UNL     1      -0.080   1.408  24.733  0.00  0.00    -0.351 OA
ATOM     22  C   UNL     1      -0.541   0.822  24.381  0.00  0.00    +0.161 C 
ENDROOT
BRANCH   9   8
ATOM      8  N   UNL     1      -1.908   1.636  24.818  0.00  0.00    -0.211 NA
BRANCH   8   7
ATOM      7  C   UNL     1      -2.009   2.423  24.592  0.00  0.00    +0.115 C 
BRANCH   7   6
ATOM      3  C   UNL     1      -4.141   3.584  25.074  0.00  0.00    +0.139 A 
ATOM      4  C   UNL     1      -3.557   3.536  25.656  0.00  0.00    +0.037 A 
ATOM      5  C   UNL     1      -2.847   3.149  25.495  0.00  0.00    +0.000 A 
ATOM      6  C   UNL     1      -2.720   2.811  24.753  0.00  0.00    -0.005 A 
ATOM     23  C   UNL     1      -3.303   2.859  24.172  0.00  0.00    +0.000 A 
ATOM     24  C   UNL     1      -4.014   3.246  24.332  0.00  0.00    +0.037 A 
BRANCH   3   2
ATOM      1  C   UNL     1      -5.485   3.553  25.558  0.00  0.00    +0.252 C 
ATOM      2  O   UNL     1      -4.852   3.972  25.235  0.00  0.00    -0.471 OA
ENDBRANCH   3   2
ENDBRANCH   7   6
ENDBRANCH   8   7
ENDBRANCH   9   8
BRANCH   9  10
ATOM     10  C   UNL     1      -1.686   0.643  24.247  0.00  0.00    +0.070 C 
BRANCH  10  11
ATOM     11  C   UNL     1      -1.865  -0.048  24.662  0.00  0.00    +0.102 A 
ATOM     12  N   UNL     1      -1.487  -0.314  25.345  0.00  0.00    -0.082 NA
ATOM     13  O   UNL     1      -1.841  -1.023  25.572  0.00  0.00    -0.358 OA
ATOM     14  C   UNL     1      -2.438  -1.196  25.030  0.00  0.00    +0.153 A 
ATOM     15  C   UNL     1      -2.453  -0.592  24.468  0.00  0.00    +0.054 A 
BRANCH  14  16
ATOM     16  C   UNL     1      -2.933  -1.855  25.047  0.00  0.00    +0.054 C 
ATOM     17  C   UNL     1      -3.428  -2.515  25.064  0.00  0.00    +0.008 C 
ATOM     18  C   UNL     1      -2.376  -2.284  24.616  0.00  0.00    +0.008 C 
ATOM     19  C   UNL     1      -3.491  -1.426  25.479  0.00  0.00    +0.008 C 
ENDBRANCH  14  16
ENDBRANCH  10  11
ENDBRANCH   9  10
TORSDOF 7
ENDMDL
