REMARK  Name = 
REMARK  6 active torsions:
REMARK  status: ('A' for Active; 'I' for Inactive)
REMARK    1  A    between atoms: O_2  and  C_3
REMARK    2  A    between atoms: C_12  and  C_13
REMARK    3  A    between atoms: C_13  and  C_14
REMARK    4  A    between atoms: C_19  and  C_20
REMARK    5  A    between atoms: C_20  and  C_21
REMARK    6  A    between atoms: C_24  and  C_26
REMARK                            x       y       z     vdW  Elec       q    Type
REMARK                         _______ _______ _______ _____ _____    ______ ____
ROOT
ATOM     14  C   UNL     1       0.715  -2.888   0.000  0.00  0.00    +0.026 C 
ATOM     15  C   UNL     1       0.000  -2.475   0.000  0.00  0.00    +0.094 C 
ATOM     16  N   UNL     1      -0.715  -2.888   0.000  0.00  0.00    -0.280 N 
ATOM     17  C   UNL     1      -0.715  -3.712   0.000  0.00  0.00    +0.093 C 
ATOM     18  C   UNL     1       0.000  -4.125   0.000  0.00  0.00    +0.022 C 
ATOM     19  C   UNL     1       0.715  -3.712   0.000  0.00  0.00    +0.015 C 
ATOM     24  C   UNL     1      -1.429  -2.475   0.000  0.00  0.00    +0.225 C 
ATOM     25  O   UNL     1      -1.429  -1.650   0.000  0.00  0.00    -0.275 OA
ENDROOT
BRANCH  24  26
ATOM     26  C   UNL     1      -2.143  -2.888   0.000  0.00  0.00    +0.069 C 
ATOM     27  C   UNL     1      -2.858  -3.300   0.000  0.00  0.00    +0.009 C 
ATOM     28  C   UNL     1      -1.731  -3.602   0.000  0.00  0.00    +0.009 C 
ATOM     29  C   UNL     1      -2.556  -2.173   0.000  0.00  0.00    +0.009 C 
ENDBRANCH  24  26
BRANCH  14  13
ATOM     13  C   UNL     1       1.429  -2.475   0.000  0.00  0.00    +0.047 C 
BRANCH  13  12
ATOM      3  C   UNL     1       0.000   0.000   0.000  0.00  0.00    +0.135 A 
ATOM      4  C   UNL     1      -0.715  -0.412   0.000  0.00  0.00    +0.037 A 
ATOM      5  C   UNL     1      -0.715  -1.238   0.000  0.00  0.00    +0.003 A 
ATOM      6  C   UNL     1       0.000  -1.650   0.000  0.00  0.00    +0.001 A 
ATOM      7  C   UNL     1       0.715  -1.238   0.000  0.00  0.00    +0.012 A 
ATOM      8  C   UNL     1       0.715  -0.412   0.000  0.00  0.00    +0.015 A 
ATOM      9  C   UNL     1       1.429   0.000   0.000  0.00  0.00    +0.056 C 
ATOM     10  C   UNL     1       2.143  -0.412   0.000  0.00  0.00    +0.130 C 
ATOM     11  N   UNL     1       2.143  -1.238   0.000  0.00  0.00    -0.274 NA
ATOM     12  C   UNL     1       1.429  -1.650   0.000  0.00  0.00    +0.053 C 
BRANCH   3   2
ATOM      1  C   UNL     1      -0.715   1.238   0.000  0.00  0.00    +0.252 C 
ATOM      2  O   UNL     1       0.000   0.825   0.000  0.00  0.00    -0.472 OA
ENDBRANCH   3   2
ENDBRANCH  13  12
ENDBRANCH  14  13
BRANCH  19  20
ATOM     20  C   UNL     1       1.429  -4.125   0.000  0.00  0.00    +0.114 C 
BRANCH  20  21
ATOM     21  C   UNL     1       1.429  -4.950   0.000  0.00  0.00    +0.365 C 
ATOM     22  O   UNL     1       0.715  -5.362   0.000  0.00  0.00    -0.246 OA
ATOM     23  O   UNL     1       2.143  -5.362   0.000  0.00  0.00    -0.246 OA
ENDBRANCH  20  21
ENDBRANCH  19  20
TORSDOF 6
