REMARK  Name = 
REMARK  2 active torsions:
REMARK  status: ('A' for Active; 'I' for Inactive)
REMARK    1  A    between atoms: C_6  and  N_10
REMARK    2  A    between atoms: C_14  and  C_15
REMARK                            x       y       z     vdW  Elec       q    Type
REMARK                         _______ _______ _______ _____ _____    ______ ____
ROOT
ATOM     10  N   UNL     1      -1.515  -2.470   0.000  0.00  0.00    -0.210 N 
ATOM     11  N   UNL     1      -2.322  -2.642   0.000  0.00  0.00    -0.043 NA
ATOM     12  N   UNL     1      -2.735  -1.927   0.000  0.00  0.00    -0.023 NA
ATOM     13  N   UNL     1      -2.183  -1.314   0.000  0.00  0.00    -0.108 NA
ATOM     14  C   UNL     1      -1.429  -1.650   0.000  0.00  0.00    +0.184 A 
ENDROOT
BRANCH  14  15
ATOM     15  C   UNL     1      -0.715  -1.238   0.000  0.00  0.00    +0.041 A 
ATOM     16  C   UNL     1       0.000  -1.650   0.000  0.00  0.00    +0.043 A 
ATOM     17  C   UNL     1       0.715  -1.238   0.000  0.00  0.00    +0.172 A 
ATOM     18  C   UNL     1       0.715  -0.412   0.000  0.00  0.00    +0.172 A 
ATOM     19  O   UNL     1       1.429   0.000   0.000  0.00  0.00    -0.468 OA
ATOM     20  C   UNL     1       2.143  -0.412   0.000  0.00  0.00    +0.253 C 
ATOM     21  C   UNL     1       2.143  -1.238   0.000  0.00  0.00    +0.253 C 
ATOM     22  O   UNL     1       1.429  -1.650   0.000  0.00  0.00    -0.468 OA
ATOM     23  C   UNL     1       0.000   0.000   0.000  0.00  0.00    +0.040 A 
ATOM     24  C   UNL     1      -0.715  -0.412   0.000  0.00  0.00    +0.006 A 
ENDBRANCH  14  15
BRANCH  10   6
ATOM      1  O   UNL     1       0.292  -5.551   0.000  0.00  0.00    -0.218 OA
ATOM      2  C   UNL     1      -0.321  -4.999   0.000  0.00  0.00    +0.211 C 
ATOM      3  C   UNL     1      -1.128  -5.171   0.000  0.00  0.00    +0.178 C 
ATOM      4  O   UNL     1      -1.540  -4.456   0.000  0.00  0.00    -0.349 OA
ATOM      5  C   UNL     1      -0.988  -3.843   0.000  0.00  0.00    +0.170 C 
ATOM      6  C   UNL     1      -0.902  -3.022   0.000  0.00  0.00    +0.167 C 
ATOM      7  C   UNL     1      -0.095  -2.851   0.000  0.00  0.00    +0.169 C 
ATOM      8  O   UNL     1       0.317  -3.566   0.000  0.00  0.00    -0.349 OA
ATOM      9  C   UNL     1      -0.235  -4.179   0.000  0.00  0.00    +0.177 C 
ENDBRANCH  10   6
TORSDOF 2
