MODEL 1
REMARK VINA RESULT:     -13.5      0.000      0.000
REMARK  Name = 
REMARK  8 active torsions:
REMARK  status: ('A' for Active; 'I' for Inactive)
REMARK    1  A    between atoms: C_2  and  C_4
REMARK    2  A    between atoms: C_4  and  C_5
REMARK    3  A    between atoms: C_10  and  C_11
REMARK    4  A    between atoms: C_11  and  C_12
REMARK    5  A    between atoms: C_12  and  N_13
REMARK    6  A    between atoms: C_27  and  C_29
REMARK    7  A    between atoms: C_29  and  O_30
REMARK    8  A    between atoms: O_30  and  C_31
REMARK                            x       y       z     vdW  Elec       q    Type
REMARK                         _______ _______ _______ _____ _____    ______ ____
ROOT
ATOM      5  C   UNL     1      -3.214  -1.335  24.440  0.00  0.00    +0.015 C 
ATOM      6  C   UNL     1      -2.603  -1.813  24.717  0.00  0.00    +0.022 C 
ATOM      7  C   UNL     1      -1.867  -1.482  24.890  0.00  0.00    +0.094 C 
ATOM      8  N   UNL     1      -1.745  -0.673  24.787  0.00  0.00    -0.277 N 
ATOM      9  C   UNL     1      -2.357  -0.195  24.510  0.00  0.00    +0.094 C 
ATOM     10  C   UNL     1      -3.093  -0.526  24.337  0.00  0.00    +0.022 C 
ATOM     27  C   UNL     1      -1.009  -0.341  24.960  0.00  0.00    +0.270 C 
ATOM     28  O   UNL     1      -0.395  -0.820  25.237  0.00  0.00    -0.271 OA
ENDROOT
BRANCH   5   4
ATOM      4  C   UNL     1      -3.950  -1.667  24.267  0.00  0.00    +0.114 C 
BRANCH   4   2
ATOM      1  O   UNL     1      -3.948  -2.994  24.795  0.00  0.00    -0.246 OA
ATOM      2  C   UNL     1      -4.019  -2.481  24.154  0.00  0.00    +0.365 C 
ATOM      3  O   UNL     1      -4.160  -2.782  23.398  0.00  0.00    -0.246 OA
ENDBRANCH   4   2
ENDBRANCH   5   4
BRANCH  10  11
ATOM     11  C   UNL     1      -3.705  -0.049  24.060  0.00  0.00    +0.019 C 
BRANCH  11  12
ATOM     12  C   UNL     1      -3.686   0.765  24.191  0.00  0.00    +0.072 C 
BRANCH  12  13
ATOM     13  N   UNL     1      -4.180   1.103  24.760  0.00  0.00    -0.272 NA
ATOM     14  C   UNL     1      -4.658   1.159  25.443  0.00  0.00    +0.074 C 
ATOM     15  C   UNL     1      -4.927   2.108  25.380  0.00  0.00    +0.039 C 
ATOM     16  C   UNL     1      -5.234   2.857  25.471  0.00  0.00    +0.011 C 
ATOM     17  C   UNL     1      -4.818   2.518  25.018  0.00  0.00    +0.054 C 
ATOM     18  C   UNL     1      -4.567   1.600  25.093  0.00  0.00    +0.078 C 
ATOM     19  C   UNL     1      -4.340   2.647  24.244  0.00  0.00    +0.041 A 
ATOM     20  C   UNL     1      -4.160   3.233  23.692  0.00  0.00    +0.013 A 
ATOM     21  C   UNL     1      -3.672   3.059  23.051  0.00  0.00    +0.006 A 
ATOM     22  C   UNL     1      -3.362   2.299  22.961  0.00  0.00    +0.061 A 
ATOM     23  C   UNL     1      -3.541   1.713  23.514  0.00  0.00    +0.261 A 
ATOM     24  O   UNL     1      -3.232   0.954  23.424  0.00  0.00    -0.267 OA
ATOM     25  N   UNL     1      -4.030   1.887  24.155  0.00  0.00    -0.299 N 
ATOM     26  C   UNL     1      -4.424   2.233  24.572  0.00  0.00    +0.110 C 
ENDBRANCH  12  13
ENDBRANCH  11  12
ENDBRANCH  10  11
BRANCH  27  29
ATOM     29  C   UNL     1      -0.886   0.468  24.857  0.00  0.00    +0.290 C 
BRANCH  29  30
ATOM     30  O   UNL     1      -0.438   0.891  25.406  0.00  0.00    -0.466 OA
BRANCH  30  31
ATOM     31  C   UNL     1      -0.471   1.715  25.419  0.00  0.00    +0.139 A 
ATOM     32  C   UNL     1      -0.835   2.103  26.050  0.00  0.00    +0.037 A 
ATOM     33  C   UNL     1      -0.868   2.928  26.064  0.00  0.00    +0.003 A 
ATOM     34  C   UNL     1      -0.537   3.363  25.446  0.00  0.00    +0.000 A 
ATOM     35  C   UNL     1      -0.174   2.976  24.816  0.00  0.00    +0.003 A 
ATOM     36  C   UNL     1      -0.141   2.151  24.802  0.00  0.00    +0.037 A 
ENDBRANCH  30  31
ENDBRANCH  29  30
ENDBRANCH  27  29
TORSDOF 8
ENDMDL
MODEL 2
REMARK VINA RESULT:     -12.8      1.639      3.995
REMARK  Name = 
REMARK  8 active torsions:
REMARK  status: ('A' for Active; 'I' for Inactive)
REMARK    1  A    between atoms: C_2  and  C_4
REMARK    2  A    between atoms: C_4  and  C_5
REMARK    3  A    between atoms: C_10  and  C_11
REMARK    4  A    between atoms: C_11  and  C_12
REMARK    5  A    between atoms: C_12  and  N_13
REMARK    6  A    between atoms: C_27  and  C_29
REMARK    7  A    between atoms: C_29  and  O_30
REMARK    8  A    between atoms: O_30  and  C_31
REMARK                            x       y       z     vdW  Elec       q    Type
REMARK                         _______ _______ _______ _____ _____    ______ ____
ROOT
ATOM      5  C   UNL     1      -4.620   2.015  25.019  0.00  0.00    +0.015 C 
ATOM      6  C   UNL     1      -4.291   2.762  24.908  0.00  0.00    +0.022 C 
ATOM      7  C   UNL     1      -3.535   2.837  24.586  0.00  0.00    +0.094 C 
ATOM      8  N   UNL     1      -3.109   2.163  24.375  0.00  0.00    -0.277 N 
ATOM      9  C   UNL     1      -3.438   1.415  24.486  0.00  0.00    +0.094 C 
ATOM     10  C   UNL     1      -4.194   1.341  24.808  0.00  0.00    +0.022 C 
ATOM     27  C   UNL     1      -2.353   2.237  24.053  0.00  0.00    +0.270 C 
ATOM     28  O   UNL     1      -2.023   2.986  23.942  0.00  0.00    -0.271 OA
ENDROOT
BRANCH   5   4
ATOM      4  C   UNL     1      -5.377   1.941  25.341  0.00  0.00    +0.114 C 
BRANCH   4   2
ATOM      1  O   UNL     1      -6.143   3.143  25.259  0.00  0.00    -0.246 OA
ATOM      2  C   UNL     1      -5.733   2.587  25.708  0.00  0.00    +0.365 C 
ATOM      3  O   UNL     1      -5.679   2.678  26.527  0.00  0.00    -0.246 OA
ENDBRANCH   4   2
ENDBRANCH   5   4
BRANCH  10  11
ATOM     11  C   UNL     1      -4.524   0.593  24.919  0.00  0.00    +0.019 C 
BRANCH  11  12
ATOM     12  C   UNL     1      -4.046  -0.078  24.887  0.00  0.00    +0.072 C 
BRANCH  12  13
ATOM     13  N   UNL     1      -4.151  -0.630  24.282  0.00  0.00    -0.272 NA
ATOM     14  C   UNL     1      -4.358  -0.935  23.532  0.00  0.00    +0.074 C 
ATOM     15  C   UNL     1      -4.116  -1.883  23.666  0.00  0.00    +0.039 C 
ATOM     16  C   UNL     1      -3.970  -2.683  23.616  0.00  0.00    +0.011 C 
ATOM     17  C   UNL     1      -3.903  -2.172  24.093  0.00  0.00    +0.054 C 
ATOM     18  C   UNL     1      -4.142  -1.259  23.948  0.00  0.00    +0.078 C 
ATOM     19  C   UNL     1      -3.623  -2.024  24.955  0.00  0.00    +0.041 A 
ATOM     20  C   UNL     1      -3.308  -2.424  25.604  0.00  0.00    +0.013 A 
ATOM     21  C   UNL     1      -3.142  -2.014  26.300  0.00  0.00    +0.006 A 
ATOM     22  C   UNL     1      -3.291  -1.204  26.347  0.00  0.00    +0.061 A 
ATOM     23  C   UNL     1      -3.606  -0.804  25.699  0.00  0.00    +0.261 A 
ATOM     24  O   UNL     1      -3.755   0.007  25.746  0.00  0.00    -0.267 OA
ATOM     25  N   UNL     1      -3.772  -1.214  25.003  0.00  0.00    -0.299 N 
ATOM     26  C   UNL     1      -3.826  -1.719  24.566  0.00  0.00    +0.110 C 
ENDBRANCH  12  13
ENDBRANCH  11  12
ENDBRANCH  10  11
BRANCH  27  29
ATOM     29  C   UNL     1      -1.926   1.563  23.842  0.00  0.00    +0.290 C 
BRANCH  29  30
ATOM     30  O   UNL     1      -1.116   1.523  23.994  0.00  0.00    -0.466 OA
BRANCH  30  31
ATOM     31  C   UNL     1      -0.735   0.792  24.010  0.00  0.00    +0.139 A 
ATOM     32  C   UNL     1      -0.601   0.381  23.307  0.00  0.00    +0.037 A 
ATOM     33  C   UNL     1      -0.219  -0.350  23.323  0.00  0.00    +0.003 A 
ATOM     34  C   UNL     1       0.029  -0.670  24.042  0.00  0.00    +0.000 A 
ATOM     35  C   UNL     1      -0.105  -0.260  24.744  0.00  0.00    +0.003 A 
ATOM     36  C   UNL     1      -0.487   0.471  24.729  0.00  0.00    +0.037 A 
ENDBRANCH  30  31
ENDBRANCH  29  30
ENDBRANCH  27  29
TORSDOF 8
ENDMDL
MODEL 3
REMARK VINA RESULT:     -12.5      1.561      4.428
REMARK  Name = 
REMARK  8 active torsions:
REMARK  status: ('A' for Active; 'I' for Inactive)
REMARK    1  A    between atoms: C_2  and  C_4
REMARK    2  A    between atoms: C_4  and  C_5
REMARK    3  A    between atoms: C_10  and  C_11
REMARK    4  A    between atoms: C_11  and  C_12
REMARK    5  A    between atoms: C_12  and  N_13
REMARK    6  A    between atoms: C_27  and  C_29
REMARK    7  A    between atoms: C_29  and  O_30
REMARK    8  A    between atoms: O_30  and  C_31
REMARK                            x       y       z     vdW  Elec       q    Type
REMARK                         _______ _______ _______ _____ _____    ______ ____
ROOT
ATOM      5  C   UNL     1      -1.048   1.913  24.453  0.00  0.00    +0.015 C 
ATOM      6  C   UNL     1      -0.991   2.731  24.535  0.00  0.00    +0.022 C 
ATOM      7  C   UNL     1      -1.676   3.190  24.585  0.00  0.00    +0.094 C 
ATOM      8  N   UNL     1      -2.417   2.828  24.553  0.00  0.00    -0.277 N 
ATOM      9  C   UNL     1      -2.474   2.010  24.471  0.00  0.00    +0.094 C 
ATOM     10  C   UNL     1      -1.789   1.552  24.421  0.00  0.00    +0.022 C 
ATOM     27  C   UNL     1      -3.101   3.286  24.603  0.00  0.00    +0.270 C 
ATOM     28  O   UNL     1      -3.045   4.106  24.685  0.00  0.00    -0.271 OA
ENDROOT
BRANCH   5   4
ATOM      4  C   UNL     1      -0.363   1.455  24.402  0.00  0.00    +0.114 C 
BRANCH   4   2
ATOM      1  O   UNL     1       0.650   1.988  25.257  0.00  0.00    -0.246 OA
ATOM      2  C   UNL     1       0.376   1.807  24.501  0.00  0.00    +0.365 C 
ATOM      3  O   UNL     1       0.842   1.979  23.841  0.00  0.00    -0.246 OA
ENDBRANCH   4   2
ENDBRANCH   5   4
BRANCH  10  11
ATOM     11  C   UNL     1      -1.845   0.733  24.338  0.00  0.00    +0.019 C 
BRANCH  11  12
ATOM     12  C   UNL     1      -2.502   0.333  24.634  0.00  0.00    +0.072 C 
BRANCH  12  13
ATOM     13  N   UNL     1      -3.023  -0.044  24.116  0.00  0.00    -0.272 NA
ATOM     14  C   UNL     1      -3.453  -0.194  23.415  0.00  0.00    +0.074 C 
ATOM     15  C   UNL     1      -3.945  -1.005  23.693  0.00  0.00    +0.039 C 
ATOM     16  C   UNL     1      -4.416  -1.665  23.766  0.00  0.00    +0.011 C 
ATOM     17  C   UNL     1      -3.963  -1.305  24.163  0.00  0.00    +0.054 C 
ATOM     18  C   UNL     1      -3.494  -0.523  23.879  0.00  0.00    +0.078 C 
ATOM     19  C   UNL     1      -3.583  -1.301  24.999  0.00  0.00    +0.041 A 
ATOM     20  C   UNL     1      -3.587  -1.725  25.707  0.00  0.00    +0.013 A 
ATOM     21  C   UNL     1      -3.116  -1.479  26.338  0.00  0.00    +0.006 A 
ATOM     22  C   UNL     1      -2.640  -0.810  26.261  0.00  0.00    +0.061 A 
ATOM     23  C   UNL     1      -2.636  -0.386  25.553  0.00  0.00    +0.261 A 
ATOM     24  O   UNL     1      -2.160   0.284  25.477  0.00  0.00    -0.267 OA
ATOM     25  N   UNL     1      -3.107  -0.632  24.923  0.00  0.00    -0.299 N 
ATOM     26  C   UNL     1      -3.543  -0.992  24.565  0.00  0.00    +0.110 C 
ENDBRANCH  12  13
ENDBRANCH  11  12
ENDBRANCH  10  11
BRANCH  27  29
ATOM     29  C   UNL     1      -3.843   2.925  24.571  0.00  0.00    +0.290 C 
BRANCH  29  30
ATOM     30  O   UNL     1      -4.456   3.199  25.051  0.00  0.00    -0.466 OA
BRANCH  30  31
ATOM     31  C   UNL     1      -5.091   2.705  25.230  0.00  0.00    +0.139 A 
ATOM     32  C   UNL     1      -5.252   2.509  26.016  0.00  0.00    +0.037 A 
ATOM     33  C   UNL     1      -5.888   2.015  26.196  0.00  0.00    +0.003 A 
ATOM     34  C   UNL     1      -6.362   1.717  25.591  0.00  0.00    +0.000 A 
ATOM     35  C   UNL     1      -6.203   1.913  24.806  0.00  0.00    +0.003 A 
ATOM     36  C   UNL     1      -5.566   2.407  24.626  0.00  0.00    +0.037 A 
ENDBRANCH  30  31
ENDBRANCH  29  30
ENDBRANCH  27  29
TORSDOF 8
ENDMDL
MODEL 4
REMARK VINA RESULT:     -11.8      1.654      3.813
REMARK  Name = 
REMARK  8 active torsions:
REMARK  status: ('A' for Active; 'I' for Inactive)
REMARK    1  A    between atoms: C_2  and  C_4
REMARK    2  A    between atoms: C_4  and  C_5
REMARK    3  A    between atoms: C_10  and  C_11
REMARK    4  A    between atoms: C_11  and  C_12
REMARK    5  A    between atoms: C_12  and  N_13
REMARK    6  A    between atoms: C_27  and  C_29
REMARK    7  A    between atoms: C_29  and  O_30
REMARK    8  A    between atoms: O_30  and  C_31
REMARK                            x       y       z     vdW  Elec       q    Type
REMARK                         _______ _______ _______ _____ _____    ______ ____
ROOT
ATOM      5  C   UNL     1       0.006   0.718  23.877  0.00  0.00    +0.015 C 
ATOM      6  C   UNL     1       0.474   1.395  23.853  0.00  0.00    +0.022 C 
ATOM      7  C   UNL     1       0.173   2.115  24.125  0.00  0.00    +0.094 C 
ATOM      8  N   UNL     1      -0.596   2.153  24.421  0.00  0.00    -0.277 N 
ATOM      9  C   UNL     1      -1.064   1.476  24.445  0.00  0.00    +0.094 C 
ATOM     10  C   UNL     1      -0.763   0.757  24.173  0.00  0.00    +0.022 C 
ATOM     27  C   UNL     1      -0.897   2.872  24.693  0.00  0.00    +0.270 C 
ATOM     28  O   UNL     1      -0.428   3.552  24.669  0.00  0.00    -0.271 OA
ENDROOT
BRANCH   5   4
ATOM      4  C   UNL     1       0.306  -0.001  23.605  0.00  0.00    +0.114 C 
BRANCH   4   2
ATOM      1  O   UNL     1       0.775  -0.046  22.256  0.00  0.00    -0.246 OA
ATOM      2  C   UNL     1       0.930  -0.009  23.064  0.00  0.00    +0.365 C 
ATOM      3  O   UNL     1       1.709   0.021  23.334  0.00  0.00    -0.246 OA
ENDBRANCH   4   2
ENDBRANCH   5   4
BRANCH  10  11
ATOM     11  C   UNL     1      -1.231   0.078  24.196  0.00  0.00    +0.019 C 
BRANCH  11  12
ATOM     12  C   UNL     1      -1.942   0.081  24.614  0.00  0.00    +0.072 C 
BRANCH  12  13
ATOM     13  N   UNL     1      -2.660   0.050  24.208  0.00  0.00    -0.272 NA
ATOM     14  C   UNL     1      -3.220   0.193  23.605  0.00  0.00    +0.074 C 
ATOM     15  C   UNL     1      -3.989  -0.309  23.972  0.00  0.00    +0.039 C 
ATOM     16  C   UNL     1      -4.701  -0.670  24.133  0.00  0.00    +0.011 C 
ATOM     17  C   UNL     1      -4.070  -0.610  24.434  0.00  0.00    +0.054 C 
ATOM     18  C   UNL     1      -3.337  -0.121  24.067  0.00  0.00    +0.078 C 
ATOM     19  C   UNL     1      -3.600  -0.870  25.179  0.00  0.00    +0.041 A 
ATOM     20  C   UNL     1      -3.689  -1.309  25.872  0.00  0.00    +0.013 A 
ATOM     21  C   UNL     1      -3.057  -1.380  26.399  0.00  0.00    +0.006 A 
ATOM     22  C   UNL     1      -2.337  -1.014  26.232  0.00  0.00    +0.061 A 
ATOM     23  C   UNL     1      -2.248  -0.575  25.539  0.00  0.00    +0.261 A 
ATOM     24  O   UNL     1      -1.528  -0.208  25.373  0.00  0.00    -0.267 OA
ATOM     25  N   UNL     1      -2.879  -0.503  25.013  0.00  0.00    -0.299 N 
ATOM     26  C   UNL     1      -3.489  -0.576  24.747  0.00  0.00    +0.110 C 
ENDBRANCH  12  13
ENDBRANCH  11  12
ENDBRANCH  10  11
BRANCH  27  29
ATOM     29  C   UNL     1      -1.666   2.912  24.989  0.00  0.00    +0.290 C 
BRANCH  29  30
ATOM     30  O   UNL     1      -2.108   3.602  24.897  0.00  0.00    -0.466 OA
BRANCH  30  31
ATOM     31  C   UNL     1      -2.924   3.589  25.014  0.00  0.00    +0.139 A 
ATOM     32  C   UNL     1      -3.434   3.650  24.368  0.00  0.00    +0.037 A 
ATOM     33  C   UNL     1      -4.251   3.636  24.484  0.00  0.00    +0.003 A 
ATOM     34  C   UNL     1      -4.557   3.561  25.246  0.00  0.00    +0.000 A 
ATOM     35  C   UNL     1      -4.049   3.500  25.892  0.00  0.00    +0.003 A 
ATOM     36  C   UNL     1      -3.231   3.514  25.775  0.00  0.00    +0.037 A 
ENDBRANCH  30  31
ENDBRANCH  29  30
ENDBRANCH  27  29
TORSDOF 8
ENDMDL
MODEL 5
REMARK VINA RESULT:     -11.6      1.620      5.132
REMARK  Name = 
REMARK  8 active torsions:
REMARK  status: ('A' for Active; 'I' for Inactive)
REMARK    1  A    between atoms: C_2  and  C_4
REMARK    2  A    between atoms: C_4  and  C_5
REMARK    3  A    between atoms: C_10  and  C_11
REMARK    4  A    between atoms: C_11  and  C_12
REMARK    5  A    between atoms: C_12  and  N_13
REMARK    6  A    between atoms: C_27  and  C_29
REMARK    7  A    between atoms: C_29  and  O_30
REMARK    8  A    between atoms: O_30  and  C_31
REMARK                            x       y       z     vdW  Elec       q    Type
REMARK                         _______ _______ _______ _____ _____    ______ ____
ROOT
ATOM      5  C   UNL     1      -1.778   3.398  25.187  0.00  0.00    +0.015 C 
ATOM      6  C   UNL     1      -2.473   3.826  25.068  0.00  0.00    +0.022 C 
ATOM      7  C   UNL     1      -3.190   3.428  24.968  0.00  0.00    +0.094 C 
ATOM      8  N   UNL     1      -3.210   2.604  24.988  0.00  0.00    -0.277 N 
ATOM      9  C   UNL     1      -2.515   2.177  25.107  0.00  0.00    +0.094 C 
ATOM     10  C   UNL     1      -1.798   2.574  25.207  0.00  0.00    +0.022 C 
ATOM     27  C   UNL     1      -3.926   2.207  24.888  0.00  0.00    +0.270 C 
ATOM     28  O   UNL     1      -4.622   2.634  24.769  0.00  0.00    -0.271 OA
ENDROOT
BRANCH   5   4
ATOM      4  C   UNL     1      -1.061   3.796  25.286  0.00  0.00    +0.114 C 
BRANCH   4   2
ATOM      1  O   UNL     1      -1.322   5.190  25.454  0.00  0.00    -0.246 OA
ATOM      2  C   UNL     1      -0.982   4.574  25.025  0.00  0.00    +0.365 C 
ATOM      3  O   UNL     1      -0.562   4.735  24.333  0.00  0.00    -0.246 OA
ENDBRANCH   4   2
ENDBRANCH   5   4
BRANCH  10  11
ATOM     11  C   UNL     1      -1.103   2.147  25.326  0.00  0.00    +0.019 C 
BRANCH  11  12
ATOM     12  C   UNL     1      -1.058   1.357  25.095  0.00  0.00    +0.072 C 
BRANCH  12  13
ATOM     13  N   UNL     1      -0.677   1.153  24.392  0.00  0.00    -0.272 NA
ATOM     14  C   UNL     1      -0.352   1.243  23.627  0.00  0.00    +0.074 C 
ATOM     15  C   UNL     1      -0.020   0.324  23.480  0.00  0.00    +0.039 C 
ATOM     16  C   UNL     1       0.305  -0.372  23.208  0.00  0.00    +0.011 C 
ATOM     17  C   UNL     1      -0.025  -0.143  23.784  0.00  0.00    +0.054 C 
ATOM     18  C   UNL     1      -0.341   0.749  23.912  0.00  0.00    +0.078 C 
ATOM     19  C   UNL     1      -0.320  -0.428  24.606  0.00  0.00    +0.041 A 
ATOM     20  C   UNL     1      -0.343  -1.103  25.080  0.00  0.00    +0.013 A 
ATOM     21  C   UNL     1      -0.694  -1.071  25.826  0.00  0.00    +0.006 A 
ATOM     22  C   UNL     1      -1.022  -0.365  26.098  0.00  0.00    +0.061 A 
ATOM     23  C   UNL     1      -1.000   0.310  25.624  0.00  0.00    +0.261 A 
ATOM     24  O   UNL     1      -1.328   1.017  25.896  0.00  0.00    -0.267 OA
ATOM     25  N   UNL     1      -0.648   0.278  24.878  0.00  0.00    -0.299 N 
ATOM     26  C   UNL     1      -0.332   0.036  24.341  0.00  0.00    +0.110 C 
ENDBRANCH  12  13
ENDBRANCH  11  12
ENDBRANCH  10  11
BRANCH  27  29
ATOM     29  C   UNL     1      -3.947   1.382  24.908  0.00  0.00    +0.290 C 
BRANCH  29  30
ATOM     30  O   UNL     1      -4.375   0.967  24.338  0.00  0.00    -0.466 OA
BRANCH  30  31
ATOM     31  C   UNL     1      -4.262   0.155  24.247  0.00  0.00    +0.139 A 
ATOM     32  C   UNL     1      -4.435  -0.358  24.870  0.00  0.00    +0.037 A 
ATOM     33  C   UNL     1      -4.322  -1.171  24.779  0.00  0.00    +0.003 A 
ATOM     34  C   UNL     1      -4.035  -1.469  24.066  0.00  0.00    +0.000 A 
ATOM     35  C   UNL     1      -3.862  -0.957  23.443  0.00  0.00    +0.003 A 
ATOM     36  C   UNL     1      -3.975  -0.144  23.534  0.00  0.00    +0.037 A 
ENDBRANCH  30  31
ENDBRANCH  29  30
ENDBRANCH  27  29
TORSDOF 8
ENDMDL
