MODEL 1
REMARK VINA RESULT:     -11.3      0.000      0.000
REMARK  Name = 
REMARK  4 active torsions:
REMARK  status: ('A' for Active; 'I' for Inactive)
REMARK    1  A    between atoms: C_4  and  C_15
REMARK    2  A    between atoms: N_5  and  C_6
REMARK    3  A    between atoms: C_6  and  C_7
REMARK    4  A    between atoms: C_17  and  C_20
REMARK                            x       y       z     vdW  Elec       q    Type
REMARK                         _______ _______ _______ _____ _____    ______ ____
ROOT
ATOM      1  O   UNL     1      -6.272   1.711  25.212  0.00  0.00    -0.222 OA
ATOM      2  C   UNL     1      -5.467   1.703  25.030  0.00  0.00    +0.170 C 
ATOM      3  C   UNL     1      -4.994   2.364  24.898  0.00  0.00    +0.060 C 
ATOM      4  C   UNL     1      -4.229   2.102  24.735  0.00  0.00    +0.140 C 
ATOM      5  N   UNL     1      -4.230   1.278  24.767  0.00  0.00    -0.260 NA
ATOM     14  C   UNL     1      -4.996   1.031  24.949  0.00  0.00    +0.106 C 
ENDROOT
BRANCH   4  15
ATOM     15  C   UNL     1      -3.577   2.580  24.570  0.00  0.00    +0.251 A 
ATOM     16  N   UNL     1      -3.123   2.990  25.123  0.00  0.00    -0.194 NA
ATOM     17  C   UNL     1      -2.530   3.395  24.718  0.00  0.00    +0.180 A 
ATOM     18  N   UNL     1      -2.618   3.235  23.913  0.00  0.00    -0.061 NA
ATOM     19  O   UNL     1      -3.264   2.732  23.822  0.00  0.00    -0.336 OA
BRANCH  17  20
ATOM     20  C   UNL     1      -1.952   3.875  25.057  0.00  0.00    +0.062 C 
ATOM     21  C   UNL     1      -1.708   4.614  25.332  0.00  0.00    +0.008 C 
ATOM     22  C   UNL     1      -1.194   3.970  25.369  0.00  0.00    +0.008 C 
ENDBRANCH  17  20
ENDBRANCH   4  15
BRANCH   5   6
ATOM      6  C   UNL     1      -3.580   0.786  24.638  0.00  0.00    +0.100 C 
BRANCH   6   7
ATOM      7  C   UNL     1      -3.665  -0.033  24.690  0.00  0.00    -0.006 A 
ATOM      8  C   UNL     1      -3.914  -0.464  24.033  0.00  0.00    -0.001 A 
ATOM      9  C   UNL     1      -3.999  -1.283  24.084  0.00  0.00    +0.029 A 
ATOM     10  C   UNL     1      -3.835  -1.671  24.794  0.00  0.00    +0.140 A 
ATOM     11  F   UNL     1      -3.919  -2.490  24.846  0.00  0.00    -0.204 F 
ATOM     12  C   UNL     1      -3.585  -1.239  25.451  0.00  0.00    +0.029 A 
ATOM     13  C   UNL     1      -3.500  -0.420  25.400  0.00  0.00    -0.001 A 
ENDBRANCH   6   7
ENDBRANCH   5   6
TORSDOF 4
ENDMDL
MODEL 2
REMARK VINA RESULT:     -10.9      1.609      2.531
REMARK  Name = 
REMARK  4 active torsions:
REMARK  status: ('A' for Active; 'I' for Inactive)
REMARK    1  A    between atoms: C_4  and  C_15
REMARK    2  A    between atoms: N_5  and  C_6
REMARK    3  A    between atoms: C_6  and  C_7
REMARK    4  A    between atoms: C_17  and  C_20
REMARK                            x       y       z     vdW  Elec       q    Type
REMARK                         _______ _______ _______ _____ _____    ______ ____
ROOT
ATOM      1  O   UNL     1      -0.829   0.463  24.213  0.00  0.00    -0.222 OA
ATOM      2  C   UNL     1      -1.644   0.563  24.304  0.00  0.00    +0.170 C 
ATOM      3  C   UNL     1      -2.052   1.276  24.252  0.00  0.00    +0.060 C 
ATOM      4  C   UNL     1      -2.852   1.121  24.379  0.00  0.00    +0.140 C 
ATOM      5  N   UNL     1      -2.938   0.312  24.509  0.00  0.00    -0.260 NA
ATOM     14  C   UNL     1      -2.190  -0.034  24.463  0.00  0.00    +0.106 C 
ENDROOT
BRANCH   4  15
ATOM     15  C   UNL     1      -3.461   1.679  24.376  0.00  0.00    +0.251 A 
ATOM     16  N   UNL     1      -3.809   2.021  25.040  0.00  0.00    -0.194 NA
ATOM     17  C   UNL     1      -4.391   2.546  24.782  0.00  0.00    +0.180 A 
ATOM     18  N   UNL     1      -4.403   2.527  23.958  0.00  0.00    -0.061 NA
ATOM     19  O   UNL     1      -3.829   1.992  23.707  0.00  0.00    -0.336 OA
BRANCH  17  20
ATOM     20  C   UNL     1      -4.876   3.007  25.264  0.00  0.00    +0.062 C 
ATOM     21  C   UNL     1      -5.499   3.069  25.802  0.00  0.00    +0.008 C 
ATOM     22  C   UNL     1      -5.094   3.746  25.562  0.00  0.00    +0.008 C 
ENDBRANCH  17  20
ENDBRANCH   4  15
BRANCH   5   6
ATOM      6  C   UNL     1      -3.646  -0.084  24.660  0.00  0.00    +0.100 C 
BRANCH   6   7
ATOM      7  C   UNL     1      -3.666  -0.909  24.664  0.00  0.00    -0.006 A 
ATOM      8  C   UNL     1      -3.452  -1.323  25.344  0.00  0.00    -0.001 A 
ATOM      9  C   UNL     1      -3.472  -2.148  25.348  0.00  0.00    +0.029 A 
ATOM     10  C   UNL     1      -3.706  -2.558  24.672  0.00  0.00    +0.140 A 
ATOM     11  F   UNL     1      -3.726  -3.383  24.675  0.00  0.00    -0.204 F 
ATOM     12  C   UNL     1      -3.920  -2.143  23.991  0.00  0.00    +0.029 A 
ATOM     13  C   UNL     1      -3.901  -1.318  23.987  0.00  0.00    -0.001 A 
ENDBRANCH   6   7
ENDBRANCH   5   6
TORSDOF 4
ENDMDL
MODEL 3
REMARK VINA RESULT:     -10.6      1.950      4.168
REMARK  Name = 
REMARK  4 active torsions:
REMARK  status: ('A' for Active; 'I' for Inactive)
REMARK    1  A    between atoms: C_4  and  C_15
REMARK    2  A    between atoms: N_5  and  C_6
REMARK    3  A    between atoms: C_6  and  C_7
REMARK    4  A    between atoms: C_17  and  C_20
REMARK                            x       y       z     vdW  Elec       q    Type
REMARK                         _______ _______ _______ _____ _____    ______ ____
ROOT
ATOM      1  O   UNL     1      -5.885   3.070  25.585  0.00  0.00    -0.222 OA
ATOM      2  C   UNL     1      -5.222   2.638  25.350  0.00  0.00    +0.170 C 
ATOM      3  C   UNL     1      -5.215   1.845  25.127  0.00  0.00    +0.060 C 
ATOM      4  C   UNL     1      -4.439   1.641  24.936  0.00  0.00    +0.140 C 
ATOM      5  N   UNL     1      -3.966   2.308  25.041  0.00  0.00    -0.260 NA
ATOM     14  C   UNL     1      -4.450   2.925  25.297  0.00  0.00    +0.106 C 
ENDROOT
BRANCH   4  15
ATOM     15  C   UNL     1      -4.180   0.898  24.684  0.00  0.00    +0.251 A 
ATOM     16  N   UNL     1      -4.094   0.228  25.156  0.00  0.00    -0.194 NA
ATOM     17  C   UNL     1      -3.824  -0.388  24.679  0.00  0.00    +0.180 A 
ATOM     18  N   UNL     1      -3.742  -0.098  23.911  0.00  0.00    -0.061 NA
ATOM     19  O   UNL     1      -3.963   0.697  23.914  0.00  0.00    -0.336 OA
BRANCH  17  20
ATOM     20  C   UNL     1      -3.663  -1.158  24.927  0.00  0.00    +0.062 C 
ATOM     21  C   UNL     1      -3.667  -1.971  24.782  0.00  0.00    +0.008 C 
ATOM     22  C   UNL     1      -3.379  -1.681  25.499  0.00  0.00    +0.008 C 
ENDBRANCH  17  20
ENDBRANCH   4  15
BRANCH   5   6
ATOM      6  C   UNL     1      -3.152   2.352  24.912  0.00  0.00    +0.100 C 
BRANCH   6   7
ATOM      7  C   UNL     1      -2.746   3.052  25.073  0.00  0.00    -0.006 A 
ATOM      8  C   UNL     1      -2.699   3.643  24.500  0.00  0.00    -0.001 A 
ATOM      9  C   UNL     1      -2.293   4.343  24.660  0.00  0.00    +0.029 A 
ATOM     10  C   UNL     1      -1.933   4.451  25.395  0.00  0.00    +0.140 A 
ATOM     11  F   UNL     1      -1.526   5.151  25.556  0.00  0.00    -0.204 F 
ATOM     12  C   UNL     1      -1.980   3.860  25.968  0.00  0.00    +0.029 A 
ATOM     13  C   UNL     1      -2.386   3.160  25.808  0.00  0.00    -0.001 A 
ENDBRANCH   6   7
ENDBRANCH   5   6
TORSDOF 4
ENDMDL
MODEL 4
REMARK VINA RESULT:     -10.5      2.084      2.895
REMARK  Name = 
REMARK  4 active torsions:
REMARK  status: ('A' for Active; 'I' for Inactive)
REMARK    1  A    between atoms: C_4  and  C_15
REMARK    2  A    between atoms: N_5  and  C_6
REMARK    3  A    between atoms: C_6  and  C_7
REMARK    4  A    between atoms: C_17  and  C_20
REMARK                            x       y       z     vdW  Elec       q    Type
REMARK                         _______ _______ _______ _____ _____    ______ ____
ROOT
ATOM      1  O   UNL     1       0.032  -0.527  23.841  0.00  0.00    -0.222 OA
ATOM      2  C   UNL     1      -0.470   0.005  24.223  0.00  0.00    +0.170 C 
ATOM      3  C   UNL     1      -0.258   0.748  24.512  0.00  0.00    +0.060 C 
ATOM      4  C   UNL     1      -0.928   1.089  24.851  0.00  0.00    +0.140 C 
ATOM      5  N   UNL     1      -1.553   0.558  24.772  0.00  0.00    -0.260 NA
ATOM     14  C   UNL     1      -1.270  -0.113  24.384  0.00  0.00    +0.106 C 
ENDROOT
BRANCH   4  15
ATOM     15  C   UNL     1      -0.965   1.833  25.208  0.00  0.00    +0.251 A 
ATOM     16  N   UNL     1      -1.113   2.548  24.825  0.00  0.00    -0.194 NA
ATOM     17  C   UNL     1      -1.101   3.148  25.390  0.00  0.00    +0.180 A 
ATOM     18  N   UNL     1      -0.945   2.804  26.123  0.00  0.00    -0.061 NA
ATOM     19  O   UNL     1      -0.861   1.991  26.011  0.00  0.00    -0.336 OA
BRANCH  17  20
ATOM     20  C   UNL     1      -1.222   3.951  25.247  0.00  0.00    +0.062 C 
ATOM     21  C   UNL     1      -1.703   4.621  25.294  0.00  0.00    +0.008 C 
ATOM     22  C   UNL     1      -0.953   4.674  24.953  0.00  0.00    +0.008 C 
ENDBRANCH  17  20
ENDBRANCH   4  15
BRANCH   5   6
ATOM      6  C   UNL     1      -2.326   0.676  25.035  0.00  0.00    +0.100 C 
BRANCH   6   7
ATOM      7  C   UNL     1      -2.917   0.135  24.836  0.00  0.00    -0.006 A 
ATOM      8  C   UNL     1      -3.071  -0.508  25.328  0.00  0.00    -0.001 A 
ATOM      9  C   UNL     1      -3.661  -1.049  25.129  0.00  0.00    +0.029 A 
ATOM     10  C   UNL     1      -4.099  -0.946  24.438  0.00  0.00    +0.140 A 
ATOM     11  F   UNL     1      -4.689  -1.486  24.238  0.00  0.00    -0.204 F 
ATOM     12  C   UNL     1      -3.945  -0.302  23.945  0.00  0.00    +0.029 A 
ATOM     13  C   UNL     1      -3.354   0.239  24.144  0.00  0.00    -0.001 A 
ENDBRANCH   6   7
ENDBRANCH   5   6
TORSDOF 4
ENDMDL
MODEL 5
REMARK VINA RESULT:     -10.4      2.182      4.515
REMARK  Name = 
REMARK  4 active torsions:
REMARK  status: ('A' for Active; 'I' for Inactive)
REMARK    1  A    between atoms: C_4  and  C_15
REMARK    2  A    between atoms: N_5  and  C_6
REMARK    3  A    between atoms: C_6  and  C_7
REMARK    4  A    between atoms: C_17  and  C_20
REMARK                            x       y       z     vdW  Elec       q    Type
REMARK                         _______ _______ _______ _____ _____    ______ ____
ROOT
ATOM      1  O   UNL     1      -2.539   2.189  21.973  0.00  0.00    -0.222 OA
ATOM      2  C   UNL     1      -2.677   2.002  22.765  0.00  0.00    +0.170 C 
ATOM      3  C   UNL     1      -3.073   1.335  23.043  0.00  0.00    +0.060 C 
ATOM      4  C   UNL     1      -3.084   1.370  23.867  0.00  0.00    +0.140 C 
ATOM      5  N   UNL     1      -2.694   2.059  24.098  0.00  0.00    -0.260 NA
ATOM     14  C   UNL     1      -2.442   2.450  23.417  0.00  0.00    +0.106 C 
ENDROOT
BRANCH   4  15
ATOM     15  C   UNL     1      -3.425   0.813  24.372  0.00  0.00    +0.251 A 
ATOM     16  N   UNL     1      -3.084   0.102  24.610  0.00  0.00    -0.194 NA
ATOM     17  C   UNL     1      -3.615  -0.280  25.112  0.00  0.00    +0.180 A 
ATOM     18  N   UNL     1      -4.284   0.196  25.185  0.00  0.00    -0.061 NA
ATOM     19  O   UNL     1      -4.167   0.871  24.727  0.00  0.00    -0.336 OA
BRANCH  17  20
ATOM     20  C   UNL     1      -3.497  -1.011  25.478  0.00  0.00    +0.062 C 
ATOM     21  C   UNL     1      -3.262  -1.451  26.136  0.00  0.00    +0.008 C 
ATOM     22  C   UNL     1      -3.527  -1.835  25.455  0.00  0.00    +0.008 C 
ENDBRANCH  17  20
ENDBRANCH   4  15
BRANCH   5   6
ATOM      6  C   UNL     1      -2.576   2.313  24.874  0.00  0.00    +0.100 C 
BRANCH   6   7
ATOM      7  C   UNL     1      -2.230   3.048  25.020  0.00  0.00    -0.006 A 
ATOM      8  C   UNL     1      -1.411   3.114  25.087  0.00  0.00    -0.001 A 
ATOM      9  C   UNL     1      -1.066   3.849  25.233  0.00  0.00    +0.029 A 
ATOM     10  C   UNL     1      -1.541   4.519  25.313  0.00  0.00    +0.140 A 
ATOM     11  F   UNL     1      -1.197   5.254  25.459  0.00  0.00    -0.204 F 
ATOM     12  C   UNL     1      -2.361   4.453  25.246  0.00  0.00    +0.029 A 
ATOM     13  C   UNL     1      -2.706   3.718  25.100  0.00  0.00    -0.001 A 
ENDBRANCH   6   7
ENDBRANCH   5   6
TORSDOF 4
ENDMDL
MODEL 6
REMARK VINA RESULT:     -10.4      2.366      4.638
REMARK  Name = 
REMARK  4 active torsions:
REMARK  status: ('A' for Active; 'I' for Inactive)
REMARK    1  A    between atoms: C_4  and  C_15
REMARK    2  A    between atoms: N_5  and  C_6
REMARK    3  A    between atoms: C_6  and  C_7
REMARK    4  A    between atoms: C_17  and  C_20
REMARK                            x       y       z     vdW  Elec       q    Type
REMARK                         _______ _______ _______ _____ _____    ______ ____
ROOT
ATOM      1  O   UNL     1      -0.488   1.396  25.328  0.00  0.00    -0.222 OA
ATOM      2  C   UNL     1      -1.249   1.096  25.219  0.00  0.00    +0.170 C 
ATOM      3  C   UNL     1      -1.484   0.316  25.343  0.00  0.00    +0.060 C 
ATOM      4  C   UNL     1      -2.288   0.262  25.168  0.00  0.00    +0.140 C 
ATOM      5  N   UNL     1      -2.550   1.008  24.937  0.00  0.00    -0.260 NA
ATOM     14  C   UNL     1      -1.907   1.525  24.969  0.00  0.00    +0.106 C 
ENDROOT
BRANCH   4  15
ATOM     15  C   UNL     1      -2.750  -0.421  25.216  0.00  0.00    +0.251 A 
ATOM     16  N   UNL     1      -2.873  -0.967  24.611  0.00  0.00    -0.194 NA
ATOM     17  C   UNL     1      -3.368  -1.560  24.899  0.00  0.00    +0.180 A 
ATOM     18  N   UNL     1      -3.552  -1.380  25.682  0.00  0.00    -0.061 NA
ATOM     19  O   UNL     1      -3.170  -0.676  25.878  0.00  0.00    -0.336 OA
BRANCH  17  20
ATOM     20  C   UNL     1      -3.634  -2.218  24.477  0.00  0.00    +0.062 C 
ATOM     21  C   UNL     1      -3.575  -3.021  24.294  0.00  0.00    +0.008 C 
ATOM     22  C   UNL     1      -4.151  -2.555  23.930  0.00  0.00    +0.008 C 
ENDBRANCH  17  20
ENDBRANCH   4  15
BRANCH   5   6
ATOM      6  C   UNL     1      -3.319   1.205  24.713  0.00  0.00    +0.100 C 
BRANCH   6   7
ATOM      7  C   UNL     1      -3.507   1.986  24.522  0.00  0.00    -0.006 A 
ATOM      8  C   UNL     1      -3.444   2.247  23.743  0.00  0.00    -0.001 A 
ATOM      9  C   UNL     1      -3.632   3.027  23.552  0.00  0.00    +0.029 A 
ATOM     10  C   UNL     1      -3.883   3.547  24.142  0.00  0.00    +0.140 A 
ATOM     11  F   UNL     1      -4.070   4.327  23.952  0.00  0.00    -0.204 F 
ATOM     12  C   UNL     1      -3.945   3.286  24.922  0.00  0.00    +0.029 A 
ATOM     13  C   UNL     1      -3.758   2.505  25.113  0.00  0.00    -0.001 A 
ENDBRANCH   6   7
ENDBRANCH   5   6
TORSDOF 4
ENDMDL
