MODEL 1
REMARK VINA RESULT:     -10.7      0.000      0.000
REMARK  Name = 
REMARK  6 active torsions:
REMARK  status: ('A' for Active; 'I' for Inactive)
REMARK    1  A    between atoms: C_2  and  C_4
REMARK    2  A    between atoms: C_4  and  N_5
REMARK    3  A    between atoms: N_5  and  C_6
REMARK    4  A    between atoms: C_6  and  C_7
REMARK    5  A    between atoms: C_7  and  C_8
REMARK    6  A    between atoms: C_11  and  C_13
REMARK                            x       y       z     vdW  Elec       q    Type
REMARK                         _______ _______ _______ _____ _____    ______ ____
ROOT
ATOM      8  C   UNL     1      -4.032   1.460  24.671  0.00  0.00    +0.102 A 
ATOM      9  N   UNL     1      -4.633   1.299  25.212  0.00  0.00    -0.081 NA
ATOM     10  O   UNL     1      -4.683   0.480  25.303  0.00  0.00    -0.354 OA
ATOM     11  C   UNL     1      -4.113   0.134  24.817  0.00  0.00    +0.177 A 
ATOM     12  C   UNL     1      -3.711   0.740  24.426  0.00  0.00    +0.058 A 
ENDROOT
BRANCH  11  13
ATOM     13  C   UNL     1      -3.969  -0.674  24.735  0.00  0.00    +0.037 A 
ATOM     14  C   UNL     1      -3.532  -1.074  25.309  0.00  0.00    +0.005 A 
ATOM     15  C   UNL     1      -3.389  -1.883  25.228  0.00  0.00    +0.030 A 
ATOM     16  C   UNL     1      -3.683  -2.290  24.573  0.00  0.00    +0.140 A 
ATOM     17  F   UNL     1      -3.539  -3.099  24.492  0.00  0.00    -0.204 F 
ATOM     18  C   UNL     1      -4.120  -1.889  24.000  0.00  0.00    +0.030 A 
ATOM     19  C   UNL     1      -4.263  -1.081  24.082  0.00  0.00    +0.005 A 
ENDBRANCH  11  13
BRANCH   8   7
ATOM      7  C   UNL     1      -3.794   2.207  24.418  0.00  0.00    +0.070 C 
BRANCH   7   6
ATOM      6  C   UNL     1      -3.896   2.861  24.911  0.00  0.00    +0.119 C 
ATOM     20  C   UNL     1      -3.998   3.515  25.404  0.00  0.00    +0.161 C 
ATOM     21  O   UNL     1      -4.793   3.557  25.184  0.00  0.00    -0.351 OA
ATOM     22  C   UNL     1      -4.690   2.903  24.691  0.00  0.00    +0.161 C 
BRANCH   6   5
ATOM      5  N   UNL     1      -3.102   2.819  25.131  0.00  0.00    -0.215 NA
BRANCH   5   4
ATOM      4  C   UNL     1      -2.647   3.505  25.169  0.00  0.00    +0.089 C 
BRANCH   4   2
ATOM      1  C   UNL     1      -1.563   3.234  26.060  0.00  0.00    +0.001 C 
ATOM      2  C   UNL     1      -1.836   3.455  25.314  0.00  0.00    +0.017 C 
ATOM      3  C   UNL     1      -1.299   3.627  24.711  0.00  0.00    +0.001 C 
ENDBRANCH   4   2
ENDBRANCH   5   4
ENDBRANCH   6   5
ENDBRANCH   7   6
ENDBRANCH   8   7
TORSDOF 6
ENDMDL
MODEL 2
REMARK VINA RESULT:     -10.6      0.822      1.117
REMARK  Name = 
REMARK  6 active torsions:
REMARK  status: ('A' for Active; 'I' for Inactive)
REMARK    1  A    between atoms: C_2  and  C_4
REMARK    2  A    between atoms: C_4  and  N_5
REMARK    3  A    between atoms: N_5  and  C_6
REMARK    4  A    between atoms: C_6  and  C_7
REMARK    5  A    between atoms: C_7  and  C_8
REMARK    6  A    between atoms: C_11  and  C_13
REMARK                            x       y       z     vdW  Elec       q    Type
REMARK                         _______ _______ _______ _____ _____    ______ ____
ROOT
ATOM      8  C   UNL     1      -3.446   1.292  24.467  0.00  0.00    +0.102 A 
ATOM      9  N   UNL     1      -4.224   1.280  24.739  0.00  0.00    -0.081 NA
ATOM     10  O   UNL     1      -4.463   0.492  24.797  0.00  0.00    -0.354 OA
ATOM     11  C   UNL     1      -3.832   0.016  24.559  0.00  0.00    +0.177 A 
ATOM     12  C   UNL     1      -3.204   0.510  24.355  0.00  0.00    +0.058 A 
ENDROOT
BRANCH  11  13
ATOM     13  C   UNL     1      -3.830  -0.808  24.530  0.00  0.00    +0.037 A 
ATOM     14  C   UNL     1      -4.260  -1.201  23.946  0.00  0.00    +0.005 A 
ATOM     15  C   UNL     1      -4.257  -2.025  23.917  0.00  0.00    +0.030 A 
ATOM     16  C   UNL     1      -3.826  -2.456  24.472  0.00  0.00    +0.140 A 
ATOM     17  F   UNL     1      -3.823  -3.281  24.444  0.00  0.00    -0.204 F 
ATOM     18  C   UNL     1      -3.396  -2.063  25.056  0.00  0.00    +0.030 A 
ATOM     19  C   UNL     1      -3.399  -1.239  25.085  0.00  0.00    +0.005 A 
ENDBRANCH  11  13
BRANCH   8   7
ATOM      7  C   UNL     1      -2.990   1.965  24.330  0.00  0.00    +0.070 C 
BRANCH   7   6
ATOM      6  C   UNL     1      -3.356   2.676  24.125  0.00  0.00    +0.119 C 
ATOM     20  C   UNL     1      -3.721   3.386  23.920  0.00  0.00    +0.161 C 
ATOM     21  O   UNL     1      -3.923   3.071  23.184  0.00  0.00    -0.351 OA
ATOM     22  C   UNL     1      -3.557   2.360  23.389  0.00  0.00    +0.161 C 
BRANCH   6   5
ATOM      5  N   UNL     1      -3.154   2.991  24.860  0.00  0.00    -0.215 NA
BRANCH   5   4
ATOM      4  C   UNL     1      -2.765   3.716  24.906  0.00  0.00    +0.089 C 
BRANCH   4   2
ATOM      1  C   UNL     1      -2.946   4.171  26.249  0.00  0.00    +0.001 C 
ATOM      2  C   UNL     1      -2.447   3.970  25.624  0.00  0.00    +0.017 C 
ATOM      3  C   UNL     1      -1.628   4.021  25.715  0.00  0.00    +0.001 C 
ENDBRANCH   4   2
ENDBRANCH   5   4
ENDBRANCH   6   5
ENDBRANCH   7   6
ENDBRANCH   8   7
TORSDOF 6
ENDMDL
MODEL 3
REMARK VINA RESULT:     -10.2      2.195      4.628
REMARK  Name = 
REMARK  6 active torsions:
REMARK  status: ('A' for Active; 'I' for Inactive)
REMARK    1  A    between atoms: C_2  and  C_4
REMARK    2  A    between atoms: C_4  and  N_5
REMARK    3  A    between atoms: N_5  and  C_6
REMARK    4  A    between atoms: C_6  and  C_7
REMARK    5  A    between atoms: C_7  and  C_8
REMARK    6  A    between atoms: C_11  and  C_13
REMARK                            x       y       z     vdW  Elec       q    Type
REMARK                         _______ _______ _______ _____ _____    ______ ____
ROOT
ATOM      8  C   UNL     1      -3.974   2.780  24.937  0.00  0.00    +0.102 A 
ATOM      9  N   UNL     1      -4.115   3.121  25.675  0.00  0.00    -0.081 NA
ATOM     10  O   UNL     1      -3.494   3.639  25.840  0.00  0.00    -0.354 OA
ATOM     11  C   UNL     1      -2.969   3.619  25.203  0.00  0.00    +0.177 A 
ATOM     12  C   UNL     1      -3.266   3.088  24.646  0.00  0.00    +0.058 A 
ENDROOT
BRANCH  11  13
ATOM     13  C   UNL     1      -2.270   4.052  25.136  0.00  0.00    +0.037 A 
ATOM     14  C   UNL     1      -1.553   3.661  25.020  0.00  0.00    +0.005 A 
ATOM     15  C   UNL     1      -0.854   4.095  24.952  0.00  0.00    +0.030 A 
ATOM     16  C   UNL     1      -0.873   4.918  25.001  0.00  0.00    +0.140 A 
ATOM     17  F   UNL     1      -0.174   5.352  24.934  0.00  0.00    -0.204 F 
ATOM     18  C   UNL     1      -1.590   5.308  25.117  0.00  0.00    +0.030 A 
ATOM     19  C   UNL     1      -2.289   4.875  25.185  0.00  0.00    +0.005 A 
ENDBRANCH  11  13
BRANCH   8   7
ATOM      7  C   UNL     1      -4.456   2.229  24.557  0.00  0.00    +0.070 C 
BRANCH   7   6
ATOM      6  C   UNL     1      -4.978   1.765  24.998  0.00  0.00    +0.119 C 
ATOM     20  C   UNL     1      -5.499   1.302  25.437  0.00  0.00    +0.161 C 
ATOM     21  O   UNL     1      -6.044   1.921  25.446  0.00  0.00    -0.351 OA
ATOM     22  C   UNL     1      -5.522   2.386  25.006  0.00  0.00    +0.161 C 
BRANCH   6   5
ATOM      5  N   UNL     1      -4.433   1.145  24.989  0.00  0.00    -0.215 NA
BRANCH   5   4
ATOM      4  C   UNL     1      -4.687   0.374  24.846  0.00  0.00    +0.089 C 
BRANCH   4   2
ATOM      1  C   UNL     1      -3.801  -0.566  25.458  0.00  0.00    +0.001 C 
ATOM      2  C   UNL     1      -4.136  -0.237  24.780  0.00  0.00    +0.017 C 
ATOM      3  C   UNL     1      -3.922  -0.518  24.034  0.00  0.00    +0.001 C 
ENDBRANCH   4   2
ENDBRANCH   5   4
ENDBRANCH   6   5
ENDBRANCH   7   6
ENDBRANCH   8   7
TORSDOF 6
ENDMDL
MODEL 4
REMARK VINA RESULT:     -10.1      2.868      5.261
REMARK  Name = 
REMARK  6 active torsions:
REMARK  status: ('A' for Active; 'I' for Inactive)
REMARK    1  A    between atoms: C_2  and  C_4
REMARK    2  A    between atoms: C_4  and  N_5
REMARK    3  A    between atoms: N_5  and  C_6
REMARK    4  A    between atoms: C_6  and  C_7
REMARK    5  A    between atoms: C_7  and  C_8
REMARK    6  A    between atoms: C_11  and  C_13
REMARK                            x       y       z     vdW  Elec       q    Type
REMARK                         _______ _______ _______ _____ _____    ______ ____
ROOT
ATOM      8  C   UNL     1      -1.347   1.124  24.908  0.00  0.00    +0.102 A 
ATOM      9  N   UNL     1      -0.927   1.162  25.617  0.00  0.00    -0.081 NA
ATOM     10  O   UNL     1      -0.868   1.955  25.837  0.00  0.00    -0.354 OA
ATOM     11  C   UNL     1      -1.252   2.408  25.264  0.00  0.00    +0.177 A 
ATOM     12  C   UNL     1      -1.548   1.894  24.690  0.00  0.00    +0.058 A 
ENDROOT
BRANCH  11  13
ATOM     13  C   UNL     1      -1.327   3.229  25.264  0.00  0.00    +0.037 A 
ATOM     14  C   UNL     1      -2.001   3.581  25.586  0.00  0.00    +0.005 A 
ATOM     15  C   UNL     1      -2.076   4.402  25.586  0.00  0.00    +0.030 A 
ATOM     16  C   UNL     1      -1.478   4.872  25.265  0.00  0.00    +0.140 A 
ATOM     17  F   UNL     1      -1.553   5.693  25.266  0.00  0.00    -0.204 F 
ATOM     18  C   UNL     1      -0.805   4.520  24.944  0.00  0.00    +0.030 A 
ATOM     19  C   UNL     1      -0.730   3.698  24.944  0.00  0.00    +0.005 A 
ENDBRANCH  11  13
BRANCH   8   7
ATOM      7  C   UNL     1      -1.534   0.438  24.491  0.00  0.00    +0.070 C 
BRANCH   7   6
ATOM      6  C   UNL     1      -1.320  -0.300  24.793  0.00  0.00    +0.119 C 
ATOM     20  C   UNL     1      -1.105  -1.037  25.095  0.00  0.00    +0.161 C 
ATOM     21  O   UNL     1      -0.331  -0.919  24.834  0.00  0.00    -0.351 OA
ATOM     22  C   UNL     1      -0.546  -0.181  24.532  0.00  0.00    +0.161 C 
BRANCH   6   5
ATOM      5  N   UNL     1      -2.094  -0.418  25.053  0.00  0.00    -0.215 NA
BRANCH   5   4
ATOM      4  C   UNL     1      -2.492  -1.114  24.864  0.00  0.00    +0.089 C 
BRANCH   4   2
ATOM      1  C   UNL     1      -3.859  -1.209  24.458  0.00  0.00    +0.001 C 
ATOM      2  C   UNL     1      -3.290  -1.200  25.056  0.00  0.00    +0.017 C 
ATOM      3  C   UNL     1      -3.517  -1.276  25.845  0.00  0.00    +0.001 C 
ENDBRANCH   4   2
ENDBRANCH   5   4
ENDBRANCH   6   5
ENDBRANCH   7   6
ENDBRANCH   8   7
TORSDOF 6
ENDMDL
