REMARK  Name = 
REMARK  7 active torsions:
REMARK  status: ('A' for Active; 'I' for Inactive)
REMARK    1  A    between atoms: C_2  and  O_12
REMARK    2  A    between atoms: N_3  and  C_4
REMARK    3  A    between atoms: C_6  and  C_10
REMARK    4  A    between atoms: O_12  and  C_13
REMARK    5  A    between atoms: C_17  and  N_21
REMARK    6  A    between atoms: C_25  and  C_26
REMARK    7  A    between atoms: C_29  and  C_32
REMARK                            x       y       z     vdW  Elec       q    Type
REMARK                         _______ _______ _______ _____ _____    ______ ____
ROOT
ATOM     13  C   UNL     1       1.270  -0.922   0.000  0.00  0.00    +0.229 C 
ATOM     14  C   UNL     1       0.785  -0.255   0.000  0.00  0.00    +0.188 C 
ATOM     15  O   UNL     1       1.270   0.412   0.000  0.00  0.00    -0.348 OA
ATOM     16  C   UNL     1       2.054   0.158   0.000  0.00  0.00    +0.171 C 
ATOM     17  C   UNL     1       2.839   0.412   0.000  0.00  0.00    +0.167 C 
ATOM     18  C   UNL     1       3.324  -0.255   0.000  0.00  0.00    +0.169 C 
ATOM     19  O   UNL     1       2.839  -0.922   0.000  0.00  0.00    -0.348 OA
ATOM     20  C   UNL     1       2.054  -0.667   0.000  0.00  0.00    +0.187 C 
ENDROOT
BRANCH  17  21
ATOM     21  N   UNL     1       3.094   1.197   0.000  0.00  0.00    -0.210 N 
ATOM     22  N   UNL     1       2.609   1.865   0.000  0.00  0.00    -0.043 NA
ATOM     23  N   UNL     1       3.094   2.532   0.000  0.00  0.00    -0.023 NA
ATOM     24  N   UNL     1       3.878   2.277   0.000  0.00  0.00    -0.108 NA
ATOM     25  C   UNL     1       3.878   1.452   0.000  0.00  0.00    +0.184 A 
BRANCH  25  26
ATOM     26  C   UNL     1       4.546   0.967   0.000  0.00  0.00    +0.037 A 
ATOM     27  C   UNL     1       5.300   1.303   0.000  0.00  0.00    +0.003 A 
ATOM     28  C   UNL     1       5.967   0.818   0.000  0.00  0.00    +0.000 A 
ATOM     29  C   UNL     1       5.881  -0.003   0.000  0.00  0.00    +0.000 A 
ATOM     30  C   UNL     1       5.127  -0.338   0.000  0.00  0.00    +0.000 A 
ATOM     31  C   UNL     1       4.460   0.147   0.000  0.00  0.00    +0.003 A 
BRANCH  29  32
ATOM     32  C   UNL     1       6.548  -0.488   0.000  0.00  0.00    +0.000 A 
ATOM     33  C   UNL     1       7.302  -0.152   0.000  0.00  0.00    +0.000 A 
ATOM     34  C   UNL     1       7.969  -0.637   0.000  0.00  0.00    +0.000 A 
ATOM     35  C   UNL     1       7.883  -1.458   0.000  0.00  0.00    +0.000 A 
ATOM     36  C   UNL     1       7.129  -1.793   0.000  0.00  0.00    +0.000 A 
ATOM     37  C   UNL     1       6.462  -1.308   0.000  0.00  0.00    +0.000 A 
ENDBRANCH  29  32
ENDBRANCH  25  26
ENDBRANCH  17  21
BRANCH  13  12
ATOM     12  O   UNL     1       1.015  -1.707   0.000  0.00  0.00    -0.432 OA
BRANCH  12   2
ATOM      1  O   UNL     1      -0.344  -1.265   0.000  0.00  0.00    -0.224 OA
ATOM      2  C   UNL     1       0.208  -1.879   0.000  0.00  0.00    +0.425 C 
ATOM      3  N   UNL     1      -0.047  -2.663   0.000  0.00  0.00    -0.142 NA
BRANCH   3   4
ATOM      4  C   UNL     1      -0.854  -2.835   0.000  0.00  0.00    +0.077 A 
ATOM      5  C   UNL     1      -1.109  -3.619   0.000  0.00  0.00    +0.027 A 
ATOM      6  C   UNL     1      -1.916  -3.791   0.000  0.00  0.00    +0.070 A 
ATOM      7  C   UNL     1      -2.468  -3.178   0.000  0.00  0.00    +0.010 A 
ATOM      8  C   UNL     1      -2.213  -2.393   0.000  0.00  0.00    +0.002 A 
ATOM      9  C   UNL     1      -1.406  -2.222   0.000  0.00  0.00    +0.017 A 
BRANCH   6  10
ATOM     10  C   UNL     1      -2.171  -4.575   0.000  0.00  0.00    +0.100 C 
ATOM     11  N   UNL     1      -2.426  -5.360   0.000  0.00  0.00    -0.191 NA
ENDBRANCH   6  10
ENDBRANCH   3   4
ENDBRANCH  12   2
ENDBRANCH  13  12
TORSDOF 7
