MODEL 1
REMARK VINA RESULT:      -7.9      0.000      0.000
REMARK  Name = 
REMARK  8 active torsions:
REMARK  status: ('A' for Active; 'I' for Inactive)
REMARK    1  A    between atoms: O_2  and  C_3
REMARK    2  A    between atoms: C_3  and  C_4
REMARK    3  A    between atoms: C_4  and  O_5
REMARK    4  A    between atoms: O_5  and  C_6
REMARK    5  A    between atoms: C_9  and  C_12
REMARK    6  A    between atoms: C_15  and  C_17
REMARK    7  A    between atoms: N_21  and  C_22
REMARK    8  A    between atoms: C_22  and  C_23
REMARK                            x       y       z     vdW  Elec       q    Type
REMARK                         _______ _______ _______ _____ _____    ______ ____
ROOT
ATOM     12  C   UNL     1      -1.201   0.214  24.550  0.00  0.00    +0.205 A 
ATOM     13  N   UNL     1      -1.251   0.182  25.372  0.00  0.00    -0.056 NA
ATOM     14  O   UNL     1      -2.045   0.255  25.584  0.00  0.00    -0.336 OA
ATOM     15  C   UNL     1      -2.487   0.333  24.891  0.00  0.00    +0.251 A 
ATOM     16  N   UNL     1      -1.966   0.307  24.252  0.00  0.00    -0.190 NA
ENDROOT
BRANCH  12   9
ATOM      6  C   UNL     1       0.873   0.059  23.208  0.00  0.00    +0.225 A 
ATOM      7  C   UNL     1       0.517  -0.626  23.498  0.00  0.00    +0.058 A 
ATOM      8  C   UNL     1      -0.174  -0.574  23.945  0.00  0.00    +0.010 A 
ATOM      9  C   UNL     1      -0.510   0.162  24.103  0.00  0.00    +0.058 A 
ATOM     10  C   UNL     1      -0.153   0.848  23.812  0.00  0.00    +0.105 A 
ATOM     11  N   UNL     1       0.538   0.796  23.365  0.00  0.00    -0.210 NA
BRANCH   6   5
ATOM      5  O   UNL     1       1.564   0.007  22.761  0.00  0.00    -0.457 OA
BRANCH   5   4
ATOM      4  C   UNL     1       2.252   0.384  23.019  0.00  0.00    +0.239 C 
BRANCH   4   3
ATOM      3  C   UNL     1       2.959   0.280  22.607  0.00  0.00    +0.189 C 
BRANCH   3   2
ATOM      1  C   UNL     1       4.355   0.546  22.754  0.00  0.00    +0.174 C 
ATOM      2  O   UNL     1       3.577   0.817  22.708  0.00  0.00    -0.347 OA
ENDBRANCH   3   2
ENDBRANCH   4   3
ENDBRANCH   5   4
ENDBRANCH   6   5
ENDBRANCH  12   9
BRANCH  15  17
ATOM     17  C   UNL     1      -3.306   0.420  24.846  0.00  0.00    +0.138 C 
ATOM     18  C   UNL     1      -3.854  -0.190  24.767  0.00  0.00    +0.027 C 
ATOM     19  C   UNL     1      -4.608   0.146  24.743  0.00  0.00    +0.019 C 
ATOM     20  C   UNL     1      -4.524   0.964  24.808  0.00  0.00    +0.073 C 
ATOM     21  N   UNL     1      -3.720   1.133  24.871  0.00  0.00    -0.260 NA
BRANCH  21  22
ATOM     22  C   UNL     1      -3.388   1.885  24.947  0.00  0.00    +0.139 C 
BRANCH  22  23
ATOM     23  C   UNL     1      -3.874   2.550  24.974  0.00  0.00    +0.155 A 
ATOM     24  N   UNL     1      -4.102   3.010  24.329  0.00  0.00    -0.226 NA
ATOM     25  C   UNL     1      -4.587   3.617  24.606  0.00  0.00    +0.121 A 
ATOM     26  C   UNL     1      -4.658   3.532  25.424  0.00  0.00    +0.121 A 
ATOM     27  N   UNL     1      -4.217   2.873  25.651  0.00  0.00    -0.226 NA
ENDBRANCH  22  23
ENDBRANCH  21  22
ENDBRANCH  15  17
TORSDOF 8
ENDMDL
MODEL 2
REMARK VINA RESULT:      -7.4      2.470      3.803
REMARK  Name = 
REMARK  8 active torsions:
REMARK  status: ('A' for Active; 'I' for Inactive)
REMARK    1  A    between atoms: O_2  and  C_3
REMARK    2  A    between atoms: C_3  and  C_4
REMARK    3  A    between atoms: C_4  and  O_5
REMARK    4  A    between atoms: O_5  and  C_6
REMARK    5  A    between atoms: C_9  and  C_12
REMARK    6  A    between atoms: C_15  and  C_17
REMARK    7  A    between atoms: N_21  and  C_22
REMARK    8  A    between atoms: C_22  and  C_23
REMARK                            x       y       z     vdW  Elec       q    Type
REMARK                         _______ _______ _______ _____ _____    ______ ____
ROOT
ATOM     12  C   UNL     1      -0.656   1.681  25.378  0.00  0.00    +0.205 A 
ATOM     13  N   UNL     1      -0.062   1.999  25.854  0.00  0.00    -0.056 NA
ATOM     14  O   UNL     1      -0.171   2.816  25.887  0.00  0.00    -0.336 OA
ATOM     15  C   UNL     1      -0.833   3.003  25.432  0.00  0.00    +0.251 A 
ATOM     16  N   UNL     1      -1.133   2.302  25.117  0.00  0.00    -0.190 NA
ENDROOT
BRANCH  12   9
ATOM      6  C   UNL     1      -0.956  -0.714  24.830  0.00  0.00    +0.225 A 
ATOM      7  C   UNL     1      -1.137  -0.438  25.585  0.00  0.00    +0.058 A 
ATOM      8  C   UNL     1      -1.037   0.360  25.768  0.00  0.00    +0.010 A 
ATOM      9  C   UNL     1      -0.756   0.883  25.195  0.00  0.00    +0.058 A 
ATOM     10  C   UNL     1      -0.574   0.606  24.439  0.00  0.00    +0.105 A 
ATOM     11  N   UNL     1      -0.674  -0.192  24.256  0.00  0.00    -0.210 NA
BRANCH   6   5
ATOM      5  O   UNL     1      -1.056  -1.512  24.647  0.00  0.00    -0.457 OA
BRANCH   5   4
ATOM      4  C   UNL     1      -1.780  -1.882  24.793  0.00  0.00    +0.239 C 
BRANCH   4   3
ATOM      3  C   UNL     1      -2.012  -2.530  24.338  0.00  0.00    +0.189 C 
BRANCH   3   2
ATOM      1  C   UNL     1      -3.384  -2.914  24.236  0.00  0.00    +0.174 C 
ATOM      2  O   UNL     1      -2.642  -3.002  24.585  0.00  0.00    -0.347 OA
ENDBRANCH   3   2
ENDBRANCH   4   3
ENDBRANCH   5   4
ENDBRANCH   6   5
ENDBRANCH  12   9
BRANCH  15  17
ATOM     17  C   UNL     1      -1.141   3.759  25.312  0.00  0.00    +0.138 C 
ATOM     18  C   UNL     1      -0.730   4.408  25.013  0.00  0.00    +0.027 C 
ATOM     19  C   UNL     1      -1.249   5.049  24.986  0.00  0.00    +0.019 C 
ATOM     20  C   UNL     1      -1.982   4.795  25.268  0.00  0.00    +0.073 C 
ATOM     21  N   UNL     1      -1.915   3.998  25.469  0.00  0.00    -0.260 NA
BRANCH  21  22
ATOM     22  C   UNL     1      -2.517   3.523  25.774  0.00  0.00    +0.139 C 
BRANCH  22  23
ATOM     23  C   UNL     1      -3.303   3.675  25.576  0.00  0.00    +0.155 A 
ATOM     24  N   UNL     1      -3.868   4.022  26.066  0.00  0.00    -0.226 NA
ATOM     25  C   UNL     1      -4.577   4.068  25.646  0.00  0.00    +0.121 A 
ATOM     26  C   UNL     1      -4.449   3.750  24.895  0.00  0.00    +0.121 A 
ATOM     27  N   UNL     1      -3.662   3.508  24.852  0.00  0.00    -0.226 NA
ENDBRANCH  22  23
ENDBRANCH  21  22
ENDBRANCH  15  17
TORSDOF 8
ENDMDL
MODEL 3
REMARK VINA RESULT:      -7.0      2.867      4.832
REMARK  Name = 
REMARK  8 active torsions:
REMARK  status: ('A' for Active; 'I' for Inactive)
REMARK    1  A    between atoms: O_2  and  C_3
REMARK    2  A    between atoms: C_3  and  C_4
REMARK    3  A    between atoms: C_4  and  O_5
REMARK    4  A    between atoms: O_5  and  C_6
REMARK    5  A    between atoms: C_9  and  C_12
REMARK    6  A    between atoms: C_15  and  C_17
REMARK    7  A    between atoms: N_21  and  C_22
REMARK    8  A    between atoms: C_22  and  C_23
REMARK                            x       y       z     vdW  Elec       q    Type
REMARK                         _______ _______ _______ _____ _____    ______ ____
ROOT
ATOM     12  C   UNL     1      -4.125   1.049  24.790  0.00  0.00    +0.205 A 
ATOM     13  N   UNL     1      -4.807   0.767  25.159  0.00  0.00    -0.056 NA
ATOM     14  O   UNL     1      -4.840  -0.050  25.047  0.00  0.00    -0.336 OA
ATOM     15  C   UNL     1      -4.178  -0.273  24.609  0.00  0.00    +0.251 A 
ATOM     16  N   UNL     1      -3.736   0.405  24.450  0.00  0.00    -0.190 NA
ENDROOT
BRANCH  12   9
ATOM      6  C   UNL     1      -3.377   3.407  24.716  0.00  0.00    +0.225 A 
ATOM      7  C   UNL     1      -3.539   3.003  24.015  0.00  0.00    +0.058 A 
ATOM      8  C   UNL     1      -3.788   2.217  24.040  0.00  0.00    +0.010 A 
ATOM      9  C   UNL     1      -3.876   1.835  24.766  0.00  0.00    +0.058 A 
ATOM     10  C   UNL     1      -3.714   2.239  25.467  0.00  0.00    +0.105 A 
ATOM     11  N   UNL     1      -3.465   3.025  25.442  0.00  0.00    -0.210 NA
BRANCH   6   5
ATOM      5  O   UNL     1      -3.128   4.193  24.691  0.00  0.00    -0.457 OA
BRANCH   5   4
ATOM      4  C   UNL     1      -2.431   4.417  25.073  0.00  0.00    +0.239 C 
BRANCH   4   3
ATOM      3  C   UNL     1      -2.052   5.119  24.862  0.00  0.00    +0.189 C 
BRANCH   3   2
ATOM      1  C   UNL     1      -0.641   5.330  24.785  0.00  0.00    +0.174 C 
ATOM      2  O   UNL     1      -1.340   5.328  25.224  0.00  0.00    -0.347 OA
ENDBRANCH   3   2
ENDBRANCH   4   3
ENDBRANCH   5   4
ENDBRANCH   6   5
ENDBRANCH  12   9
BRANCH  15  17
ATOM     17  C   UNL     1      -3.991  -1.041  24.371  0.00  0.00    +0.138 C 
ATOM     18  C   UNL     1      -4.439  -1.515  23.867  0.00  0.00    +0.027 C 
ATOM     19  C   UNL     1      -4.047  -2.236  23.780  0.00  0.00    +0.019 C 
ATOM     20  C   UNL     1      -3.357  -2.207  24.230  0.00  0.00    +0.073 C 
ATOM     21  N   UNL     1      -3.322  -1.468  24.595  0.00  0.00    -0.260 NA
BRANCH  21  22
ATOM     22  C   UNL     1      -2.723  -1.204  25.097  0.00  0.00    +0.139 C 
BRANCH  22  23
ATOM     23  C   UNL     1      -1.953  -1.484  25.003  0.00  0.00    +0.155 A 
ATOM     24  N   UNL     1      -1.666  -2.212  25.265  0.00  0.00    -0.226 NA
ATOM     25  C   UNL     1      -0.870  -2.264  25.056  0.00  0.00    +0.121 A 
ATOM     26  C   UNL     1      -0.664  -1.567  24.664  0.00  0.00    +0.121 A 
ATOM     27  N   UNL     1      -1.333  -1.086  24.632  0.00  0.00    -0.226 NA
ENDBRANCH  22  23
ENDBRANCH  21  22
ENDBRANCH  15  17
TORSDOF 8
ENDMDL
MODEL 4
REMARK VINA RESULT:      -7.0      1.200      1.893
REMARK  Name = 
REMARK  8 active torsions:
REMARK  status: ('A' for Active; 'I' for Inactive)
REMARK    1  A    between atoms: O_2  and  C_3
REMARK    2  A    between atoms: C_3  and  C_4
REMARK    3  A    between atoms: C_4  and  O_5
REMARK    4  A    between atoms: O_5  and  C_6
REMARK    5  A    between atoms: C_9  and  C_12
REMARK    6  A    between atoms: C_15  and  C_17
REMARK    7  A    between atoms: N_21  and  C_22
REMARK    8  A    between atoms: C_22  and  C_23
REMARK                            x       y       z     vdW  Elec       q    Type
REMARK                         _______ _______ _______ _____ _____    ______ ____
ROOT
ATOM     12  C   UNL     1      -1.180   1.724  24.732  0.00  0.00    +0.205 A 
ATOM     13  N   UNL     1      -1.354   1.663  25.536  0.00  0.00    -0.056 NA
ATOM     14  O   UNL     1      -1.996   2.156  25.697  0.00  0.00    -0.336 OA
ATOM     15  C   UNL     1      -2.219   2.522  24.992  0.00  0.00    +0.251 A 
ATOM     16  N   UNL     1      -1.715   2.255  24.395  0.00  0.00    -0.190 NA
ENDROOT
BRANCH  12   9
ATOM      6  C   UNL     1       0.627   0.525  23.539  0.00  0.00    +0.225 A 
ATOM      7  C   UNL     1      -0.113   0.173  23.627  0.00  0.00    +0.058 A 
ATOM      8  C   UNL     1      -0.716   0.572  24.025  0.00  0.00    +0.010 A 
ATOM      9  C   UNL     1      -0.578   1.324  24.335  0.00  0.00    +0.058 A 
ATOM     10  C   UNL     1       0.163   1.677  24.246  0.00  0.00    +0.105 A 
ATOM     11  N   UNL     1       0.766   1.278  23.848  0.00  0.00    -0.210 NA
BRANCH   6   5
ATOM      5  O   UNL     1       1.229   0.126  23.141  0.00  0.00    -0.457 OA
BRANCH   5   4
ATOM      4  C   UNL     1       1.954   0.498  23.008  0.00  0.00    +0.239 C 
BRANCH   4   3
ATOM      3  C   UNL     1       2.574   0.080  22.660  0.00  0.00    +0.189 C 
BRANCH   3   2
ATOM      1  C   UNL     1       3.942   0.485  22.580  0.00  0.00    +0.174 C 
ATOM      2  O   UNL     1       3.177   0.487  22.270  0.00  0.00    -0.347 OA
ENDBRANCH   3   2
ENDBRANCH   4   3
ENDBRANCH   5   4
ENDBRANCH   6   5
ENDBRANCH  12   9
BRANCH  15  17
ATOM     17  C   UNL     1      -2.837   3.060  24.899  0.00  0.00    +0.138 C 
ATOM     18  C   UNL     1      -2.758   3.869  24.761  0.00  0.00    +0.027 C 
ATOM     19  C   UNL     1      -3.516   4.192  24.704  0.00  0.00    +0.019 C 
ATOM     20  C   UNL     1      -4.062   3.583  24.808  0.00  0.00    +0.073 C 
ATOM     21  N   UNL     1      -3.643   2.883  24.928  0.00  0.00    -0.260 NA
BRANCH  21  22
ATOM     22  C   UNL     1      -3.971   2.138  25.055  0.00  0.00    +0.139 C 
BRANCH  22  23
ATOM     23  C   UNL     1      -4.787   2.055  25.140  0.00  0.00    +0.155 A 
ATOM     24  N   UNL     1      -5.218   2.187  25.831  0.00  0.00    -0.226 NA
ATOM     25  C   UNL     1      -6.014   2.040  25.668  0.00  0.00    +0.121 A 
ATOM     26  C   UNL     1      -6.074   1.817  24.876  0.00  0.00    +0.121 A 
ATOM     27  N   UNL     1      -5.316   1.827  24.550  0.00  0.00    -0.226 NA
ENDBRANCH  22  23
ENDBRANCH  21  22
ENDBRANCH  15  17
TORSDOF 8
ENDMDL
MODEL 5
REMARK VINA RESULT:      -6.9      3.464      4.699
REMARK  Name = 
REMARK  8 active torsions:
REMARK  status: ('A' for Active; 'I' for Inactive)
REMARK    1  A    between atoms: O_2  and  C_3
REMARK    2  A    between atoms: C_3  and  C_4
REMARK    3  A    between atoms: C_4  and  O_5
REMARK    4  A    between atoms: O_5  and  C_6
REMARK    5  A    between atoms: C_9  and  C_12
REMARK    6  A    between atoms: C_15  and  C_17
REMARK    7  A    between atoms: N_21  and  C_22
REMARK    8  A    between atoms: C_22  and  C_23
REMARK                            x       y       z     vdW  Elec       q    Type
REMARK                         _______ _______ _______ _____ _____    ______ ____
ROOT
ATOM     12  C   UNL     1      -4.191   1.838  24.622  0.00  0.00    +0.205 A 
ATOM     13  N   UNL     1      -4.618   2.407  24.205  0.00  0.00    -0.056 NA
ATOM     14  O   UNL     1      -4.457   3.144  24.540  0.00  0.00    -0.336 OA
ATOM     15  C   UNL     1      -3.929   3.030  25.164  0.00  0.00    +0.251 A 
ATOM     16  N   UNL     1      -3.765   2.223  25.215  0.00  0.00    -0.190 NA
ENDROOT
BRANCH  12   9
ATOM      6  C   UNL     1      -4.188  -0.596  24.175  0.00  0.00    +0.225 A 
ATOM      7  C   UNL     1      -4.666  -0.287  24.771  0.00  0.00    +0.058 A 
ATOM      8  C   UNL     1      -4.667   0.524  24.920  0.00  0.00    +0.010 A 
ATOM      9  C   UNL     1      -4.190   1.027  24.473  0.00  0.00    +0.058 A 
ATOM     10  C   UNL     1      -3.712   0.717  23.876  0.00  0.00    +0.105 A 
ATOM     11  N   UNL     1      -3.710  -0.094  23.727  0.00  0.00    -0.210 NA
BRANCH   6   5
ATOM      5  O   UNL     1      -4.187  -1.408  24.026  0.00  0.00    -0.457 OA
BRANCH   5   4
ATOM      4  C   UNL     1      -3.602  -1.887  24.357  0.00  0.00    +0.239 C 
BRANCH   4   3
ATOM      3  C   UNL     1      -3.574  -2.691  24.172  0.00  0.00    +0.189 C 
BRANCH   3   2
ATOM      1  C   UNL     1      -2.244  -3.149  24.421  0.00  0.00    +0.174 C 
ATOM      2  O   UNL     1      -3.053  -3.189  24.575  0.00  0.00    -0.347 OA
ENDBRANCH   3   2
ENDBRANCH   4   3
ENDBRANCH   5   4
ENDBRANCH   6   5
ENDBRANCH  12   9
BRANCH  15  17
ATOM     17  C   UNL     1      -3.620   3.619  25.651  0.00  0.00    +0.138 C 
ATOM     18  C   UNL     1      -3.945   3.878  26.363  0.00  0.00    +0.027 C 
ATOM     19  C   UNL     1      -3.457   4.472  26.665  0.00  0.00    +0.019 C 
ATOM     20  C   UNL     1      -2.832   4.580  26.138  0.00  0.00    +0.073 C 
ATOM     21  N   UNL     1      -2.932   4.053  25.512  0.00  0.00    -0.260 NA
BRANCH  21  22
ATOM     22  C   UNL     1      -2.432   3.973  24.861  0.00  0.00    +0.139 C 
BRANCH  22  23
ATOM     23  C   UNL     1      -1.665   4.273  24.891  0.00  0.00    +0.155 A 
ATOM     24  N   UNL     1      -1.450   5.066  24.818  0.00  0.00    -0.226 NA
ATOM     25  C   UNL     1      -0.630   5.117  24.881  0.00  0.00    +0.121 A 
ATOM     26  C   UNL     1      -0.336   4.353  24.994  0.00  0.00    +0.121 A 
ATOM     27  N   UNL     1      -0.976   3.833  25.000  0.00  0.00    -0.226 NA
ENDBRANCH  22  23
ENDBRANCH  21  22
ENDBRANCH  15  17
TORSDOF 8
ENDMDL
MODEL 6
REMARK VINA RESULT:      -6.8      1.471      2.582
REMARK  Name = 
REMARK  8 active torsions:
REMARK  status: ('A' for Active; 'I' for Inactive)
REMARK    1  A    between atoms: O_2  and  C_3
REMARK    2  A    between atoms: C_3  and  C_4
REMARK    3  A    between atoms: C_4  and  O_5
REMARK    4  A    between atoms: O_5  and  C_6
REMARK    5  A    between atoms: C_9  and  C_12
REMARK    6  A    between atoms: C_15  and  C_17
REMARK    7  A    between atoms: N_21  and  C_22
REMARK    8  A    between atoms: C_22  and  C_23
REMARK                            x       y       z     vdW  Elec       q    Type
REMARK                         _______ _______ _______ _____ _____    ______ ____
ROOT
ATOM     12  C   UNL     1      -0.534   0.682  24.317  0.00  0.00    +0.205 A 
ATOM     13  N   UNL     1      -0.622   0.935  25.097  0.00  0.00    -0.056 NA
ATOM     14  O   UNL     1      -1.424   0.894  25.290  0.00  0.00    -0.336 OA
ATOM     15  C   UNL     1      -1.831   0.616  24.629  0.00  0.00    +0.251 A 
ATOM     16  N   UNL     1      -1.282   0.484  24.027  0.00  0.00    -0.190 NA
ENDROOT
BRANCH  12   9
ATOM      6  C   UNL     1       1.595   0.539  23.064  0.00  0.00    +0.225 A 
ATOM      7  C   UNL     1       1.067  -0.094  23.052  0.00  0.00    +0.058 A 
ATOM      8  C   UNL     1       0.357  -0.046  23.470  0.00  0.00    +0.010 A 
ATOM      9  C   UNL     1       0.175   0.634  23.899  0.00  0.00    +0.058 A 
ATOM     10  C   UNL     1       0.705   1.268  23.911  0.00  0.00    +0.105 A 
ATOM     11  N   UNL     1       1.415   1.220  23.493  0.00  0.00    -0.210 NA
BRANCH   6   5
ATOM      5  O   UNL     1       2.305   0.491  22.646  0.00  0.00    -0.457 OA
BRANCH   5   4
ATOM      4  C   UNL     1       3.019   0.661  23.025  0.00  0.00    +0.239 C 
BRANCH   4   3
ATOM      3  C   UNL     1       3.735   0.504  22.645  0.00  0.00    +0.189 C 
BRANCH   3   2
ATOM      1  C   UNL     1       5.040   0.267  23.175  0.00  0.00    +0.174 C 
ATOM      2  O   UNL     1       4.440   0.792  22.961  0.00  0.00    -0.347 OA
ENDBRANCH   3   2
ENDBRANCH   4   3
ENDBRANCH   5   4
ENDBRANCH   6   5
ENDBRANCH  12   9
BRANCH  15  17
ATOM     17  C   UNL     1      -2.645   0.490  24.578  0.00  0.00    +0.138 C 
ATOM     18  C   UNL     1      -3.205   1.042  24.329  0.00  0.00    +0.027 C 
ATOM     19  C   UNL     1      -3.948   0.684  24.364  0.00  0.00    +0.019 C 
ATOM     20  C   UNL     1      -3.846  -0.089  24.635  0.00  0.00    +0.073 C 
ATOM     21  N   UNL     1      -3.041  -0.208  24.767  0.00  0.00    -0.260 NA
BRANCH  21  22
ATOM     22  C   UNL     1      -2.693  -0.904  25.041  0.00  0.00    +0.139 C 
BRANCH  22  23
ATOM     23  C   UNL     1      -3.059  -1.630  24.903  0.00  0.00    +0.155 A 
ATOM     24  N   UNL     1      -3.039  -2.057  24.198  0.00  0.00    -0.226 NA
ATOM     25  C   UNL     1      -3.477  -2.748  24.305  0.00  0.00    +0.121 A 
ATOM     26  C   UNL     1      -3.768  -2.748  25.078  0.00  0.00    +0.121 A 
ATOM     27  N   UNL     1      -3.509  -2.057  25.447  0.00  0.00    -0.226 NA
ENDBRANCH  22  23
ENDBRANCH  21  22
ENDBRANCH  15  17
TORSDOF 8
ENDMDL
MODEL 7
REMARK VINA RESULT:      -6.5      2.008      5.810
REMARK  Name = 
REMARK  8 active torsions:
REMARK  status: ('A' for Active; 'I' for Inactive)
REMARK    1  A    between atoms: O_2  and  C_3
REMARK    2  A    between atoms: C_3  and  C_4
REMARK    3  A    between atoms: C_4  and  O_5
REMARK    4  A    between atoms: O_5  and  C_6
REMARK    5  A    between atoms: C_9  and  C_12
REMARK    6  A    between atoms: C_15  and  C_17
REMARK    7  A    between atoms: N_21  and  C_22
REMARK    8  A    between atoms: C_22  and  C_23
REMARK                            x       y       z     vdW  Elec       q    Type
REMARK                         _______ _______ _______ _____ _____    ______ ____
ROOT
ATOM     12  C   UNL     1      -3.330  -0.146  24.535  0.00  0.00    +0.205 A 
ATOM     13  N   UNL     1      -3.421  -0.822  24.072  0.00  0.00    -0.056 NA
ATOM     14  O   UNL     1      -2.721  -1.256  24.112  0.00  0.00    -0.336 OA
ATOM     15  C   UNL     1      -2.196  -0.848  24.601  0.00  0.00    +0.251 A 
ATOM     16  N   UNL     1      -2.572  -0.161  24.862  0.00  0.00    -0.190 NA
ENDROOT
BRANCH  12   9
ATOM      6  C   UNL     1      -5.027   1.622  24.882  0.00  0.00    +0.225 A 
ATOM      7  C   UNL     1      -5.056   0.929  25.328  0.00  0.00    +0.058 A 
ATOM      8  C   UNL     1      -4.490   0.340  25.212  0.00  0.00    +0.010 A 
ATOM      9  C   UNL     1      -3.896   0.444  24.650  0.00  0.00    +0.058 A 
ATOM     10  C   UNL     1      -3.867   1.137  24.203  0.00  0.00    +0.105 A 
ATOM     11  N   UNL     1      -4.433   1.726  24.319  0.00  0.00    -0.210 NA
BRANCH   6   5
ATOM      5  O   UNL     1      -5.593   2.211  24.997  0.00  0.00    -0.457 OA
BRANCH   5   4
ATOM      4  C   UNL     1      -5.415   2.869  25.463  0.00  0.00    +0.239 C 
BRANCH   4   3
ATOM      3  C   UNL     1      -5.904   3.534  25.442  0.00  0.00    +0.189 C 
BRANCH   3   2
ATOM      1  C   UNL     1      -5.993   4.950  25.609  0.00  0.00    +0.174 C 
ATOM      2  O   UNL     1      -5.680   4.222  25.839  0.00  0.00    -0.347 OA
ENDBRANCH   3   2
ENDBRANCH   4   3
ENDBRANCH   5   4
ENDBRANCH   6   5
ENDBRANCH  12   9
BRANCH  15  17
ATOM     17  C   UNL     1      -1.430  -1.084  24.795  0.00  0.00    +0.138 C 
ATOM     18  C   UNL     1      -1.225  -1.635  25.373  0.00  0.00    +0.027 C 
ATOM     19  C   UNL     1      -0.402  -1.702  25.380  0.00  0.00    +0.019 C 
ATOM     20  C   UNL     1      -0.100  -1.194  24.805  0.00  0.00    +0.073 C 
ATOM     21  N   UNL     1      -0.735  -0.812  24.444  0.00  0.00    -0.260 NA
BRANCH  21  22
ATOM     22  C   UNL     1      -0.683  -0.255  23.837  0.00  0.00    +0.139 C 
BRANCH  22  23
ATOM     23  C   UNL     1       0.055  -0.003  23.570  0.00  0.00    +0.155 A 
ATOM     24  N   UNL     1       0.539  -0.401  23.034  0.00  0.00    -0.226 NA
ATOM     25  C   UNL     1       1.223   0.048  22.925  0.00  0.00    +0.121 A 
ATOM     26  C   UNL     1       1.160   0.725  23.394  0.00  0.00    +0.121 A 
ATOM     27  N   UNL     1       0.439   0.693  23.792  0.00  0.00    -0.226 NA
ENDBRANCH  22  23
ENDBRANCH  21  22
ENDBRANCH  15  17
TORSDOF 8
ENDMDL
MODEL 8
REMARK VINA RESULT:      -6.5      2.088      5.696
REMARK  Name = 
REMARK  8 active torsions:
REMARK  status: ('A' for Active; 'I' for Inactive)
REMARK    1  A    between atoms: O_2  and  C_3
REMARK    2  A    between atoms: C_3  and  C_4
REMARK    3  A    between atoms: C_4  and  O_5
REMARK    4  A    between atoms: O_5  and  C_6
REMARK    5  A    between atoms: C_9  and  C_12
REMARK    6  A    between atoms: C_15  and  C_17
REMARK    7  A    between atoms: N_21  and  C_22
REMARK    8  A    between atoms: C_22  and  C_23
REMARK                            x       y       z     vdW  Elec       q    Type
REMARK                         _______ _______ _______ _____ _____    ______ ____
ROOT
ATOM     12  C   UNL     1      -0.997   2.306  24.615  0.00  0.00    +0.205 A 
ATOM     13  N   UNL     1      -0.231   2.535  24.814  0.00  0.00    -0.056 NA
ATOM     14  O   UNL     1       0.287   1.945  24.557  0.00  0.00    -0.336 OA
ATOM     15  C   UNL     1      -0.161   1.352  24.199  0.00  0.00    +0.251 A 
ATOM     16  N   UNL     1      -0.955   1.574  24.235  0.00  0.00    -0.190 NA
ENDROOT
BRANCH  12   9
ATOM      6  C   UNL     1      -3.065   3.586  25.075  0.00  0.00    +0.225 A 
ATOM      7  C   UNL     1      -2.476   3.534  25.650  0.00  0.00    +0.058 A 
ATOM      8  C   UNL     1      -1.787   3.107  25.496  0.00  0.00    +0.010 A 
ATOM      9  C   UNL     1      -1.687   2.733  24.768  0.00  0.00    +0.058 A 
ATOM     10  C   UNL     1      -2.277   2.785  24.193  0.00  0.00    +0.105 A 
ATOM     11  N   UNL     1      -2.966   3.212  24.346  0.00  0.00    -0.210 NA
BRANCH   6   5
ATOM      5  O   UNL     1      -3.754   4.013  25.229  0.00  0.00    -0.457 OA
BRANCH   5   4
ATOM      4  C   UNL     1      -4.387   3.650  25.614  0.00  0.00    +0.239 C 
BRANCH   4   3
ATOM      3  C   UNL     1      -5.160   3.899  25.463  0.00  0.00    +0.189 C 
BRANCH   3   2
ATOM      1  C   UNL     1      -6.133   2.890  25.742  0.00  0.00    +0.174 C 
ATOM      2  O   UNL     1      -5.782   3.614  25.925  0.00  0.00    -0.347 OA
ENDBRANCH   3   2
ENDBRANCH   4   3
ENDBRANCH   5   4
ENDBRANCH   6   5
ENDBRANCH  12   9
BRANCH  15  17
ATOM     17  C   UNL     1       0.134   0.658  23.865  0.00  0.00    +0.138 C 
ATOM     18  C   UNL     1       0.656   0.610  23.229  0.00  0.00    +0.027 C 
ATOM     19  C   UNL     1       0.803  -0.188  23.079  0.00  0.00    +0.019 C 
ATOM     20  C   UNL     1       0.370  -0.633  23.622  0.00  0.00    +0.073 C 
ATOM     21  N   UNL     1      -0.043  -0.111  24.107  0.00  0.00    -0.260 NA
BRANCH  21  22
ATOM     22  C   UNL     1      -0.546  -0.320  24.727  0.00  0.00    +0.139 C 
BRANCH  22  23
ATOM     23  C   UNL     1      -0.833  -1.091  24.783  0.00  0.00    +0.155 A 
ATOM     24  N   UNL     1      -1.501  -1.389  24.403  0.00  0.00    -0.226 NA
ATOM     25  C   UNL     1      -1.584  -2.182  24.614  0.00  0.00    +0.121 A 
ATOM     26  C   UNL     1      -0.965  -2.375  25.125  0.00  0.00    +0.121 A 
ATOM     27  N   UNL     1      -0.501  -1.701  25.230  0.00  0.00    -0.226 NA
ENDBRANCH  22  23
ENDBRANCH  21  22
ENDBRANCH  15  17
TORSDOF 8
ENDMDL
