MODEL 1
REMARK VINA RESULT:     -15.9      0.000      0.000
REMARK  Name = 
REMARK  4 active torsions:
REMARK  status: ('A' for Active; 'I' for Inactive)
REMARK    1  A    between atoms: C_5  and  N_8
REMARK    2  A    between atoms: C_17  and  C_22
REMARK    3  A    between atoms: C_25  and  O_26
REMARK    4  A    between atoms: O_26  and  C_27
REMARK                            x       y       z     vdW  Elec       q    Type
REMARK                         _______ _______ _______ _____ _____    ______ ____
ROOT
ATOM      8  N   UNL     1      -3.632   2.998  24.762  0.00  0.00    -0.273 NA
ATOM      9  C   UNL     1      -3.839   3.799  24.879  0.00  0.00    +0.074 C 
ATOM     10  C   UNL     1      -4.755   3.682  25.231  0.00  0.00    +0.039 C 
ATOM     11  C   UNL     1      -5.510   3.756  25.529  0.00  0.00    +0.011 C 
ATOM     12  C   UNL     1      -5.076   3.239  25.336  0.00  0.00    +0.054 C 
ATOM     13  C   UNL     1      -4.193   3.368  24.997  0.00  0.00    +0.078 C 
ATOM     14  C   UNL     1      -5.029   2.323  25.277  0.00  0.00    +0.041 A 
ATOM     15  C   UNL     1      -5.479   1.648  25.422  0.00  0.00    +0.013 A 
ATOM     16  C   UNL     1      -5.165   0.901  25.266  0.00  0.00    +0.006 A 
ATOM     17  C   UNL     1      -4.400   0.830  24.965  0.00  0.00    +0.056 A 
ATOM     18  C   UNL     1      -3.950   1.505  24.819  0.00  0.00    +0.261 A 
ATOM     19  O   UNL     1      -3.378   0.965  24.572  0.00  0.00    -0.267 OA
ATOM     20  N   UNL     1      -4.264   2.252  24.975  0.00  0.00    -0.299 N 
ATOM     21  C   UNL     1      -4.697   2.726  25.165  0.00  0.00    +0.110 C 
ENDROOT
BRANCH   8   5
ATOM      1  C   UNL     1      -1.796   0.385  23.929  0.00  0.00    +0.090 C 
ATOM      2  N   UNL     1      -2.255   1.038  24.138  0.00  0.00    -0.271 NA
ATOM      3  C   UNL     1      -2.222   1.338  24.905  0.00  0.00    +0.074 C 
ATOM      4  C   UNL     1      -2.680   1.991  25.113  0.00  0.00    +0.033 C 
ATOM      5  C   UNL     1      -3.173   2.345  24.553  0.00  0.00    +0.060 C 
ATOM      6  C   UNL     1      -3.206   2.045  23.786  0.00  0.00    +0.033 C 
ATOM      7  C   UNL     1      -2.747   1.392  23.577  0.00  0.00    +0.074 C 
ENDBRANCH   8   5
BRANCH  17  22
ATOM     22  C   UNL     1      -4.087   0.083  24.809  0.00  0.00    +0.005 A 
ATOM     23  C   UNL     1      -4.191  -0.261  24.066  0.00  0.00    +0.003 A 
ATOM     24  C   UNL     1      -3.878  -1.008  23.910  0.00  0.00    +0.037 A 
ATOM     25  C   UNL     1      -3.461  -1.411  24.496  0.00  0.00    +0.147 A 
ATOM     31  C   UNL     1      -3.356  -1.068  25.239  0.00  0.00    +0.037 A 
ATOM     32  C   UNL     1      -3.670  -0.320  25.395  0.00  0.00    +0.003 A 
BRANCH  25  26
ATOM     26  O   UNL     1      -3.147  -2.158  24.340  0.00  0.00    -0.404 OA
BRANCH  26  27
ATOM     27  C   UNL     1      -3.590  -2.833  24.504  0.00  0.00    +0.575 C 
ATOM     28  F   UNL     1      -4.034  -3.509  24.671  0.00  0.00    -0.133 F 
ATOM     29  F   UNL     1      -3.247  -2.874  25.254  0.00  0.00    -0.133 F 
ATOM     30  F   UNL     1      -3.933  -2.792  23.756  0.00  0.00    -0.133 F 
ENDBRANCH  26  27
ENDBRANCH  25  26
ENDBRANCH  17  22
TORSDOF 4
ENDMDL
MODEL 2
REMARK VINA RESULT:     -15.0      1.234      2.417
REMARK  Name = 
REMARK  4 active torsions:
REMARK  status: ('A' for Active; 'I' for Inactive)
REMARK    1  A    between atoms: C_5  and  N_8
REMARK    2  A    between atoms: C_17  and  C_22
REMARK    3  A    between atoms: C_25  and  O_26
REMARK    4  A    between atoms: O_26  and  C_27
REMARK                            x       y       z     vdW  Elec       q    Type
REMARK                         _______ _______ _______ _____ _____    ______ ____
ROOT
ATOM      8  N   UNL     1      -2.981   3.877  25.081  0.00  0.00    -0.273 NA
ATOM      9  C   UNL     1      -2.603   4.611  25.207  0.00  0.00    +0.074 C 
ATOM     10  C   UNL     1      -1.661   4.314  25.211  0.00  0.00    +0.039 C 
ATOM     11  C   UNL     1      -0.851   4.233  25.239  0.00  0.00    +0.011 C 
ATOM     12  C   UNL     1      -1.410   3.819  25.151  0.00  0.00    +0.054 C 
ATOM     13  C   UNL     1      -2.316   4.122  25.150  0.00  0.00    +0.078 C 
ATOM     14  C   UNL     1      -1.642   2.941  25.011  0.00  0.00    +0.041 A 
ATOM     15  C   UNL     1      -1.302   2.195  24.919  0.00  0.00    +0.013 A 
ATOM     16  C   UNL     1      -1.782   1.535  24.798  0.00  0.00    +0.006 A 
ATOM     17  C   UNL     1      -2.602   1.621  24.770  0.00  0.00    +0.056 A 
ATOM     18  C   UNL     1      -2.942   2.366  24.862  0.00  0.00    +0.261 A 
ATOM     19  O   UNL     1      -3.653   1.958  24.767  0.00  0.00    -0.267 OA
ATOM     20  N   UNL     1      -2.463   3.026  24.982  0.00  0.00    -0.299 N 
ATOM     21  C   UNL     1      -1.913   3.399  25.064  0.00  0.00    +0.110 C 
ENDROOT
BRANCH   8   5
ATOM      1  C   UNL     1      -5.435   1.715  24.642  0.00  0.00    +0.090 C 
ATOM      2  N   UNL     1      -4.822   2.255  24.751  0.00  0.00    -0.271 NA
ATOM      3  C   UNL     1      -4.472   2.621  24.100  0.00  0.00    +0.074 C 
ATOM      4  C   UNL     1      -3.859   3.161  24.209  0.00  0.00    +0.033 C 
ATOM      5  C   UNL     1      -3.595   3.336  24.971  0.00  0.00    +0.060 C 
ATOM      6  C   UNL     1      -3.944   2.971  25.623  0.00  0.00    +0.033 C 
ATOM      7  C   UNL     1      -4.558   2.430  25.513  0.00  0.00    +0.074 C 
ENDBRANCH   8   5
BRANCH  17  22
ATOM     22  C   UNL     1      -3.081   0.960  24.649  0.00  0.00    +0.005 A 
ATOM     23  C   UNL     1      -3.272   0.725  23.882  0.00  0.00    +0.003 A 
ATOM     24  C   UNL     1      -3.751   0.064  23.761  0.00  0.00    +0.037 A 
ATOM     25  C   UNL     1      -4.039  -0.361  24.406  0.00  0.00    +0.147 A 
ATOM     31  C   UNL     1      -3.847  -0.126  25.174  0.00  0.00    +0.037 A 
ATOM     32  C   UNL     1      -3.368   0.535  25.295  0.00  0.00    +0.003 A 
BRANCH  25  26
ATOM     26  O   UNL     1      -4.518  -1.022  24.285  0.00  0.00    -0.404 OA
BRANCH  26  27
ATOM     27  C   UNL     1      -4.178  -1.746  24.087  0.00  0.00    +0.575 C 
ATOM     28  F   UNL     1      -3.837  -2.471  23.886  0.00  0.00    -0.133 F 
ATOM     29  F   UNL     1      -4.291  -1.579  23.287  0.00  0.00    -0.133 F 
ATOM     30  F   UNL     1      -4.064  -1.913  24.886  0.00  0.00    -0.133 F 
ENDBRANCH  26  27
ENDBRANCH  25  26
ENDBRANCH  17  22
TORSDOF 4
ENDMDL
MODEL 3
REMARK VINA RESULT:     -15.0      2.521      4.433
REMARK  Name = 
REMARK  4 active torsions:
REMARK  status: ('A' for Active; 'I' for Inactive)
REMARK    1  A    between atoms: C_5  and  N_8
REMARK    2  A    between atoms: C_17  and  C_22
REMARK    3  A    between atoms: C_25  and  O_26
REMARK    4  A    between atoms: O_26  and  C_27
REMARK                            x       y       z     vdW  Elec       q    Type
REMARK                         _______ _______ _______ _____ _____    ______ ____
ROOT
ATOM      8  N   UNL     1      -2.125  -1.723  24.798  0.00  0.00    -0.273 NA
ATOM      9  C   UNL     1      -2.098  -2.557  24.842  0.00  0.00    +0.074 C 
ATOM     10  C   UNL     1      -3.024  -2.767  24.567  0.00  0.00    +0.039 C 
ATOM     11  C   UNL     1      -3.738  -3.101  24.363  0.00  0.00    +0.011 C 
ATOM     12  C   UNL     1      -3.463  -2.457  24.419  0.00  0.00    +0.054 C 
ATOM     13  C   UNL     1      -2.566  -2.271  24.686  0.00  0.00    +0.078 C 
ATOM     14  C   UNL     1      -3.679  -1.570  24.315  0.00  0.00    +0.041 A 
ATOM     15  C   UNL     1      -4.311  -1.086  24.100  0.00  0.00    +0.013 A 
ATOM     16  C   UNL     1      -4.219  -0.266  24.093  0.00  0.00    +0.006 A 
ATOM     17  C   UNL     1      -3.494   0.069  24.301  0.00  0.00    +0.056 A 
ATOM     18  C   UNL     1      -2.862  -0.415  24.515  0.00  0.00    +0.261 A 
ATOM     19  O   UNL     1      -2.459   0.298  24.608  0.00  0.00    -0.267 OA
ATOM     20  N   UNL     1      -2.954  -1.235  24.522  0.00  0.00    -0.299 N 
ATOM     21  C   UNL     1      -3.240  -1.837  24.461  0.00  0.00    +0.110 C 
ENDROOT
BRANCH   8   5
ATOM      1  C   UNL     1      -1.084   1.404  24.983  0.00  0.00    +0.090 C 
ATOM      2  N   UNL     1      -1.344   0.623  24.937  0.00  0.00    -0.271 NA
ATOM      3  C   UNL     1      -1.685   0.261  25.595  0.00  0.00    +0.074 C 
ATOM      4  C   UNL     1      -1.945  -0.520  25.550  0.00  0.00    +0.033 C 
ATOM      5  C   UNL     1      -1.864  -0.941  24.844  0.00  0.00    +0.060 C 
ATOM      6  C   UNL     1      -1.524  -0.580  24.185  0.00  0.00    +0.033 C 
ATOM      7  C   UNL     1      -1.264   0.202  24.231  0.00  0.00    +0.074 C 
ENDBRANCH   8   5
BRANCH  17  22
ATOM     22  C   UNL     1      -3.402   0.889  24.293  0.00  0.00    +0.005 A 
ATOM     23  C   UNL     1      -3.563   1.327  24.974  0.00  0.00    +0.003 A 
ATOM     24  C   UNL     1      -3.472   2.147  24.967  0.00  0.00    +0.037 A 
ATOM     25  C   UNL     1      -3.219   2.528  24.281  0.00  0.00    +0.147 A 
ATOM     31  C   UNL     1      -3.058   2.091  23.600  0.00  0.00    +0.037 A 
ATOM     32  C   UNL     1      -3.150   1.270  23.607  0.00  0.00    +0.003 A 
BRANCH  25  26
ATOM     26  O   UNL     1      -3.128   3.349  24.274  0.00  0.00    -0.404 OA
BRANCH  26  27
ATOM     27  C   UNL     1      -3.779   3.837  24.405  0.00  0.00    +0.575 C 
ATOM     28  F   UNL     1      -4.431   4.325  24.537  0.00  0.00    -0.133 F 
ATOM     29  F   UNL     1      -3.571   3.900  25.201  0.00  0.00    -0.133 F 
ATOM     30  F   UNL     1      -3.987   3.773  23.610  0.00  0.00    -0.133 F 
ENDBRANCH  26  27
ENDBRANCH  25  26
ENDBRANCH  17  22
TORSDOF 4
ENDMDL
MODEL 4
REMARK VINA RESULT:     -14.6      1.460      2.096
REMARK  Name = 
REMARK  4 active torsions:
REMARK  status: ('A' for Active; 'I' for Inactive)
REMARK    1  A    between atoms: C_5  and  N_8
REMARK    2  A    between atoms: C_17  and  C_22
REMARK    3  A    between atoms: C_25  and  O_26
REMARK    4  A    between atoms: O_26  and  C_27
REMARK                            x       y       z     vdW  Elec       q    Type
REMARK                         _______ _______ _______ _____ _____    ______ ____
ROOT
ATOM      8  N   UNL     1      -1.059   3.159  25.108  0.00  0.00    -0.273 NA
ATOM      9  C   UNL     1      -0.809   3.937  25.279  0.00  0.00    +0.074 C 
ATOM     10  C   UNL     1      -1.689   4.377  25.375  0.00  0.00    +0.039 C 
ATOM     11  C   UNL     1      -2.321   4.878  25.484  0.00  0.00    +0.011 C 
ATOM     12  C   UNL     1      -2.216   4.201  25.335  0.00  0.00    +0.054 C 
ATOM     13  C   UNL     1      -1.358   3.790  25.246  0.00  0.00    +0.078 C 
ATOM     14  C   UNL     1      -2.672   3.421  25.164  0.00  0.00    +0.041 A 
ATOM     15  C   UNL     1      -3.441   3.130  25.099  0.00  0.00    +0.013 A 
ATOM     16  C   UNL     1      -3.567   2.334  24.924  0.00  0.00    +0.006 A 
ATOM     17  C   UNL     1      -2.924   1.829  24.813  0.00  0.00    +0.056 A 
ATOM     18  C   UNL     1      -2.155   2.120  24.878  0.00  0.00    +0.261 A 
ATOM     19  O   UNL     1      -1.938   1.343  24.707  0.00  0.00    -0.267 OA
ATOM     20  N   UNL     1      -2.029   2.916  25.053  0.00  0.00    -0.299 N 
ATOM     21  C   UNL     1      -2.156   3.558  25.194  0.00  0.00    +0.110 C 
ENDROOT
BRANCH   8   5
ATOM      1  C   UNL     1      -0.844  -0.057  24.401  0.00  0.00    +0.090 C 
ATOM      2  N   UNL     1      -0.897   0.746  24.578  0.00  0.00    -0.271 NA
ATOM      3  C   UNL     1      -0.921   0.996  25.364  0.00  0.00    +0.074 C 
ATOM      4  C   UNL     1      -0.975   1.799  25.541  0.00  0.00    +0.033 C 
ATOM      5  C   UNL     1      -1.005   2.355  24.931  0.00  0.00    +0.060 C 
ATOM      6  C   UNL     1      -0.981   2.106  24.145  0.00  0.00    +0.033 C 
ATOM      7  C   UNL     1      -0.927   1.302  23.968  0.00  0.00    +0.074 C 
ENDBRANCH   8   5
BRANCH  17  22
ATOM     22  C   UNL     1      -3.050   1.033  24.638  0.00  0.00    +0.005 A 
ATOM     23  C   UNL     1      -3.127   0.791  23.853  0.00  0.00    +0.003 A 
ATOM     24  C   UNL     1      -3.253  -0.005  23.677  0.00  0.00    +0.037 A 
ATOM     25  C   UNL     1      -3.304  -0.559  24.286  0.00  0.00    +0.147 A 
ATOM     31  C   UNL     1      -3.227  -0.318  25.071  0.00  0.00    +0.037 A 
ATOM     32  C   UNL     1      -3.100   0.479  25.247  0.00  0.00    +0.003 A 
BRANCH  25  26
ATOM     26  O   UNL     1      -3.430  -1.356  24.110  0.00  0.00    -0.404 OA
BRANCH  26  27
ATOM     27  C   UNL     1      -4.198  -1.637  24.008  0.00  0.00    +0.575 C 
ATOM     28  F   UNL     1      -4.967  -1.919  23.905  0.00  0.00    -0.133 F 
ATOM     29  F   UNL     1      -4.151  -1.472  23.201  0.00  0.00    -0.133 F 
ATOM     30  F   UNL     1      -4.246  -1.803  24.814  0.00  0.00    -0.133 F 
ENDBRANCH  26  27
ENDBRANCH  25  26
ENDBRANCH  17  22
TORSDOF 4
ENDMDL
MODEL 5
REMARK VINA RESULT:     -14.2      2.572      4.529
REMARK  Name = 
REMARK  4 active torsions:
REMARK  status: ('A' for Active; 'I' for Inactive)
REMARK    1  A    between atoms: C_5  and  N_8
REMARK    2  A    between atoms: C_17  and  C_22
REMARK    3  A    between atoms: C_25  and  O_26
REMARK    4  A    between atoms: O_26  and  C_27
REMARK                            x       y       z     vdW  Elec       q    Type
REMARK                         _______ _______ _______ _____ _____    ______ ____
ROOT
ATOM      8  N   UNL     1      -4.005  -1.095  24.174  0.00  0.00    -0.273 NA
ATOM      9  C   UNL     1      -4.488  -1.761  24.033  0.00  0.00    +0.074 C 
ATOM     10  C   UNL     1      -3.843  -2.480  24.238  0.00  0.00    +0.039 C 
ATOM     11  C   UNL     1      -3.440  -3.177  24.368  0.00  0.00    +0.011 C 
ATOM     12  C   UNL     1      -3.309  -2.488  24.401  0.00  0.00    +0.054 C 
ATOM     13  C   UNL     1      -3.945  -1.804  24.199  0.00  0.00    +0.078 C 
ATOM     14  C   UNL     1      -2.641  -1.890  24.599  0.00  0.00    +0.041 A 
ATOM     15  C   UNL     1      -1.852  -1.867  24.840  0.00  0.00    +0.013 A 
ATOM     16  C   UNL     1      -1.475  -1.142  24.948  0.00  0.00    +0.006 A 
ATOM     17  C   UNL     1      -1.885  -0.439  24.816  0.00  0.00    +0.056 A 
ATOM     18  C   UNL     1      -2.674  -0.461  24.575  0.00  0.00    +0.261 A 
ATOM     19  O   UNL     1      -2.610   0.361  24.586  0.00  0.00    -0.267 OA
ATOM     20  N   UNL     1      -3.051  -1.186  24.467  0.00  0.00    -0.299 N 
ATOM     21  C   UNL     1      -3.150  -1.848  24.443  0.00  0.00    +0.110 C 
ENDROOT
BRANCH   8   5
ATOM      1  C   UNL     1      -3.130   2.079  24.410  0.00  0.00    +0.090 C 
ATOM      2  N   UNL     1      -3.349   1.286  24.352  0.00  0.00    -0.271 NA
ATOM      3  C   UNL     1      -3.672   0.897  25.003  0.00  0.00    +0.074 C 
ATOM      4  C   UNL     1      -3.890   0.104  24.945  0.00  0.00    +0.033 C 
ATOM      5  C   UNL     1      -3.786  -0.301  24.233  0.00  0.00    +0.060 C 
ATOM      6  C   UNL     1      -3.463   0.087  23.581  0.00  0.00    +0.033 C 
ATOM      7  C   UNL     1      -3.245   0.881  23.640  0.00  0.00    +0.074 C 
ENDBRANCH   8   5
BRANCH  17  22
ATOM     22  C   UNL     1      -1.507   0.286  24.924  0.00  0.00    +0.005 A 
ATOM     23  C   UNL     1      -1.530   0.656  25.661  0.00  0.00    +0.003 A 
ATOM     24  C   UNL     1      -1.151   1.381  25.770  0.00  0.00    +0.037 A 
ATOM     25  C   UNL     1      -0.751   1.736  25.143  0.00  0.00    +0.147 A 
ATOM     31  C   UNL     1      -0.728   1.366  24.405  0.00  0.00    +0.037 A 
ATOM     32  C   UNL     1      -1.107   0.641  24.296  0.00  0.00    +0.003 A 
BRANCH  25  26
ATOM     26  O   UNL     1      -0.372   2.462  25.252  0.00  0.00    -0.404 OA
BRANCH  26  27
ATOM     27  C   UNL     1       0.106   2.581  25.912  0.00  0.00    +0.575 C 
ATOM     28  F   UNL     1       0.583   2.701  26.574  0.00  0.00    -0.133 F 
ATOM     29  F   UNL     1      -0.517   2.966  26.292  0.00  0.00    -0.133 F 
ATOM     30  F   UNL     1       0.728   2.196  25.533  0.00  0.00    -0.133 F 
ENDBRANCH  26  27
ENDBRANCH  25  26
ENDBRANCH  17  22
TORSDOF 4
ENDMDL
