MODEL 1
REMARK VINA RESULT:     -13.0      0.000      0.000
REMARK  Name = 
REMARK  3 active torsions:
REMARK  status: ('A' for Active; 'I' for Inactive)
REMARK    1  A    between atoms: C_3  and  C_11
REMARK    2  A    between atoms: N_14  and  C_15
REMARK    3  A    between atoms: C_15  and  C_16
REMARK                            x       y       z     vdW  Elec       q    Type
REMARK                         _______ _______ _______ _____ _____    ______ ____
ROOT
ATOM     11  C   UNL     1      -3.332   1.806  24.806  0.00  0.00    +0.074 C 
ATOM     12  C   UNL     1      -3.943   1.724  24.258  0.00  0.00    +0.026 C 
ATOM     13  C   UNL     1      -4.320   1.004  24.401  0.00  0.00    +0.073 C 
ATOM     14  N   UNL     1      -3.942   0.641  25.038  0.00  0.00    -0.269 NA
ATOM     23  C   UNL     1      -3.330   1.136  25.288  0.00  0.00    +0.080 C 
ENDROOT
BRANCH  11   3
ATOM      1  C   UNL     1      -3.729   3.435  25.445  0.00  0.00    +0.132 C 
ATOM      2  N   UNL     1      -2.995   3.194  25.156  0.00  0.00    -0.313 N 
ATOM      3  C   UNL     1      -2.812   2.444  24.862  0.00  0.00    +0.121 A 
ATOM      4  N   UNL     1      -2.020   2.446  24.635  0.00  0.00    -0.231 NA
ATOM      5  C   UNL     1      -1.712   3.196  24.788  0.00  0.00    +0.098 A 
ATOM      6  C   UNL     1      -2.315   3.658  25.110  0.00  0.00    +0.079 A 
ATOM      7  C   UNL     1      -2.167   4.442  25.320  0.00  0.00    +0.019 A 
ATOM      8  C   UNL     1      -1.416   4.764  25.208  0.00  0.00    +0.002 A 
ATOM      9  C   UNL     1      -0.813   4.302  24.886  0.00  0.00    +0.002 A 
ATOM     10  C   UNL     1      -0.961   3.518  24.676  0.00  0.00    +0.021 A 
ENDBRANCH  11   3
BRANCH  14  15
ATOM     15  C   UNL     1      -4.139  -0.090  25.367  0.00  0.00    +0.099 C 
BRANCH  15  16
ATOM     16  C   UNL     1      -3.984  -0.785  24.951  0.00  0.00    -0.010 A 
ATOM     17  C   UNL     1      -4.215  -0.854  24.162  0.00  0.00    -0.003 A 
ATOM     18  C   UNL     1      -4.059  -1.550  23.747  0.00  0.00    -0.000 A 
ATOM     19  C   UNL     1      -3.673  -2.176  24.119  0.00  0.00    -0.000 A 
ATOM     20  C   UNL     1      -3.442  -2.106  24.909  0.00  0.00    -0.005 A 
ATOM     21  C   UNL     1      -3.597  -1.410  25.325  0.00  0.00    -0.024 A 
ATOM     22  C   UNL     1      -3.366  -1.341  26.113  0.00  0.00    +0.031 C 
ENDBRANCH  15  16
ENDBRANCH  14  15
TORSDOF 3
ENDMDL
MODEL 2
REMARK VINA RESULT:     -12.9      1.021      4.797
REMARK  Name = 
REMARK  3 active torsions:
REMARK  status: ('A' for Active; 'I' for Inactive)
REMARK    1  A    between atoms: C_3  and  C_11
REMARK    2  A    between atoms: N_14  and  C_15
REMARK    3  A    between atoms: C_15  and  C_16
REMARK                            x       y       z     vdW  Elec       q    Type
REMARK                         _______ _______ _______ _____ _____    ______ ____
ROOT
ATOM     11  C   UNL     1      -3.423   0.854  23.988  0.00  0.00    +0.074 C 
ATOM     12  C   UNL     1      -2.983   1.227  23.398  0.00  0.00    +0.026 C 
ATOM     13  C   UNL     1      -3.091   2.041  23.475  0.00  0.00    +0.073 C 
ATOM     14  N   UNL     1      -3.597   2.172  24.114  0.00  0.00    -0.269 NA
ATOM     23  C   UNL     1      -3.803   1.438  24.431  0.00  0.00    +0.080 C 
ENDROOT
BRANCH  11   3
ATOM      1  C   UNL     1      -2.362  -0.117  25.062  0.00  0.00    +0.132 C 
ATOM      2  N   UNL     1      -2.986  -0.406  24.608  0.00  0.00    -0.313 N 
ATOM      3  C   UNL     1      -3.474   0.040  24.113  0.00  0.00    +0.121 A 
ATOM      4  N   UNL     1      -4.021  -0.471  23.767  0.00  0.00    -0.231 NA
ATOM      5  C   UNL     1      -3.872  -1.232  24.047  0.00  0.00    +0.098 A 
ATOM      6  C   UNL     1      -3.233  -1.192  24.566  0.00  0.00    +0.079 A 
ATOM      7  C   UNL     1      -2.958  -1.877  24.935  0.00  0.00    +0.019 A 
ATOM      8  C   UNL     1      -3.321  -2.601  24.784  0.00  0.00    +0.002 A 
ATOM      9  C   UNL     1      -3.961  -2.641  24.264  0.00  0.00    +0.002 A 
ATOM     10  C   UNL     1      -4.237  -1.957  23.896  0.00  0.00    +0.021 A 
ENDBRANCH  11   3
BRANCH  14  15
ATOM     15  C   UNL     1      -3.853   2.906  24.387  0.00  0.00    +0.099 C 
BRANCH  15  16
ATOM     16  C   UNL     1      -3.390   3.333  24.919  0.00  0.00    -0.010 A 
ATOM     17  C   UNL     1      -2.575   3.393  24.801  0.00  0.00    -0.003 A 
ATOM     18  C   UNL     1      -2.112   3.820  25.334  0.00  0.00    -0.000 A 
ATOM     19  C   UNL     1      -2.462   4.187  25.984  0.00  0.00    -0.000 A 
ATOM     20  C   UNL     1      -3.277   4.128  26.102  0.00  0.00    -0.005 A 
ATOM     21  C   UNL     1      -3.741   3.700  25.569  0.00  0.00    -0.024 A 
ATOM     22  C   UNL     1      -4.555   3.641  25.687  0.00  0.00    +0.031 C 
ENDBRANCH  15  16
ENDBRANCH  14  15
TORSDOF 3
ENDMDL
MODEL 3
REMARK VINA RESULT:     -12.4      0.715      1.425
REMARK  Name = 
REMARK  3 active torsions:
REMARK  status: ('A' for Active; 'I' for Inactive)
REMARK    1  A    between atoms: C_3  and  C_11
REMARK    2  A    between atoms: N_14  and  C_15
REMARK    3  A    between atoms: C_15  and  C_16
REMARK                            x       y       z     vdW  Elec       q    Type
REMARK                         _______ _______ _______ _____ _____    ______ ____
ROOT
ATOM     11  C   UNL     1      -2.913   1.640  24.214  0.00  0.00    +0.074 C 
ATOM     12  C   UNL     1      -2.859   1.300  23.464  0.00  0.00    +0.026 C 
ATOM     13  C   UNL     1      -3.307   0.607  23.465  0.00  0.00    +0.073 C 
ATOM     14  N   UNL     1      -3.638   0.518  24.215  0.00  0.00    -0.269 NA
ATOM     23  C   UNL     1      -3.394   1.156  24.679  0.00  0.00    +0.080 C 
ENDROOT
BRANCH  11   3
ATOM      1  C   UNL     1      -1.144   1.939  24.289  0.00  0.00    +0.132 C 
ATOM      2  N   UNL     1      -1.736   2.476  24.491  0.00  0.00    -0.313 N 
ATOM      3  C   UNL     1      -2.549   2.339  24.456  0.00  0.00    +0.121 A 
ATOM      4  N   UNL     1      -2.934   3.024  24.707  0.00  0.00    -0.231 NA
ATOM      5  C   UNL     1      -2.359   3.584  24.897  0.00  0.00    +0.098 A 
ATOM      6  C   UNL     1      -1.619   3.246  24.763  0.00  0.00    +0.079 A 
ATOM      7  C   UNL     1      -0.934   3.683  24.907  0.00  0.00    +0.019 A 
ATOM      8  C   UNL     1      -0.989   4.458  25.184  0.00  0.00    +0.002 A 
ATOM      9  C   UNL     1      -1.730   4.796  25.318  0.00  0.00    +0.002 A 
ATOM     10  C   UNL     1      -2.415   4.360  25.174  0.00  0.00    +0.021 A 
ENDBRANCH  11   3
BRANCH  14  15
ATOM     15  C   UNL     1      -4.126  -0.100  24.460  0.00  0.00    +0.099 C 
BRANCH  15  16
ATOM     16  C   UNL     1      -3.799  -0.769  24.812  0.00  0.00    -0.010 A 
ATOM     17  C   UNL     1      -3.320  -0.692  25.481  0.00  0.00    -0.003 A 
ATOM     18  C   UNL     1      -2.993  -1.363  25.832  0.00  0.00    -0.000 A 
ATOM     19  C   UNL     1      -3.144  -2.110  25.517  0.00  0.00    -0.000 A 
ATOM     20  C   UNL     1      -3.622  -2.187  24.849  0.00  0.00    -0.005 A 
ATOM     21  C   UNL     1      -3.950  -1.516  24.496  0.00  0.00    -0.024 A 
ATOM     22  C   UNL     1      -4.427  -1.594  23.829  0.00  0.00    +0.031 C 
ENDBRANCH  15  16
ENDBRANCH  14  15
TORSDOF 3
ENDMDL
MODEL 4
REMARK VINA RESULT:     -11.9      1.438      5.135
REMARK  Name = 
REMARK  3 active torsions:
REMARK  status: ('A' for Active; 'I' for Inactive)
REMARK    1  A    between atoms: C_3  and  C_11
REMARK    2  A    between atoms: N_14  and  C_15
REMARK    3  A    between atoms: C_15  and  C_16
REMARK                            x       y       z     vdW  Elec       q    Type
REMARK                         _______ _______ _______ _____ _____    ______ ____
ROOT
ATOM     11  C   UNL     1      -1.522   0.658  25.136  0.00  0.00    +0.074 C 
ATOM     12  C   UNL     1      -0.952   0.846  25.701  0.00  0.00    +0.026 C 
ATOM     13  C   UNL     1      -0.721   1.629  25.580  0.00  0.00    +0.073 C 
ATOM     14  N   UNL     1      -1.149   1.925  24.939  0.00  0.00    -0.269 NA
ATOM     23  C   UNL     1      -1.645   1.325  24.665  0.00  0.00    +0.080 C 
ENDROOT
BRANCH  11   3
ATOM      1  C   UNL     1      -0.789  -0.855  24.509  0.00  0.00    +0.132 C 
ATOM      2  N   UNL     1      -1.566  -0.765  24.767  0.00  0.00    -0.313 N 
ATOM      3  C   UNL     1      -1.904  -0.069  25.055  0.00  0.00    +0.121 A 
ATOM      4  N   UNL     1      -2.690  -0.228  25.248  0.00  0.00    -0.231 NA
ATOM      5  C   UNL     1      -2.838  -1.021  25.080  0.00  0.00    +0.098 A 
ATOM      6  C   UNL     1      -2.144  -1.353  24.782  0.00  0.00    +0.079 A 
ATOM      7  C   UNL     1      -2.128  -2.149  24.564  0.00  0.00    +0.019 A 
ATOM      8  C   UNL     1      -2.805  -2.612  24.642  0.00  0.00    +0.002 A 
ATOM      9  C   UNL     1      -3.499  -2.281  24.940  0.00  0.00    +0.002 A 
ATOM     10  C   UNL     1      -3.516  -1.486  25.159  0.00  0.00    +0.021 A 
ENDBRANCH  11   3
BRANCH  14  15
ATOM     15  C   UNL     1      -1.092   2.687  24.628  0.00  0.00    +0.099 C 
BRANCH  15  16
ATOM     16  C   UNL     1      -1.493   3.311  24.988  0.00  0.00    -0.010 A 
ATOM     17  C   UNL     1      -2.211   3.173  25.372  0.00  0.00    -0.003 A 
ATOM     18  C   UNL     1      -2.611   3.798  25.732  0.00  0.00    -0.000 A 
ATOM     19  C   UNL     1      -2.296   4.560  25.708  0.00  0.00    -0.000 A 
ATOM     20  C   UNL     1      -1.578   4.697  25.324  0.00  0.00    -0.005 A 
ATOM     21  C   UNL     1      -1.177   4.072  24.963  0.00  0.00    -0.024 A 
ATOM     22  C   UNL     1      -0.460   4.210  24.580  0.00  0.00    +0.031 C 
ENDBRANCH  15  16
ENDBRANCH  14  15
TORSDOF 3
ENDMDL
MODEL 5
REMARK VINA RESULT:     -11.9      1.336      2.250
REMARK  Name = 
REMARK  3 active torsions:
REMARK  status: ('A' for Active; 'I' for Inactive)
REMARK    1  A    between atoms: C_3  and  C_11
REMARK    2  A    between atoms: N_14  and  C_15
REMARK    3  A    between atoms: C_15  and  C_16
REMARK                            x       y       z     vdW  Elec       q    Type
REMARK                         _______ _______ _______ _____ _____    ______ ____
ROOT
ATOM     11  C   UNL     1      -3.560   1.067  24.437  0.00  0.00    +0.074 C 
ATOM     12  C   UNL     1      -3.270   0.987  23.669  0.00  0.00    +0.026 C 
ATOM     13  C   UNL     1      -2.889   0.257  23.614  0.00  0.00    +0.073 C 
ATOM     14  N   UNL     1      -2.944  -0.114  24.349  0.00  0.00    -0.269 NA
ATOM     23  C   UNL     1      -3.359   0.386  24.858  0.00  0.00    +0.080 C 
ENDROOT
BRANCH  11   3
ATOM      1  C   UNL     1      -2.867   2.668  24.860  0.00  0.00    +0.132 C 
ATOM      2  N   UNL     1      -3.659   2.450  24.927  0.00  0.00    -0.313 N 
ATOM      3  C   UNL     1      -3.978   1.714  24.733  0.00  0.00    +0.121 A 
ATOM      4  N   UNL     1      -4.788   1.738  24.886  0.00  0.00    -0.231 NA
ATOM      5  C   UNL     1      -4.970   2.489  25.176  0.00  0.00    +0.098 A 
ATOM      6  C   UNL     1      -4.272   2.928  25.201  0.00  0.00    +0.079 A 
ATOM      7  C   UNL     1      -4.286   3.708  25.470  0.00  0.00    +0.019 A 
ATOM      8  C   UNL     1      -4.997   4.048  25.714  0.00  0.00    +0.002 A 
ATOM      9  C   UNL     1      -5.694   3.609  25.688  0.00  0.00    +0.002 A 
ATOM     10  C   UNL     1      -5.682   2.829  25.419  0.00  0.00    +0.021 A 
ENDBRANCH  11   3
BRANCH  14  15
ATOM     15  C   UNL     1      -2.638  -0.855  24.541  0.00  0.00    +0.099 C 
BRANCH  15  16
ATOM     16  C   UNL     1      -3.090  -1.534  24.418  0.00  0.00    -0.010 A 
ATOM     17  C   UNL     1      -3.810  -1.482  24.017  0.00  0.00    -0.003 A 
ATOM     18  C   UNL     1      -4.262  -2.161  23.894  0.00  0.00    -0.000 A 
ATOM     19  C   UNL     1      -3.996  -2.890  24.170  0.00  0.00    -0.000 A 
ATOM     20  C   UNL     1      -3.276  -2.942  24.571  0.00  0.00    -0.005 A 
ATOM     21  C   UNL     1      -2.823  -2.263  24.695  0.00  0.00    -0.024 A 
ATOM     22  C   UNL     1      -2.104  -2.315  25.095  0.00  0.00    +0.031 C 
ENDBRANCH  15  16
ENDBRANCH  14  15
TORSDOF 3
ENDMDL
