MODEL 1
REMARK VINA RESULT:     -12.0      0.000      0.000
REMARK  Name = 
REMARK  6 active torsions:
REMARK  status: ('A' for Active; 'I' for Inactive)
REMARK    1  A    between atoms: O_2  and  C_3
REMARK    2  A    between atoms: C_6  and  C_9
REMARK    3  A    between atoms: C_15  and  N_16
REMARK    4  A    between atoms: N_16  and  S_17
REMARK    5  A    between atoms: S_17  and  C_20
REMARK    6  A    between atoms: C_24  and  C_26
REMARK                            x       y       z     vdW  Elec       q    Type
REMARK                         _______ _______ _______ _____ _____    ______ ____
ROOT
ATOM      9  C   UNL     1      -4.494   0.860  24.797  0.00  0.00    +0.045 C 
ATOM     10  C   UNL     1      -5.233   1.080  25.091  0.00  0.00    +0.041 C 
ATOM     11  C   UNL     1      -5.289   1.903  25.049  0.00  0.00    +0.184 C 
ATOM     12  O   UNL     1      -5.936   2.357  25.286  0.00  0.00    -0.220 OA
ATOM     13  C   UNL     1      -4.585   2.191  24.730  0.00  0.00    +0.200 C 
ATOM     14  O   UNL     1      -4.404   2.983  24.591  0.00  0.00    -0.219 OA
ATOM     15  C   UNL     1      -4.094   1.546  24.574  0.00  0.00    +0.135 C 
ENDROOT
BRANCH   9   6
ATOM      3  C   UNL     1      -3.630  -1.452  24.616  0.00  0.00    +0.139 A 
ATOM      4  C   UNL     1      -3.893  -1.055  23.941  0.00  0.00    +0.037 A 
ATOM      5  C   UNL     1      -4.181  -0.285  24.001  0.00  0.00    -0.001 A 
ATOM      6  C   UNL     1      -4.206   0.090  24.736  0.00  0.00    -0.021 A 
ATOM      7  C   UNL     1      -3.944  -0.306  25.410  0.00  0.00    -0.001 A 
ATOM      8  C   UNL     1      -3.656  -1.077  25.350  0.00  0.00    +0.037 A 
BRANCH   3   2
ATOM      1  C   UNL     1      -2.534  -2.368  24.629  0.00  0.00    +0.252 C 
ATOM      2  O   UNL     1      -3.343  -2.223  24.555  0.00  0.00    -0.471 OA
ENDBRANCH   3   2
ENDBRANCH   9   6
BRANCH  15  16
ATOM     16  N   UNL     1      -3.335   1.582  24.251  0.00  0.00    -0.076 NA
BRANCH  16  17
ATOM     17  S   UNL     1      -2.789   2.129  24.540  0.00  0.00    +0.077 S 
ATOM     18  O   UNL     1      -2.847   1.789  25.290  0.00  0.00    -0.152 OA
ATOM     19  O   UNL     1      -2.731   2.468  23.791  0.00  0.00    -0.152 OA
BRANCH  17  20
ATOM     20  C   UNL     1      -2.243   2.675  24.830  0.00  0.00    +0.124 A 
ATOM     21  C   UNL     1      -2.372   3.483  24.723  0.00  0.00    +0.020 A 
ATOM     22  C   UNL     1      -1.826   4.030  25.013  0.00  0.00    +0.002 A 
ATOM     23  C   UNL     1      -1.152   3.769  25.408  0.00  0.00    +0.010 A 
ATOM     24  C   UNL     1      -1.022   2.961  25.515  0.00  0.00    +0.070 A 
ATOM     25  C   UNL     1      -1.568   2.414  25.226  0.00  0.00    +0.030 A 
BRANCH  24  26
ATOM     26  C   UNL     1      -0.348   2.699  25.911  0.00  0.00    +0.100 C 
ATOM     27  N   UNL     1       0.328   2.438  26.307  0.00  0.00    -0.191 NA
ENDBRANCH  24  26
ENDBRANCH  17  20
ENDBRANCH  16  17
ENDBRANCH  15  16
TORSDOF 6
ENDMDL
MODEL 2
REMARK VINA RESULT:     -11.7      1.526      4.220
REMARK  Name = 
REMARK  6 active torsions:
REMARK  status: ('A' for Active; 'I' for Inactive)
REMARK    1  A    between atoms: O_2  and  C_3
REMARK    2  A    between atoms: C_6  and  C_9
REMARK    3  A    between atoms: C_15  and  N_16
REMARK    4  A    between atoms: N_16  and  S_17
REMARK    5  A    between atoms: S_17  and  C_20
REMARK    6  A    between atoms: C_24  and  C_26
REMARK                            x       y       z     vdW  Elec       q    Type
REMARK                         _______ _______ _______ _____ _____    ______ ____
ROOT
ATOM      9  C   UNL     1      -4.360   2.801  25.146  0.00  0.00    +0.045 C 
ATOM     10  C   UNL     1      -5.109   3.017  25.418  0.00  0.00    +0.041 C 
ATOM     11  C   UNL     1      -5.625   2.390  25.270  0.00  0.00    +0.184 C 
ATOM     12  O   UNL     1      -6.428   2.370  25.453  0.00  0.00    -0.220 OA
ATOM     13  C   UNL     1      -5.195   1.787  24.907  0.00  0.00    +0.200 C 
ATOM     14  O   UNL     1      -5.493   1.057  24.664  0.00  0.00    -0.219 OA
ATOM     15  C   UNL     1      -4.413   2.041  24.831  0.00  0.00    +0.135 C 
ENDROOT
BRANCH   9   6
ATOM      3  C   UNL     1      -2.315   4.190  25.259  0.00  0.00    +0.139 A 
ATOM      4  C   UNL     1      -2.632   3.866  25.949  0.00  0.00    +0.037 A 
ATOM      5  C   UNL     1      -3.314   3.402  25.911  0.00  0.00    -0.001 A 
ATOM      6  C   UNL     1      -3.678   3.264  25.184  0.00  0.00    -0.021 A 
ATOM      7  C   UNL     1      -3.362   3.588  24.495  0.00  0.00    -0.001 A 
ATOM      8  C   UNL     1      -2.680   4.051  24.533  0.00  0.00    +0.037 A 
BRANCH   3   2
ATOM      1  C   UNL     1      -0.916   4.354  25.021  0.00  0.00    +0.252 C 
ATOM      2  O   UNL     1      -1.633   4.653  25.296  0.00  0.00    -0.471 OA
ENDBRANCH   3   2
ENDBRANCH   9   6
BRANCH  15  16
ATOM     16  N   UNL     1      -3.793   1.610  24.497  0.00  0.00    -0.076 NA
BRANCH  16  17
ATOM     17  S   UNL     1      -3.703   0.810  24.677  0.00  0.00    +0.077 S 
ATOM     18  O   UNL     1      -3.592   1.001  25.472  0.00  0.00    -0.152 OA
ATOM     19  O   UNL     1      -3.815   0.618  23.883  0.00  0.00    -0.152 OA
BRANCH  17  20
ATOM     20  C   UNL     1      -3.613   0.010  24.857  0.00  0.00    +0.124 A 
ATOM     21  C   UNL     1      -3.233  -0.217  25.553  0.00  0.00    +0.020 A 
ATOM     22  C   UNL     1      -3.143  -1.017  25.733  0.00  0.00    +0.002 A 
ATOM     23  C   UNL     1      -3.434  -1.590  25.217  0.00  0.00    +0.010 A 
ATOM     24  C   UNL     1      -3.814  -1.365  24.521  0.00  0.00    +0.070 A 
ATOM     25  C   UNL     1      -3.904  -0.565  24.341  0.00  0.00    +0.030 A 
BRANCH  24  26
ATOM     26  C   UNL     1      -4.105  -1.938  24.005  0.00  0.00    +0.100 C 
ATOM     27  N   UNL     1      -4.396  -2.513  23.489  0.00  0.00    -0.191 NA
ENDBRANCH  24  26
ENDBRANCH  17  20
ENDBRANCH  16  17
ENDBRANCH  15  16
TORSDOF 6
ENDMDL
MODEL 3
REMARK VINA RESULT:     -11.0      1.733      2.958
REMARK  Name = 
REMARK  6 active torsions:
REMARK  status: ('A' for Active; 'I' for Inactive)
REMARK    1  A    between atoms: O_2  and  C_3
REMARK    2  A    between atoms: C_6  and  C_9
REMARK    3  A    between atoms: C_15  and  N_16
REMARK    4  A    between atoms: N_16  and  S_17
REMARK    5  A    between atoms: S_17  and  C_20
REMARK    6  A    between atoms: C_24  and  C_26
REMARK                            x       y       z     vdW  Elec       q    Type
REMARK                         _______ _______ _______ _____ _____    ______ ____
ROOT
ATOM      9  C   UNL     1      -1.896  -0.053  25.171  0.00  0.00    +0.045 C 
ATOM     10  C   UNL     1      -1.239   0.082  25.653  0.00  0.00    +0.041 C 
ATOM     11  C   UNL     1      -0.990   0.859  25.532  0.00  0.00    +0.184 C 
ATOM     12  O   UNL     1      -0.350   1.226  25.902  0.00  0.00    -0.220 OA
ATOM     13  C   UNL     1      -1.492   1.205  24.976  0.00  0.00    +0.200 C 
ATOM     14  O   UNL     1      -1.443   1.978  24.693  0.00  0.00    -0.219 OA
ATOM     15  C   UNL     1      -2.052   0.641  24.753  0.00  0.00    +0.135 C 
ENDROOT
BRANCH   9   6
ATOM      3  C   UNL     1      -3.172  -2.167  25.010  0.00  0.00    +0.139 A 
ATOM      4  C   UNL     1      -3.300  -1.655  25.644  0.00  0.00    +0.037 A 
ATOM      5  C   UNL     1      -2.875  -0.950  25.698  0.00  0.00    -0.001 A 
ATOM      6  C   UNL     1      -2.321  -0.757  25.117  0.00  0.00    -0.021 A 
ATOM      7  C   UNL     1      -2.193  -1.269  24.484  0.00  0.00    -0.001 A 
ATOM      8  C   UNL     1      -2.618  -1.974  24.430  0.00  0.00    +0.037 A 
BRANCH   3   2
ATOM      1  C   UNL     1      -3.917  -3.106  24.233  0.00  0.00    +0.252 C 
ATOM      2  O   UNL     1      -3.597  -2.872  24.956  0.00  0.00    -0.471 OA
ENDBRANCH   3   2
ENDBRANCH   9   6
BRANCH  15  16
ATOM     16  N   UNL     1      -2.661   0.752  24.208  0.00  0.00    -0.076 NA
BRANCH  16  17
ATOM     17  S   UNL     1      -3.123   1.435  24.239  0.00  0.00    +0.077 S 
ATOM     18  O   UNL     1      -3.378   1.228  24.996  0.00  0.00    -0.152 OA
ATOM     19  O   UNL     1      -2.868   1.642  23.482  0.00  0.00    -0.152 OA
BRANCH  17  20
ATOM     20  C   UNL     1      -3.585   2.118  24.270  0.00  0.00    +0.124 A 
ATOM     21  C   UNL     1      -3.487   2.709  23.703  0.00  0.00    +0.020 A 
ATOM     22  C   UNL     1      -3.948   3.392  23.734  0.00  0.00    +0.002 A 
ATOM     23  C   UNL     1      -4.509   3.483  24.331  0.00  0.00    +0.010 A 
ATOM     24  C   UNL     1      -4.608   2.892  24.899  0.00  0.00    +0.070 A 
ATOM     25  C   UNL     1      -4.146   2.210  24.868  0.00  0.00    +0.030 A 
BRANCH  24  26
ATOM     26  C   UNL     1      -5.169   2.984  25.496  0.00  0.00    +0.100 C 
ATOM     27  N   UNL     1      -5.730   3.076  26.094  0.00  0.00    -0.191 NA
ENDBRANCH  24  26
ENDBRANCH  17  20
ENDBRANCH  16  17
ENDBRANCH  15  16
TORSDOF 6
ENDMDL
MODEL 4
REMARK VINA RESULT:     -10.9      2.057      4.980
REMARK  Name = 
REMARK  6 active torsions:
REMARK  status: ('A' for Active; 'I' for Inactive)
REMARK    1  A    between atoms: O_2  and  C_3
REMARK    2  A    between atoms: C_6  and  C_9
REMARK    3  A    between atoms: C_15  and  N_16
REMARK    4  A    between atoms: N_16  and  S_17
REMARK    5  A    between atoms: S_17  and  C_20
REMARK    6  A    between atoms: C_24  and  C_26
REMARK                            x       y       z     vdW  Elec       q    Type
REMARK                         _______ _______ _______ _____ _____    ______ ____
ROOT
ATOM      9  C   UNL     1      -0.579   1.326  24.501  0.00  0.00    +0.045 C 
ATOM     10  C   UNL     1       0.040   1.171  23.978  0.00  0.00    +0.041 C 
ATOM     11  C   UNL     1       0.061   0.357  23.842  0.00  0.00    +0.184 C 
ATOM     12  O   UNL     1       0.594  -0.039  23.353  0.00  0.00    -0.220 OA
ATOM     13  C   UNL     1      -0.546   0.010  24.281  0.00  0.00    +0.200 C 
ATOM     14  O   UNL     1      -0.725  -0.794  24.308  0.00  0.00    -0.219 OA
ATOM     15  C   UNL     1      -0.941   0.609  24.688  0.00  0.00    +0.135 C 
ENDROOT
BRANCH   9   6
ATOM      3  C   UNL     1      -1.236   3.554  25.358  0.00  0.00    +0.139 A 
ATOM      4  C   UNL     1      -0.841   3.022  25.850  0.00  0.00    +0.037 A 
ATOM      5  C   UNL     1      -0.622   2.279  25.565  0.00  0.00    -0.001 A 
ATOM      6  C   UNL     1      -0.798   2.069  24.787  0.00  0.00    -0.021 A 
ATOM      7  C   UNL     1      -1.192   2.600  24.294  0.00  0.00    -0.001 A 
ATOM      8  C   UNL     1      -1.411   3.342  24.580  0.00  0.00    +0.037 A 
BRANCH   3   2
ATOM      1  C   UNL     1      -1.387   4.960  25.159  0.00  0.00    +0.252 C 
ATOM      2  O   UNL     1      -1.454   4.296  25.643  0.00  0.00    -0.471 OA
ENDBRANCH   3   2
ENDBRANCH   9   6
BRANCH  15  16
ATOM     16  N   UNL     1      -1.586   0.508  25.194  0.00  0.00    -0.076 NA
BRANCH  16  17
ATOM     17  S   UNL     1      -2.236   0.064  24.949  0.00  0.00    +0.077 S 
ATOM     18  O   UNL     1      -2.178  -0.397  25.631  0.00  0.00    -0.152 OA
ATOM     19  O   UNL     1      -2.294   0.525  24.267  0.00  0.00    -0.152 OA
BRANCH  17  20
ATOM     20  C   UNL     1      -2.887  -0.380  24.704  0.00  0.00    +0.124 A 
ATOM     21  C   UNL     1      -3.541  -0.005  24.371  0.00  0.00    +0.020 A 
ATOM     22  C   UNL     1      -4.192  -0.449  24.126  0.00  0.00    +0.002 A 
ATOM     23  C   UNL     1      -4.188  -1.268  24.215  0.00  0.00    +0.010 A 
ATOM     24  C   UNL     1      -3.534  -1.645  24.548  0.00  0.00    +0.070 A 
ATOM     25  C   UNL     1      -2.883  -1.201  24.793  0.00  0.00    +0.030 A 
BRANCH  24  26
ATOM     26  C   UNL     1      -3.530  -2.465  24.636  0.00  0.00    +0.100 C 
ATOM     27  N   UNL     1      -3.526  -3.285  24.725  0.00  0.00    -0.191 NA
ENDBRANCH  24  26
ENDBRANCH  17  20
ENDBRANCH  16  17
ENDBRANCH  15  16
TORSDOF 6
ENDMDL
MODEL 5
REMARK VINA RESULT:     -10.8      1.819      4.058
REMARK  Name = 
REMARK  6 active torsions:
REMARK  status: ('A' for Active; 'I' for Inactive)
REMARK    1  A    between atoms: O_2  and  C_3
REMARK    2  A    between atoms: C_6  and  C_9
REMARK    3  A    between atoms: C_15  and  N_16
REMARK    4  A    between atoms: N_16  and  S_17
REMARK    5  A    between atoms: S_17  and  C_20
REMARK    6  A    between atoms: C_24  and  C_26
REMARK                            x       y       z     vdW  Elec       q    Type
REMARK                         _______ _______ _______ _____ _____    ______ ____
ROOT
ATOM      9  C   UNL     1      -3.433   2.088  23.967  0.00  0.00    +0.045 C 
ATOM     10  C   UNL     1      -3.365   2.350  23.187  0.00  0.00    +0.041 C 
ATOM     11  C   UNL     1      -2.683   2.016  22.864  0.00  0.00    +0.184 C 
ATOM     12  O   UNL     1      -2.404   2.131  22.096  0.00  0.00    -0.220 OA
ATOM     13  C   UNL     1      -2.329   1.548  23.444  0.00  0.00    +0.200 C 
ATOM     14  O   UNL     1      -1.634   1.112  23.358  0.00  0.00    -0.219 OA
ATOM     15  C   UNL     1      -2.793   1.592  24.125  0.00  0.00    +0.135 C 
ENDROOT
BRANCH   9   6
ATOM      3  C   UNL     1      -5.239   2.683  25.550  0.00  0.00    +0.139 A 
ATOM      4  C   UNL     1      -4.501   3.049  25.609  0.00  0.00    +0.037 A 
ATOM      5  C   UNL     1      -3.899   2.850  25.081  0.00  0.00    -0.001 A 
ATOM      6  C   UNL     1      -4.035   2.286  24.494  0.00  0.00    -0.021 A 
ATOM      7  C   UNL     1      -4.772   1.921  24.435  0.00  0.00    -0.001 A 
ATOM      8  C   UNL     1      -5.374   2.120  24.963  0.00  0.00    +0.037 A 
BRANCH   3   2
ATOM      1  C   UNL     1      -6.267   2.288  26.460  0.00  0.00    +0.252 C 
ATOM      2  O   UNL     1      -5.842   2.882  26.078  0.00  0.00    -0.471 OA
ENDBRANCH   3   2
ENDBRANCH   9   6
BRANCH  15  16
ATOM     16  N   UNL     1      -2.642   1.208  24.840  0.00  0.00    -0.076 NA
BRANCH  16  17
ATOM     17  S   UNL     1      -2.428   0.412  24.843  0.00  0.00    +0.077 S 
ATOM     18  O   UNL     1      -3.163   0.212  24.527  0.00  0.00    -0.152 OA
ATOM     19  O   UNL     1      -1.692   0.611  25.159  0.00  0.00    -0.152 OA
BRANCH  17  20
ATOM     20  C   UNL     1      -2.213  -0.385  24.846  0.00  0.00    +0.124 A 
ATOM     21  C   UNL     1      -1.433  -0.602  25.004  0.00  0.00    +0.020 A 
ATOM     22  C   UNL     1      -1.219  -1.398  25.007  0.00  0.00    +0.002 A 
ATOM     23  C   UNL     1      -1.784  -1.978  24.853  0.00  0.00    +0.010 A 
ATOM     24  C   UNL     1      -2.565  -1.762  24.695  0.00  0.00    +0.070 A 
ATOM     25  C   UNL     1      -2.779  -0.965  24.692  0.00  0.00    +0.030 A 
BRANCH  24  26
ATOM     26  C   UNL     1      -3.130  -2.341  24.540  0.00  0.00    +0.100 C 
ATOM     27  N   UNL     1      -3.697  -2.921  24.385  0.00  0.00    -0.191 NA
ENDBRANCH  24  26
ENDBRANCH  17  20
ENDBRANCH  16  17
ENDBRANCH  15  16
TORSDOF 6
ENDMDL
