MODEL 1
REMARK VINA RESULT:     -12.1      0.000      0.000
REMARK  Name = 
REMARK  6 active torsions:
REMARK  status: ('A' for Active; 'I' for Inactive)
REMARK    1  A    between atoms: C_2  and  C_3
REMARK    2  A    between atoms: C_2  and  C_25
REMARK    3  A    between atoms: C_10  and  N_11
REMARK    4  A    between atoms: C_12  and  C_14
REMARK    5  A    between atoms: N_27  and  C_28
REMARK    6  A    between atoms: C_28  and  C_29
REMARK                            x       y       z     vdW  Elec       q    Type
REMARK                         _______ _______ _______ _____ _____    ______ ____
ROOT
ATOM      3  C   UNL     1      -4.424   2.862  24.621  0.00  0.00    +0.039 C 
ATOM      4  C   UNL     1      -5.080   2.831  25.123  0.00  0.00    +0.003 C 
ATOM      5  C   UNL     1      -5.373   2.102  25.374  0.00  0.00    +0.000 C 
ATOM      6  C   UNL     1      -5.012   1.405  25.124  0.00  0.00    +0.002 C 
ATOM      7  C   UNL     1      -5.666   1.374  25.625  0.00  0.00    +0.000 C 
ATOM      8  C   UNL     1      -5.305   0.675  25.375  0.00  0.00    +0.002 C 
ATOM      9  C   UNL     1      -4.944  -0.023  25.125  0.00  0.00    +0.022 C 
ATOM     10  C   UNL     1      -4.289   0.008  24.624  0.00  0.00    +0.096 C 
ATOM     20  C   UNL     1      -3.996   0.737  24.373  0.00  0.00    +0.022 C 
ATOM     21  C   UNL     1      -3.341   0.767  23.872  0.00  0.00    +0.002 C 
ATOM     22  C   UNL     1      -4.356   1.435  24.623  0.00  0.00    +0.032 C 
ATOM     23  C   UNL     1      -4.063   2.164  24.372  0.00  0.00    +0.152 C 
ATOM     24  O   UNL     1      -3.409   2.195  23.871  0.00  0.00    -0.223 OA
ENDROOT
BRANCH  10  11
ATOM     11  N   UNL     1      -3.928  -0.691  24.374  0.00  0.00    -0.202 NA
ATOM     12  C   UNL     1      -3.669  -1.243  24.929  0.00  0.00    +0.282 C 
ATOM     13  O   UNL     1      -3.771  -1.097  25.735  0.00  0.00    -0.267 OA
BRANCH  12  14
ATOM     14  C   UNL     1      -3.308  -1.942  24.679  0.00  0.00    +0.136 A 
ATOM     15  N   UNL     1      -2.487  -2.015  24.705  0.00  0.00    -0.239 NA
ATOM     16  C   UNL     1      -2.126  -2.714  24.456  0.00  0.00    +0.099 A 
ATOM     17  C   UNL     1      -2.587  -3.340  24.179  0.00  0.00    +0.021 A 
ATOM     18  C   UNL     1      -3.409  -3.267  24.153  0.00  0.00    +0.003 A 
ATOM     19  C   UNL     1      -3.769  -2.568  24.403  0.00  0.00    +0.024 A 
ENDBRANCH  12  14
ENDBRANCH  10  11
BRANCH   3   2
ATOM      1  C   UNL     1      -4.291   3.861  23.607  0.00  0.00    +0.010 C 
ATOM      2  C   UNL     1      -4.131   3.591  24.371  0.00  0.00    +0.081 C 
BRANCH   2  25
ATOM     25  C   UNL     1      -3.678   4.052  24.884  0.00  0.00    +0.241 C 
ATOM     26  O   UNL     1      -4.038   4.437  25.520  0.00  0.00    -0.273 OA
ATOM     27  N   UNL     1      -2.865   4.128  24.762  0.00  0.00    -0.200 NA
BRANCH  27  28
ATOM     28  C   UNL     1      -2.413   4.588  25.274  0.00  0.00    +0.148 C 
BRANCH  28  29
ATOM     29  C   UNL     1      -1.605   4.683  25.139  0.00  0.00    +0.029 A 
ATOM     30  C   UNL     1      -1.236   5.370  24.867  0.00  0.00    +0.004 A 
ATOM     31  C   UNL     1      -0.427   5.219  24.813  0.00  0.00    +0.007 A 
ATOM     32  C   UNL     1      -0.295   4.439  25.051  0.00  0.00    +0.035 A 
ATOM     33  S   UNL     1      -1.023   4.108  25.253  0.00  0.00    -0.089 S 
ENDBRANCH  28  29
ENDBRANCH  27  28
ENDBRANCH   2  25
ENDBRANCH   3   2
TORSDOF 6
ENDMDL
MODEL 2
REMARK VINA RESULT:     -10.8      1.540      5.235
REMARK  Name = 
REMARK  6 active torsions:
REMARK  status: ('A' for Active; 'I' for Inactive)
REMARK    1  A    between atoms: C_2  and  C_3
REMARK    2  A    between atoms: C_2  and  C_25
REMARK    3  A    between atoms: C_10  and  N_11
REMARK    4  A    between atoms: C_12  and  C_14
REMARK    5  A    between atoms: N_27  and  C_28
REMARK    6  A    between atoms: C_28  and  C_29
REMARK                            x       y       z     vdW  Elec       q    Type
REMARK                         _______ _______ _______ _____ _____    ______ ____
ROOT
ATOM      3  C   UNL     1      -4.164   0.099  24.408  0.00  0.00    +0.039 C 
ATOM      4  C   UNL     1      -4.851   0.241  24.844  0.00  0.00    +0.003 C 
ATOM      5  C   UNL     1      -4.998   0.993  25.147  0.00  0.00    +0.000 C 
ATOM      6  C   UNL     1      -4.460   1.604  25.014  0.00  0.00    +0.002 C 
ATOM      7  C   UNL     1      -5.145   1.746  25.449  0.00  0.00    +0.000 C 
ATOM      8  C   UNL     1      -4.607   2.357  25.317  0.00  0.00    +0.002 C 
ATOM      9  C   UNL     1      -4.069   2.968  25.185  0.00  0.00    +0.022 C 
ATOM     10  C   UNL     1      -3.382   2.825  24.749  0.00  0.00    +0.096 C 
ATOM     20  C   UNL     1      -3.235   2.073  24.446  0.00  0.00    +0.022 C 
ATOM     21  C   UNL     1      -2.549   1.931  24.011  0.00  0.00    +0.002 C 
ATOM     22  C   UNL     1      -3.773   1.461  24.578  0.00  0.00    +0.032 C 
ATOM     23  C   UNL     1      -3.626   0.709  24.276  0.00  0.00    +0.152 C 
ATOM     24  O   UNL     1      -2.940   0.567  23.840  0.00  0.00    -0.223 OA
ENDROOT
BRANCH  10  11
ATOM     11  N   UNL     1      -2.844   3.437  24.617  0.00  0.00    -0.202 NA
ATOM     12  C   UNL     1      -2.485   3.816  25.255  0.00  0.00    +0.282 C 
ATOM     13  O   UNL     1      -2.665   3.584  26.027  0.00  0.00    -0.267 OA
BRANCH  12  14
ATOM     14  C   UNL     1      -1.947   4.428  25.123  0.00  0.00    +0.136 A 
ATOM     15  N   UNL     1      -1.156   4.255  24.968  0.00  0.00    -0.239 NA
ATOM     16  C   UNL     1      -0.618   4.867  24.835  0.00  0.00    +0.099 A 
ATOM     17  C   UNL     1      -0.872   5.651  24.859  0.00  0.00    +0.021 A 
ATOM     18  C   UNL     1      -1.664   5.824  25.014  0.00  0.00    +0.003 A 
ATOM     19  C   UNL     1      -2.201   5.212  25.146  0.00  0.00    +0.024 A 
ENDBRANCH  12  14
ENDBRANCH  10  11
BRANCH   3   2
ATOM      1  C   UNL     1      -4.228  -0.837  23.328  0.00  0.00    +0.010 C 
ATOM      2  C   UNL     1      -4.017  -0.655  24.105  0.00  0.00    +0.081 C 
BRANCH   2  25
ATOM     25  C   UNL     1      -3.658  -1.227  24.580  0.00  0.00    +0.241 C 
ATOM     26  O   UNL     1      -4.103  -1.632  25.145  0.00  0.00    -0.273 OA
ATOM     27  N   UNL     1      -2.854  -1.394  24.489  0.00  0.00    -0.200 NA
BRANCH  27  28
ATOM     28  C   UNL     1      -2.496  -1.965  24.963  0.00  0.00    +0.148 C 
BRANCH  28  29
ATOM     29  C   UNL     1      -1.675  -1.985  25.036  0.00  0.00    +0.029 A 
ATOM     30  C   UNL     1      -1.227  -1.573  25.593  0.00  0.00    +0.004 A 
ATOM     31  C   UNL     1      -0.432  -1.755  25.465  0.00  0.00    +0.007 A 
ATOM     32  C   UNL     1      -0.389  -2.280  24.829  0.00  0.00    +0.035 A 
ATOM     33  S   UNL     1      -1.158  -2.422  24.564  0.00  0.00    -0.089 S 
ENDBRANCH  28  29
ENDBRANCH  27  28
ENDBRANCH   2  25
ENDBRANCH   3   2
TORSDOF 6
ENDMDL
MODEL 3
REMARK VINA RESULT:     -10.2      2.600      6.382
REMARK  Name = 
REMARK  6 active torsions:
REMARK  status: ('A' for Active; 'I' for Inactive)
REMARK    1  A    between atoms: C_2  and  C_3
REMARK    2  A    between atoms: C_2  and  C_25
REMARK    3  A    between atoms: C_10  and  N_11
REMARK    4  A    between atoms: C_12  and  C_14
REMARK    5  A    between atoms: N_27  and  C_28
REMARK    6  A    between atoms: C_28  and  C_29
REMARK                            x       y       z     vdW  Elec       q    Type
REMARK                         _______ _______ _______ _____ _____    ______ ____
ROOT
ATOM      3  C   UNL     1      -0.551  -0.883  24.814  0.00  0.00    +0.039 C 
ATOM      4  C   UNL     1      -0.066  -0.941  24.147  0.00  0.00    +0.003 C 
ATOM      5  C   UNL     1       0.202  -0.257  23.772  0.00  0.00    +0.000 C 
ATOM      6  C   UNL     1      -0.013   0.484  24.062  0.00  0.00    +0.002 C 
ATOM      7  C   UNL     1       0.471   0.426  23.397  0.00  0.00    +0.000 C 
ATOM      8  C   UNL     1       0.256   1.168  23.687  0.00  0.00    +0.002 C 
ATOM      9  C   UNL     1       0.041   1.909  23.977  0.00  0.00    +0.022 C 
ATOM     10  C   UNL     1      -0.444   1.967  24.643  0.00  0.00    +0.096 C 
ATOM     20  C   UNL     1      -0.712   1.284  25.018  0.00  0.00    +0.022 C 
ATOM     21  C   UNL     1      -1.196   1.342  25.684  0.00  0.00    +0.002 C 
ATOM     22  C   UNL     1      -0.497   0.542  24.728  0.00  0.00    +0.032 C 
ATOM     23  C   UNL     1      -0.766  -0.141  25.103  0.00  0.00    +0.152 C 
ATOM     24  O   UNL     1      -1.250  -0.084  25.769  0.00  0.00    -0.223 OA
ENDROOT
BRANCH  10  11
ATOM     11  N   UNL     1      -0.659   2.709  24.933  0.00  0.00    -0.202 NA
ATOM     12  C   UNL     1      -1.035   3.252  24.440  0.00  0.00    +0.282 C 
ATOM     13  O   UNL     1      -1.197   3.053  23.655  0.00  0.00    -0.267 OA
BRANCH  12  14
ATOM     14  C   UNL     1      -1.250   3.994  24.730  0.00  0.00    +0.136 A 
ATOM     15  N   UNL     1      -1.992   4.105  25.071  0.00  0.00    -0.239 NA
ATOM     16  C   UNL     1      -2.207   4.847  25.360  0.00  0.00    +0.099 A 
ATOM     17  C   UNL     1      -1.679   5.479  25.309  0.00  0.00    +0.021 A 
ATOM     18  C   UNL     1      -0.935   5.368  24.967  0.00  0.00    +0.003 A 
ATOM     19  C   UNL     1      -0.721   4.626  24.678  0.00  0.00    +0.024 A 
ENDBRANCH  12  14
ENDBRANCH  10  11
BRANCH   3   2
ATOM      1  C   UNL     1      -0.609  -1.719  25.972  0.00  0.00    +0.010 C 
ATOM      2  C   UNL     1      -0.819  -1.567  25.189  0.00  0.00    +0.081 C 
BRANCH   2  25
ATOM     25  C   UNL     1      -1.299  -2.100  24.780  0.00  0.00    +0.241 C 
ATOM     26  O   UNL     1      -0.962  -2.752  24.401  0.00  0.00    -0.273 OA
ATOM     27  N   UNL     1      -2.115  -1.981  24.749  0.00  0.00    -0.200 NA
BRANCH  27  28
ATOM     28  C   UNL     1      -2.594  -2.513  24.341  0.00  0.00    +0.148 C 
BRANCH  28  29
ATOM     29  C   UNL     1      -3.375  -2.314  24.164  0.00  0.00    +0.029 A 
ATOM     30  C   UNL     1      -3.669  -1.550  24.057  0.00  0.00    +0.004 A 
ATOM     31  C   UNL     1      -4.475  -1.609  23.890  0.00  0.00    +0.007 A 
ATOM     32  C   UNL     1      -4.679  -2.409  23.895  0.00  0.00    +0.035 A 
ATOM     33  S   UNL     1      -3.999  -2.845  24.064  0.00  0.00    -0.089 S 
ENDBRANCH  28  29
ENDBRANCH  27  28
ENDBRANCH   2  25
ENDBRANCH   3   2
TORSDOF 6
ENDMDL
MODEL 4
REMARK VINA RESULT:     -10.2      3.524      5.363
REMARK  Name = 
REMARK  6 active torsions:
REMARK  status: ('A' for Active; 'I' for Inactive)
REMARK    1  A    between atoms: C_2  and  C_3
REMARK    2  A    between atoms: C_2  and  C_25
REMARK    3  A    between atoms: C_10  and  N_11
REMARK    4  A    between atoms: C_12  and  C_14
REMARK    5  A    between atoms: N_27  and  C_28
REMARK    6  A    between atoms: C_28  and  C_29
REMARK                            x       y       z     vdW  Elec       q    Type
REMARK                         _______ _______ _______ _____ _____    ______ ____
ROOT
ATOM      3  C   UNL     1       0.004   0.666  23.973  0.00  0.00    +0.039 C 
ATOM      4  C   UNL     1       0.406   1.383  24.056  0.00  0.00    +0.003 C 
ATOM      5  C   UNL     1       0.003   2.052  24.321  0.00  0.00    +0.000 C 
ATOM      6  C   UNL     1      -0.800   2.006  24.502  0.00  0.00    +0.002 C 
ATOM      7  C   UNL     1      -0.400   2.721  24.585  0.00  0.00    +0.000 C 
ATOM      8  C   UNL     1      -1.203   2.675  24.767  0.00  0.00    +0.002 C 
ATOM      9  C   UNL     1      -2.006   2.629  24.949  0.00  0.00    +0.022 C 
ATOM     10  C   UNL     1      -2.407   1.911  24.866  0.00  0.00    +0.096 C 
ATOM     20  C   UNL     1      -2.005   1.242  24.601  0.00  0.00    +0.022 C 
ATOM     21  C   UNL     1      -2.405   0.526  24.518  0.00  0.00    +0.002 C 
ATOM     22  C   UNL     1      -1.201   1.289  24.419  0.00  0.00    +0.032 C 
ATOM     23  C   UNL     1      -0.798   0.620  24.154  0.00  0.00    +0.152 C 
ATOM     24  O   UNL     1      -1.199  -0.097  24.071  0.00  0.00    -0.223 OA
ENDROOT
BRANCH  10  11
ATOM     11  N   UNL     1      -3.211   1.865  25.047  0.00  0.00    -0.202 NA
ATOM     12  C   UNL     1      -3.711   2.496  24.870  0.00  0.00    +0.282 C 
ATOM     13  O   UNL     1      -3.408   3.174  24.509  0.00  0.00    -0.267 OA
BRANCH  12  14
ATOM     14  C   UNL     1      -4.515   2.449  25.052  0.00  0.00    +0.136 A 
ATOM     15  N   UNL     1      -5.009   1.955  24.615  0.00  0.00    -0.239 NA
ATOM     16  C   UNL     1      -5.813   1.909  24.797  0.00  0.00    +0.099 A 
ATOM     17  C   UNL     1      -6.121   2.358  25.416  0.00  0.00    +0.021 A 
ATOM     18  C   UNL     1      -5.627   2.854  25.853  0.00  0.00    +0.003 A 
ATOM     19  C   UNL     1      -4.823   2.899  25.671  0.00  0.00    +0.024 A 
ENDBRANCH  12  14
ENDBRANCH  10  11
BRANCH   3   2
ATOM      1  C   UNL     1       0.290  -0.731  24.079  0.00  0.00    +0.010 C 
ATOM      2  C   UNL     1       0.408  -0.003  23.708  0.00  0.00    +0.081 C 
BRANCH   2  25
ATOM     25  C   UNL     1       0.929   0.055  23.071  0.00  0.00    +0.241 C 
ATOM     26  O   UNL     1       0.638   0.082  22.300  0.00  0.00    -0.273 OA
ATOM     27  N   UNL     1       1.743   0.087  23.206  0.00  0.00    -0.200 NA
BRANCH  27  28
ATOM     28  C   UNL     1       2.264   0.145  22.571  0.00  0.00    +0.148 C 
BRANCH  28  29
ATOM     29  C   UNL     1       3.066   0.286  22.705  0.00  0.00    +0.029 A 
ATOM     30  C   UNL     1       3.455   1.008  22.612  0.00  0.00    +0.004 A 
ATOM     31  C   UNL     1       4.249   0.896  22.806  0.00  0.00    +0.007 A 
ATOM     32  C   UNL     1       4.351   0.105  23.019  0.00  0.00    +0.035 A 
ATOM     33  S   UNL     1       3.620  -0.272  22.957  0.00  0.00    -0.089 S 
ENDBRANCH  28  29
ENDBRANCH  27  28
ENDBRANCH   2  25
ENDBRANCH   3   2
TORSDOF 6
ENDMDL
MODEL 5
REMARK VINA RESULT:      -9.8      2.932      4.409
REMARK  Name = 
REMARK  6 active torsions:
REMARK  status: ('A' for Active; 'I' for Inactive)
REMARK    1  A    between atoms: C_2  and  C_3
REMARK    2  A    between atoms: C_2  and  C_25
REMARK    3  A    between atoms: C_10  and  N_11
REMARK    4  A    between atoms: C_12  and  C_14
REMARK    5  A    between atoms: N_27  and  C_28
REMARK    6  A    between atoms: C_28  and  C_29
REMARK                            x       y       z     vdW  Elec       q    Type
REMARK                         _______ _______ _______ _____ _____    ______ ____
ROOT
ATOM      3  C   UNL     1      -2.063   3.542  25.416  0.00  0.00    +0.039 C 
ATOM      4  C   UNL     1      -1.750   3.493  26.179  0.00  0.00    +0.003 C 
ATOM      5  C   UNL     1      -1.058   3.066  26.314  0.00  0.00    +0.000 C 
ATOM      6  C   UNL     1      -0.678   2.688  25.688  0.00  0.00    +0.002 C 
ATOM      7  C   UNL     1      -0.366   2.639  26.449  0.00  0.00    +0.000 C 
ATOM      8  C   UNL     1       0.015   2.260  25.823  0.00  0.00    +0.002 C 
ATOM      9  C   UNL     1       0.395   1.881  25.197  0.00  0.00    +0.022 C 
ATOM     10  C   UNL     1       0.082   1.930  24.434  0.00  0.00    +0.096 C 
ATOM     20  C   UNL     1      -0.610   2.357  24.299  0.00  0.00    +0.022 C 
ATOM     21  C   UNL     1      -0.923   2.405  23.537  0.00  0.00    +0.002 C 
ATOM     22  C   UNL     1      -0.991   2.736  24.925  0.00  0.00    +0.032 C 
ATOM     23  C   UNL     1      -1.683   3.163  24.790  0.00  0.00    +0.152 C 
ATOM     24  O   UNL     1      -1.996   3.211  24.028  0.00  0.00    -0.223 OA
ENDROOT
BRANCH  10  11
ATOM     11  N   UNL     1       0.462   1.551  23.807  0.00  0.00    -0.202 NA
ATOM     12  C   UNL     1       0.608   0.740  23.843  0.00  0.00    +0.282 C 
ATOM     13  O   UNL     1       0.373   0.307  24.505  0.00  0.00    -0.267 OA
BRANCH  12  14
ATOM     14  C   UNL     1       0.989   0.361  23.216  0.00  0.00    +0.136 A 
ATOM     15  N   UNL     1       1.792   0.490  23.082  0.00  0.00    -0.239 NA
ATOM     16  C   UNL     1       2.173   0.110  22.456  0.00  0.00    +0.099 A 
ATOM     17  C   UNL     1       1.749  -0.398  21.963  0.00  0.00    +0.021 A 
ATOM     18  C   UNL     1       0.944  -0.527  22.097  0.00  0.00    +0.003 A 
ATOM     19  C   UNL     1       0.565  -0.147  22.723  0.00  0.00    +0.024 A 
ENDBRANCH  12  14
ENDBRANCH  10  11
BRANCH   3   2
ATOM      1  C   UNL     1      -2.756   4.599  24.748  0.00  0.00    +0.010 C 
ATOM      2  C   UNL     1      -2.756   3.969  25.281  0.00  0.00    +0.081 C 
BRANCH   2  25
ATOM     25  C   UNL     1      -3.449   3.767  25.680  0.00  0.00    +0.241 C 
ATOM     26  O   UNL     1      -3.611   4.095  26.420  0.00  0.00    -0.273 OA
ATOM     27  N   UNL     1      -3.981   3.235  25.339  0.00  0.00    -0.200 NA
BRANCH  27  28
ATOM     28  C   UNL     1      -4.674   3.033  25.738  0.00  0.00    +0.148 C 
BRANCH  28  29
ATOM     29  C   UNL     1      -5.166   2.444  25.437  0.00  0.00    +0.029 A 
ATOM     30  C   UNL     1      -4.942   1.671  25.251  0.00  0.00    +0.004 A 
ATOM     31  C   UNL     1      -5.608   1.275  24.968  0.00  0.00    +0.007 A 
ATOM     32  C   UNL     1      -6.243   1.801  24.979  0.00  0.00    +0.035 A 
ATOM     33  S   UNL     1      -5.970   2.524  25.268  0.00  0.00    -0.089 S 
ENDBRANCH  28  29
ENDBRANCH  27  28
ENDBRANCH   2  25
ENDBRANCH   3   2
TORSDOF 6
ENDMDL
MODEL 6
REMARK VINA RESULT:      -9.8      2.929      4.265
REMARK  Name = 
REMARK  6 active torsions:
REMARK  status: ('A' for Active; 'I' for Inactive)
REMARK    1  A    between atoms: C_2  and  C_3
REMARK    2  A    between atoms: C_2  and  C_25
REMARK    3  A    between atoms: C_10  and  N_11
REMARK    4  A    between atoms: C_12  and  C_14
REMARK    5  A    between atoms: N_27  and  C_28
REMARK    6  A    between atoms: C_28  and  C_29
REMARK                            x       y       z     vdW  Elec       q    Type
REMARK                         _______ _______ _______ _____ _____    ______ ____
ROOT
ATOM      3  C   UNL     1      -3.456  -0.051  24.836  0.00  0.00    +0.039 C 
ATOM      4  C   UNL     1      -3.342  -0.565  25.473  0.00  0.00    +0.003 C 
ATOM      5  C   UNL     1      -2.582  -0.818  25.667  0.00  0.00    +0.000 C 
ATOM      6  C   UNL     1      -1.935  -0.558  25.226  0.00  0.00    +0.002 C 
ATOM      7  C   UNL     1      -1.821  -1.070  25.861  0.00  0.00    +0.000 C 
ATOM      8  C   UNL     1      -1.174  -0.810  25.420  0.00  0.00    +0.002 C 
ATOM      9  C   UNL     1      -0.528  -0.551  24.979  0.00  0.00    +0.022 C 
ATOM     10  C   UNL     1      -0.642  -0.037  24.342  0.00  0.00    +0.096 C 
ATOM     20  C   UNL     1      -1.402   0.215  24.148  0.00  0.00    +0.022 C 
ATOM     21  C   UNL     1      -1.517   0.728  23.512  0.00  0.00    +0.002 C 
ATOM     22  C   UNL     1      -2.050  -0.044  24.589  0.00  0.00    +0.032 C 
ATOM     23  C   UNL     1      -2.810   0.208  24.395  0.00  0.00    +0.152 C 
ATOM     24  O   UNL     1      -2.924   0.721  23.759  0.00  0.00    -0.223 OA
ENDROOT
BRANCH  10  11
ATOM     11  N   UNL     1       0.005   0.223  23.901  0.00  0.00    -0.202 NA
ATOM     12  C   UNL     1       0.581  -0.314  23.658  0.00  0.00    +0.282 C 
ATOM     13  O   UNL     1       0.511  -1.113  23.856  0.00  0.00    -0.267 OA
BRANCH  12  14
ATOM     14  C   UNL     1       1.229  -0.055  23.217  0.00  0.00    +0.136 A 
ATOM     15  N   UNL     1       1.729   0.527  23.520  0.00  0.00    -0.239 NA
ATOM     16  C   UNL     1       2.376   0.786  23.079  0.00  0.00    +0.099 A 
ATOM     17  C   UNL     1       2.522   0.464  22.334  0.00  0.00    +0.021 A 
ATOM     18  C   UNL     1       2.022  -0.118  22.030  0.00  0.00    +0.003 A 
ATOM     19  C   UNL     1       1.375  -0.377  22.472  0.00  0.00    +0.024 A 
ENDBRANCH  12  14
ENDBRANCH  10  11
BRANCH   3   2
ATOM      1  C   UNL     1      -4.554  -0.015  23.920  0.00  0.00    +0.010 C 
ATOM      2  C   UNL     1      -4.217   0.201  24.642  0.00  0.00    +0.081 C 
BRANCH   2  25
ATOM     25  C   UNL     1      -4.643   0.671  25.170  0.00  0.00    +0.241 C 
ATOM     26  O   UNL     1      -5.049   0.322  25.798  0.00  0.00    -0.273 OA
ATOM     27  N   UNL     1      -4.662   1.490  25.071  0.00  0.00    -0.200 NA
BRANCH  27  28
ATOM     28  C   UNL     1      -5.087   1.959  25.598  0.00  0.00    +0.148 C 
BRANCH  28  29
ATOM     29  C   UNL     1      -5.036   2.781  25.554  0.00  0.00    +0.029 A 
ATOM     30  C   UNL     1      -4.344   3.228  25.605  0.00  0.00    +0.004 A 
ATOM     31  C   UNL     1      -4.549   4.024  25.533  0.00  0.00    +0.007 A 
ATOM     32  C   UNL     1      -5.368   4.069  25.437  0.00  0.00    +0.035 A 
ATOM     33  S   UNL     1      -5.669   3.301  25.450  0.00  0.00    -0.089 S 
ENDBRANCH  28  29
ENDBRANCH  27  28
ENDBRANCH   2  25
ENDBRANCH   3   2
TORSDOF 6
ENDMDL
MODEL 7
REMARK VINA RESULT:      -9.7      2.567      4.962
REMARK  Name = 
REMARK  6 active torsions:
REMARK  status: ('A' for Active; 'I' for Inactive)
REMARK    1  A    between atoms: C_2  and  C_3
REMARK    2  A    between atoms: C_2  and  C_25
REMARK    3  A    between atoms: C_10  and  N_11
REMARK    4  A    between atoms: C_12  and  C_14
REMARK    5  A    between atoms: N_27  and  C_28
REMARK    6  A    between atoms: C_28  and  C_29
REMARK                            x       y       z     vdW  Elec       q    Type
REMARK                         _______ _______ _______ _____ _____    ______ ____
ROOT
ATOM      3  C   UNL     1      -1.695  -1.123  24.702  0.00  0.00    +0.039 C 
ATOM      4  C   UNL     1      -2.220  -1.722  24.480  0.00  0.00    +0.003 C 
ATOM      5  C   UNL     1      -3.031  -1.578  24.479  0.00  0.00    +0.000 C 
ATOM      6  C   UNL     1      -3.320  -0.838  24.699  0.00  0.00    +0.002 C 
ATOM      7  C   UNL     1      -3.843  -1.435  24.478  0.00  0.00    +0.000 C 
ATOM      8  C   UNL     1      -4.133  -0.694  24.698  0.00  0.00    +0.002 C 
ATOM      9  C   UNL     1      -4.421   0.046  24.918  0.00  0.00    +0.022 C 
ATOM     10  C   UNL     1      -3.897   0.644  25.139  0.00  0.00    +0.096 C 
ATOM     20  C   UNL     1      -3.085   0.501  25.140  0.00  0.00    +0.022 C 
ATOM     21  C   UNL     1      -2.561   1.099  25.361  0.00  0.00    +0.002 C 
ATOM     22  C   UNL     1      -2.795  -0.240  24.920  0.00  0.00    +0.032 C 
ATOM     23  C   UNL     1      -1.984  -0.383  24.921  0.00  0.00    +0.152 C 
ATOM     24  O   UNL     1      -1.460   0.215  25.142  0.00  0.00    -0.223 OA
ENDROOT
BRANCH  10  11
ATOM     11  N   UNL     1      -4.186   1.385  25.359  0.00  0.00    -0.202 NA
ATOM     12  C   UNL     1      -4.802   1.731  24.934  0.00  0.00    +0.282 C 
ATOM     13  O   UNL     1      -5.131   1.335  24.288  0.00  0.00    -0.267 OA
BRANCH  12  14
ATOM     14  C   UNL     1      -5.092   2.471  25.154  0.00  0.00    +0.136 A 
ATOM     15  N   UNL     1      -4.674   3.154  24.955  0.00  0.00    -0.239 NA
ATOM     16  C   UNL     1      -4.963   3.895  25.175  0.00  0.00    +0.099 A 
ATOM     17  C   UNL     1      -5.671   3.952  25.594  0.00  0.00    +0.021 A 
ATOM     18  C   UNL     1      -6.090   3.269  25.793  0.00  0.00    +0.003 A 
ATOM     19  C   UNL     1      -5.800   2.529  25.573  0.00  0.00    +0.024 A 
ENDBRANCH  12  14
ENDBRANCH  10  11
BRANCH   3   2
ATOM      1  C   UNL     1      -0.492  -1.430  25.411  0.00  0.00    +0.010 C 
ATOM      2  C   UNL     1      -0.882  -1.267  24.702  0.00  0.00    +0.081 C 
BRANCH   2  25
ATOM     25  C   UNL     1      -0.460  -1.247  23.994  0.00  0.00    +0.241 C 
ATOM     26  O   UNL     1      -0.620  -1.800  23.402  0.00  0.00    -0.273 OA
ATOM     27  N   UNL     1       0.124  -0.675  23.877  0.00  0.00    -0.200 NA
BRANCH  27  28
ATOM     28  C   UNL     1       0.546  -0.655  23.170  0.00  0.00    +0.148 C 
BRANCH  28  29
ATOM     29  C   UNL     1       1.182  -0.137  23.083  0.00  0.00    +0.029 A 
ATOM     30  C   UNL     1       1.215   0.641  23.355  0.00  0.00    +0.004 A 
ATOM     31  C   UNL     1       1.951   0.952  23.148  0.00  0.00    +0.007 A 
ATOM     32  C   UNL     1       2.372   0.366  22.748  0.00  0.00    +0.035 A 
ATOM     33  S   UNL     1       1.897  -0.307  22.707  0.00  0.00    -0.089 S 
ENDBRANCH  28  29
ENDBRANCH  27  28
ENDBRANCH   2  25
ENDBRANCH   3   2
TORSDOF 6
ENDMDL
MODEL 8
REMARK VINA RESULT:      -9.5      2.214      3.497
REMARK  Name = 
REMARK  6 active torsions:
REMARK  status: ('A' for Active; 'I' for Inactive)
REMARK    1  A    between atoms: C_2  and  C_3
REMARK    2  A    between atoms: C_2  and  C_25
REMARK    3  A    between atoms: C_10  and  N_11
REMARK    4  A    between atoms: C_12  and  C_14
REMARK    5  A    between atoms: N_27  and  C_28
REMARK    6  A    between atoms: C_28  and  C_29
REMARK                            x       y       z     vdW  Elec       q    Type
REMARK                         _______ _______ _______ _____ _____    ______ ____
ROOT
ATOM      3  C   UNL     1      -0.192   2.053  25.282  0.00  0.00    +0.039 C 
ATOM      4  C   UNL     1       0.312   2.064  24.627  0.00  0.00    +0.003 C 
ATOM      5  C   UNL     1       0.337   1.417  24.116  0.00  0.00    +0.000 C 
ATOM      6  C   UNL     1      -0.141   0.761  24.258  0.00  0.00    +0.002 C 
ATOM      7  C   UNL     1       0.362   0.771  23.605  0.00  0.00    +0.000 C 
ATOM      8  C   UNL     1      -0.116   0.113  23.747  0.00  0.00    +0.002 C 
ATOM      9  C   UNL     1      -0.594  -0.543  23.888  0.00  0.00    +0.022 C 
ATOM     10  C   UNL     1      -1.098  -0.554  24.543  0.00  0.00    +0.096 C 
ATOM     20  C   UNL     1      -1.123   0.093  25.054  0.00  0.00    +0.022 C 
ATOM     21  C   UNL     1      -1.626   0.082  25.707  0.00  0.00    +0.002 C 
ATOM     22  C   UNL     1      -0.645   0.750  24.912  0.00  0.00    +0.032 C 
ATOM     23  C   UNL     1      -0.670   1.397  25.423  0.00  0.00    +0.152 C 
ATOM     24  O   UNL     1      -1.173   1.386  26.077  0.00  0.00    -0.223 OA
ENDROOT
BRANCH  10  11
ATOM     11  N   UNL     1      -1.576  -1.211  24.684  0.00  0.00    -0.202 NA
ATOM     12  C   UNL     1      -2.205  -1.381  24.179  0.00  0.00    +0.282 C 
ATOM     13  O   UNL     1      -2.358  -0.892  23.531  0.00  0.00    -0.267 OA
BRANCH  12  14
ATOM     14  C   UNL     1      -2.683  -2.038  24.321  0.00  0.00    +0.136 A 
ATOM     15  N   UNL     1      -2.344  -2.754  24.551  0.00  0.00    -0.239 NA
ATOM     16  C   UNL     1      -2.822  -3.411  24.692  0.00  0.00    +0.099 A 
ATOM     17  C   UNL     1      -3.640  -3.352  24.604  0.00  0.00    +0.021 A 
ATOM     18  C   UNL     1      -3.980  -2.636  24.374  0.00  0.00    +0.003 A 
ATOM     19  C   UNL     1      -3.501  -1.979  24.232  0.00  0.00    +0.024 A 
ENDBRANCH  12  14
ENDBRANCH  10  11
BRANCH   3   2
ATOM      1  C   UNL     1       0.181   2.672  26.515  0.00  0.00    +0.010 C 
ATOM      2  C   UNL     1      -0.216   2.700  25.793  0.00  0.00    +0.081 C 
BRANCH   2  25
ATOM     25  C   UNL     1      -0.639   3.376  25.582  0.00  0.00    +0.241 C 
ATOM     26  O   UNL     1      -0.255   4.003  25.205  0.00  0.00    -0.273 OA
ATOM     27  N   UNL     1      -1.447   3.427  25.747  0.00  0.00    -0.200 NA
BRANCH  27  28
ATOM     28  C   UNL     1      -1.869   4.102  25.536  0.00  0.00    +0.148 C 
BRANCH  28  29
ATOM     29  C   UNL     1      -2.694   4.090  25.536  0.00  0.00    +0.029 A 
ATOM     30  C   UNL     1      -3.180   4.126  26.202  0.00  0.00    +0.004 A 
ATOM     31  C   UNL     1      -3.964   4.098  25.946  0.00  0.00    +0.007 A 
ATOM     32  C   UNL     1      -3.963   4.045  25.122  0.00  0.00    +0.035 A 
ATOM     33  S   UNL     1      -3.178   4.040  24.868  0.00  0.00    -0.089 S 
ENDBRANCH  28  29
ENDBRANCH  27  28
ENDBRANCH   2  25
ENDBRANCH   3   2
TORSDOF 6
ENDMDL
MODEL 9
REMARK VINA RESULT:      -9.4      1.832      3.035
REMARK  Name = 
REMARK  6 active torsions:
REMARK  status: ('A' for Active; 'I' for Inactive)
REMARK    1  A    between atoms: C_2  and  C_3
REMARK    2  A    between atoms: C_2  and  C_25
REMARK    3  A    between atoms: C_10  and  N_11
REMARK    4  A    between atoms: C_12  and  C_14
REMARK    5  A    between atoms: N_27  and  C_28
REMARK    6  A    between atoms: C_28  and  C_29
REMARK                            x       y       z     vdW  Elec       q    Type
REMARK                         _______ _______ _______ _____ _____    ______ ____
ROOT
ATOM      3  C   UNL     1      -1.496   2.957  25.069  0.00  0.00    +0.039 C 
ATOM      4  C   UNL     1      -0.912   2.927  25.653  0.00  0.00    +0.003 C 
ATOM      5  C   UNL     1      -0.625   2.199  25.912  0.00  0.00    +0.000 C 
ATOM      6  C   UNL     1      -0.920   1.501  25.588  0.00  0.00    +0.002 C 
ATOM      7  C   UNL     1      -0.337   1.471  26.171  0.00  0.00    +0.000 C 
ATOM      8  C   UNL     1      -0.632   0.772  25.847  0.00  0.00    +0.002 C 
ATOM      9  C   UNL     1      -0.927   0.073  25.524  0.00  0.00    +0.022 C 
ATOM     10  C   UNL     1      -1.511   0.103  24.940  0.00  0.00    +0.096 C 
ATOM     20  C   UNL     1      -1.798   0.831  24.681  0.00  0.00    +0.022 C 
ATOM     21  C   UNL     1      -2.381   0.860  24.098  0.00  0.00    +0.002 C 
ATOM     22  C   UNL     1      -1.503   1.530  25.005  0.00  0.00    +0.032 C 
ATOM     23  C   UNL     1      -1.791   2.258  24.746  0.00  0.00    +0.152 C 
ATOM     24  O   UNL     1      -2.374   2.287  24.163  0.00  0.00    -0.223 OA
ENDROOT
BRANCH  10  11
ATOM     11  N   UNL     1      -1.806  -0.597  24.617  0.00  0.00    -0.202 NA
ATOM     12  C   UNL     1      -2.138  -1.171  25.107  0.00  0.00    +0.282 C 
ATOM     13  O   UNL     1      -2.175  -1.045  25.923  0.00  0.00    -0.267 OA
BRANCH  12  14
ATOM     14  C   UNL     1      -2.433  -1.870  24.784  0.00  0.00    +0.136 A 
ATOM     15  N   UNL     1      -1.923  -2.398  24.407  0.00  0.00    -0.239 NA
ATOM     16  C   UNL     1      -2.218  -3.097  24.083  0.00  0.00    +0.099 A 
ATOM     17  C   UNL     1      -3.023  -3.269  24.138  0.00  0.00    +0.021 A 
ATOM     18  C   UNL     1      -3.534  -2.741  24.515  0.00  0.00    +0.003 A 
ATOM     19  C   UNL     1      -3.238  -2.042  24.838  0.00  0.00    +0.024 A 
ENDBRANCH  12  14
ENDBRANCH  10  11
BRANCH   3   2
ATOM      1  C   UNL     1      -1.482   4.029  24.123  0.00  0.00    +0.010 C 
ATOM      2  C   UNL     1      -1.783   3.686  24.810  0.00  0.00    +0.081 C 
BRANCH   2  25
ATOM     25  C   UNL     1      -2.373   4.072  25.239  0.00  0.00    +0.241 C 
ATOM     26  O   UNL     1      -2.179   4.708  25.728  0.00  0.00    -0.273 OA
ATOM     27  N   UNL     1      -3.158   3.822  25.178  0.00  0.00    -0.200 NA
BRANCH  27  28
ATOM     28  C   UNL     1      -3.747   4.208  25.607  0.00  0.00    +0.148 C 
BRANCH  28  29
ATOM     29  C   UNL     1      -4.503   3.881  25.655  0.00  0.00    +0.029 A 
ATOM     30  C   UNL     1      -4.717   3.214  26.091  0.00  0.00    +0.004 A 
ATOM     31  C   UNL     1      -5.524   3.086  25.980  0.00  0.00    +0.007 A 
ATOM     32  C   UNL     1      -5.810   3.675  25.476  0.00  0.00    +0.035 A 
ATOM     33  S   UNL     1      -5.179   4.166  25.275  0.00  0.00    -0.089 S 
ENDBRANCH  28  29
ENDBRANCH  27  28
ENDBRANCH   2  25
ENDBRANCH   3   2
TORSDOF 6
ENDMDL
MODEL 10
REMARK VINA RESULT:      -9.0      2.326      5.651
REMARK  Name = 
REMARK  6 active torsions:
REMARK  status: ('A' for Active; 'I' for Inactive)
REMARK    1  A    between atoms: C_2  and  C_3
REMARK    2  A    between atoms: C_2  and  C_25
REMARK    3  A    between atoms: C_10  and  N_11
REMARK    4  A    between atoms: C_12  and  C_14
REMARK    5  A    between atoms: N_27  and  C_28
REMARK    6  A    between atoms: C_28  and  C_29
REMARK                            x       y       z     vdW  Elec       q    Type
REMARK                         _______ _______ _______ _____ _____    ______ ____
ROOT
ATOM      3  C   UNL     1      -0.657   0.814  24.452  0.00  0.00    +0.039 C 
ATOM      4  C   UNL     1      -0.111   1.158  24.967  0.00  0.00    +0.003 C 
ATOM      5  C   UNL     1      -0.313   1.839  25.387  0.00  0.00    +0.000 C 
ATOM      6  C   UNL     1      -1.059   2.176  25.291  0.00  0.00    +0.002 C 
ATOM      7  C   UNL     1      -0.515   2.519  25.806  0.00  0.00    +0.000 C 
ATOM      8  C   UNL     1      -1.262   2.857  25.711  0.00  0.00    +0.002 C 
ATOM      9  C   UNL     1      -2.008   3.194  25.616  0.00  0.00    +0.022 C 
ATOM     10  C   UNL     1      -2.554   2.850  25.100  0.00  0.00    +0.096 C 
ATOM     20  C   UNL     1      -2.352   2.169  24.681  0.00  0.00    +0.022 C 
ATOM     21  C   UNL     1      -2.897   1.825  24.165  0.00  0.00    +0.002 C 
ATOM     22  C   UNL     1      -1.605   1.831  24.776  0.00  0.00    +0.032 C 
ATOM     23  C   UNL     1      -1.403   1.151  24.356  0.00  0.00    +0.152 C 
ATOM     24  O   UNL     1      -1.948   0.807  23.841  0.00  0.00    -0.223 OA
ENDROOT
BRANCH  10  11
ATOM     11  N   UNL     1      -3.301   3.187  25.005  0.00  0.00    -0.202 NA
ATOM     12  C   UNL     1      -3.761   3.364  25.665  0.00  0.00    +0.282 C 
ATOM     13  O   UNL     1      -3.475   3.203  26.423  0.00  0.00    -0.267 OA
BRANCH  12  14
ATOM     14  C   UNL     1      -4.508   3.702  25.570  0.00  0.00    +0.136 A 
ATOM     15  N   UNL     1      -4.578   4.491  25.341  0.00  0.00    -0.239 NA
ATOM     16  C   UNL     1      -5.325   4.828  25.246  0.00  0.00    +0.099 A 
ATOM     17  C   UNL     1      -6.002   4.376  25.381  0.00  0.00    +0.021 A 
ATOM     18  C   UNL     1      -5.932   3.586  25.610  0.00  0.00    +0.003 A 
ATOM     19  C   UNL     1      -5.185   3.250  25.705  0.00  0.00    +0.024 A 
ENDBRANCH  12  14
ENDBRANCH  10  11
BRANCH   3   2
ATOM      1  C   UNL     1      -0.185   0.191  23.254  0.00  0.00    +0.010 C 
ATOM      2  C   UNL     1      -0.454   0.133  24.032  0.00  0.00    +0.081 C 
BRANCH   2  25
ATOM     25  C   UNL     1      -0.521  -0.607  24.391  0.00  0.00    +0.241 C 
ATOM     26  O   UNL     1       0.121  -0.928  24.799  0.00  0.00    -0.273 OA
ATOM     27  N   UNL     1      -1.231  -1.027  24.342  0.00  0.00    -0.200 NA
BRANCH  27  28
ATOM     28  C   UNL     1      -1.298  -1.766  24.700  0.00  0.00    +0.148 C 
BRANCH  28  29
ATOM     29  C   UNL     1      -2.030  -2.144  24.732  0.00  0.00    +0.029 A 
ATOM     30  C   UNL     1      -2.639  -1.980  25.265  0.00  0.00    +0.004 A 
ATOM     31  C   UNL     1      -3.266  -2.489  25.098  0.00  0.00    +0.007 A 
ATOM     32  C   UNL     1      -3.046  -2.967  24.462  0.00  0.00    +0.035 A 
ATOM     33  S   UNL     1      -2.282  -2.754  24.236  0.00  0.00    -0.089 S 
ENDBRANCH  28  29
ENDBRANCH  27  28
ENDBRANCH   2  25
ENDBRANCH   3   2
TORSDOF 6
ENDMDL
