MODEL 1
REMARK VINA RESULT:     -11.1      0.000      0.000
REMARK  Name = 
REMARK  7 active torsions:
REMARK  status: ('A' for Active; 'I' for Inactive)
REMARK    1  A    between atoms: C_2  and  C_4
REMARK    2  A    between atoms: C_6  and  C_7
REMARK    3  A    between atoms: C_7  and  C_8
REMARK    4  A    between atoms: C_11  and  C_13
REMARK    5  A    between atoms: C_16  and  N_19
REMARK    6  A    between atoms: C_25  and  C_26
REMARK    7  A    between atoms: C_26  and  N_27
REMARK                            x       y       z     vdW  Elec       q    Type
REMARK                         _______ _______ _______ _____ _____    ______ ____
ROOT
ATOM      4  C   UNL     1      -3.451   3.720  25.660  0.00  0.00    +0.006 C 
ATOM      5  C   UNL     1      -4.027   3.228  25.331  0.00  0.00    +0.005 C 
ATOM      6  C   UNL     1      -3.977   3.008  24.538  0.00  0.00    +0.027 C 
ATOM     22  C   UNL     1      -3.352   3.279  24.073  0.00  0.00    -0.048 C 
ATOM     23  C   UNL     1      -3.303   3.059  23.278  0.00  0.00    +0.026 C 
ATOM     24  C   UNL     1      -2.777   3.771  24.400  0.00  0.00    -0.034 C 
ATOM     25  C   UNL     1      -2.826   3.991  25.194  0.00  0.00    +0.037 C 
ENDROOT
BRANCH   4   2
ATOM      1  C   UNL     1      -3.103   3.503  27.028  0.00  0.00    +0.000 C 
ATOM      2  C   UNL     1      -3.500   3.940  26.452  0.00  0.00    +0.000 C 
ATOM      3  C   UNL     1      -3.946   4.600  26.671  0.00  0.00    +0.000 C 
ENDBRANCH   4   2
BRANCH   6   7
ATOM      7  C   UNL     1      -4.553   2.516  24.210  0.00  0.00    +0.091 C 
BRANCH   7   8
ATOM      8  C   UNL     1      -4.656   1.750  24.502  0.00  0.00    +0.227 A 
ATOM      9  N   UNL     1      -5.284   1.490  24.970  0.00  0.00    -0.111 NA
ATOM     10  N   UNL     1      -5.165   0.690  25.134  0.00  0.00    -0.107 NA
ATOM     11  C   UNL     1      -4.463   0.456  24.768  0.00  0.00    +0.250 A 
ATOM     12  O   UNL     1      -4.149   1.112  24.377  0.00  0.00    -0.420 OA
BRANCH  11  13
ATOM     13  C   UNL     1      -4.134  -0.300  24.789  0.00  0.00    +0.055 A 
ATOM     14  C   UNL     1      -4.258  -0.821  24.162  0.00  0.00    +0.006 A 
ATOM     15  C   UNL     1      -3.929  -1.578  24.183  0.00  0.00    +0.024 A 
ATOM     16  C   UNL     1      -3.477  -1.812  24.832  0.00  0.00    +0.143 A 
ATOM     17  C   UNL     1      -3.353  -1.291  25.459  0.00  0.00    +0.024 A 
ATOM     18  C   UNL     1      -3.682  -0.535  25.438  0.00  0.00    +0.006 A 
BRANCH  16  19
ATOM     19  N   UNL     1      -3.148  -2.569  24.853  0.00  0.00    +0.058 N 
ATOM     20  O   UNL     1      -2.343  -2.673  24.705  0.00  0.00    -0.126 OA
ATOM     21  O   UNL     1      -3.624  -3.222  25.022  0.00  0.00    -0.126 OA
ENDBRANCH  16  19
ENDBRANCH  11  13
ENDBRANCH   7   8
ENDBRANCH   6   7
BRANCH  25  26
ATOM     26  C   UNL     1      -2.251   4.483  25.522  0.00  0.00    +0.076 C 
BRANCH  26  27
ATOM     27  N   UNL     1      -1.511   4.550  25.162  0.00  0.00    -0.272 NA
ATOM     28  C   UNL     1      -1.226   5.211  24.758  0.00  0.00    +0.072 C 
ATOM     29  C   UNL     1      -0.466   5.036  24.489  0.00  0.00    +0.019 C 
ATOM     30  C   UNL     1      -0.281   4.268  24.725  0.00  0.00    +0.019 C 
ATOM     31  C   UNL     1      -0.927   3.967  25.142  0.00  0.00    +0.072 C 
ENDBRANCH  26  27
ENDBRANCH  25  26
TORSDOF 7
ENDMDL
MODEL 2
REMARK VINA RESULT:     -10.4      2.214      5.990
REMARK  Name = 
REMARK  7 active torsions:
REMARK  status: ('A' for Active; 'I' for Inactive)
REMARK    1  A    between atoms: C_2  and  C_4
REMARK    2  A    between atoms: C_6  and  C_7
REMARK    3  A    between atoms: C_7  and  C_8
REMARK    4  A    between atoms: C_11  and  C_13
REMARK    5  A    between atoms: C_16  and  N_19
REMARK    6  A    between atoms: C_25  and  C_26
REMARK    7  A    between atoms: C_26  and  N_27
REMARK                            x       y       z     vdW  Elec       q    Type
REMARK                         _______ _______ _______ _____ _____    ______ ____
ROOT
ATOM      4  C   UNL     1      -3.010  -0.079  24.729  0.00  0.00    +0.006 C 
ATOM      5  C   UNL     1      -2.292   0.328  24.729  0.00  0.00    +0.005 C 
ATOM      6  C   UNL     1      -1.582  -0.087  24.803  0.00  0.00    +0.027 C 
ATOM     22  C   UNL     1      -1.591  -0.909  24.877  0.00  0.00    -0.048 C 
ATOM     23  C   UNL     1      -0.881  -1.324  24.951  0.00  0.00    +0.026 C 
ATOM     24  C   UNL     1      -2.309  -1.315  24.877  0.00  0.00    -0.034 C 
ATOM     25  C   UNL     1      -3.018  -0.901  24.803  0.00  0.00    +0.037 C 
ENDROOT
BRANCH   4   2
ATOM      1  C   UNL     1      -3.964   0.605  23.915  0.00  0.00    +0.000 C 
ATOM      2  C   UNL     1      -3.718   0.335  24.655  0.00  0.00    +0.000 C 
ATOM      3  C   UNL     1      -4.183   0.481  25.322  0.00  0.00    +0.000 C 
ENDBRANCH   4   2
BRANCH   6   7
ATOM      7  C   UNL     1      -0.865   0.321  24.803  0.00  0.00    +0.091 C 
BRANCH   7   8
ATOM      8  C   UNL     1      -0.807   1.053  25.180  0.00  0.00    +0.227 A 
ATOM      9  N   UNL     1      -0.532   1.183  25.946  0.00  0.00    -0.111 NA
ATOM     10  N   UNL     1      -0.569   1.994  26.096  0.00  0.00    -0.107 NA
ATOM     11  C   UNL     1      -0.866   2.364  25.422  0.00  0.00    +0.250 A 
ATOM     12  O   UNL     1      -1.014   1.783  24.855  0.00  0.00    -0.420 OA
BRANCH  11  13
ATOM     13  C   UNL     1      -0.995   3.175  25.331  0.00  0.00    +0.055 A 
ATOM     14  C   UNL     1      -1.640   3.534  25.698  0.00  0.00    +0.006 A 
ATOM     15  C   UNL     1      -1.768   4.344  25.607  0.00  0.00    +0.024 A 
ATOM     16  C   UNL     1      -1.250   4.794  25.148  0.00  0.00    +0.143 A 
ATOM     17  C   UNL     1      -0.605   4.434  24.781  0.00  0.00    +0.024 A 
ATOM     18  C   UNL     1      -0.477   3.624  24.873  0.00  0.00    +0.006 A 
BRANCH  16  19
ATOM     19  N   UNL     1      -1.378   5.604  25.057  0.00  0.00    +0.058 N 
ATOM     20  O   UNL     1      -2.076   5.945  25.333  0.00  0.00    -0.126 OA
ATOM     21  O   UNL     1      -0.807   6.074  24.689  0.00  0.00    -0.126 OA
ENDBRANCH  16  19
ENDBRANCH  11  13
ENDBRANCH   7   8
ENDBRANCH   6   7
BRANCH  25  26
ATOM     26  C   UNL     1      -3.736  -1.307  24.803  0.00  0.00    +0.076 C 
BRANCH  26  27
ATOM     27  N   UNL     1      -3.763  -2.096  24.562  0.00  0.00    -0.272 NA
ATOM     28  C   UNL     1      -3.572  -2.752  25.027  0.00  0.00    +0.072 C 
ATOM     29  C   UNL     1      -3.676  -3.428  24.566  0.00  0.00    +0.019 C 
ATOM     30  C   UNL     1      -3.931  -3.192  23.818  0.00  0.00    +0.019 C 
ATOM     31  C   UNL     1      -3.984  -2.368  23.815  0.00  0.00    +0.072 C 
ENDBRANCH  26  27
ENDBRANCH  25  26
TORSDOF 7
ENDMDL
MODEL 3
REMARK VINA RESULT:     -10.1      3.136      4.652
REMARK  Name = 
REMARK  7 active torsions:
REMARK  status: ('A' for Active; 'I' for Inactive)
REMARK    1  A    between atoms: C_2  and  C_4
REMARK    2  A    between atoms: C_6  and  C_7
REMARK    3  A    between atoms: C_7  and  C_8
REMARK    4  A    between atoms: C_11  and  C_13
REMARK    5  A    between atoms: C_16  and  N_19
REMARK    6  A    between atoms: C_25  and  C_26
REMARK    7  A    between atoms: C_26  and  N_27
REMARK                            x       y       z     vdW  Elec       q    Type
REMARK                         _______ _______ _______ _____ _____    ______ ____
ROOT
ATOM      4  C   UNL     1      -3.428   1.634  24.051  0.00  0.00    +0.006 C 
ATOM      5  C   UNL     1      -2.929   0.977  24.043  0.00  0.00    +0.005 C 
ATOM      6  C   UNL     1      -3.134   0.297  24.462  0.00  0.00    +0.027 C 
ATOM     22  C   UNL     1      -3.839   0.274  24.891  0.00  0.00    -0.048 C 
ATOM     23  C   UNL     1      -4.045  -0.407  25.311  0.00  0.00    +0.026 C 
ATOM     24  C   UNL     1      -4.338   0.930  24.900  0.00  0.00    -0.034 C 
ATOM     25  C   UNL     1      -4.133   1.610  24.480  0.00  0.00    +0.037 C 
ENDROOT
BRANCH   4   2
ATOM      1  C   UNL     1      -3.425   2.384  22.836  0.00  0.00    +0.000 C 
ATOM      2  C   UNL     1      -3.223   2.313  23.632  0.00  0.00    +0.000 C 
ATOM      3  C   UNL     1      -2.815   2.924  24.010  0.00  0.00    +0.000 C 
ENDBRANCH   4   2
BRANCH   6   7
ATOM      7  C   UNL     1      -2.635  -0.360  24.453  0.00  0.00    +0.091 C 
BRANCH   7   8
ATOM      8  C   UNL     1      -1.818  -0.258  24.528  0.00  0.00    +0.227 A 
ATOM      9  N   UNL     1      -1.396  -0.238  25.236  0.00  0.00    -0.111 NA
ATOM     10  N   UNL     1      -0.599  -0.126  25.054  0.00  0.00    -0.107 NA
ATOM     11  C   UNL     1      -0.530  -0.077  24.233  0.00  0.00    +0.250 A 
ATOM     12  O   UNL     1      -1.284  -0.159  23.908  0.00  0.00    -0.420 OA
BRANCH  11  13
ATOM     13  C   UNL     1       0.171   0.034  23.811  0.00  0.00    +0.055 A 
ATOM     14  C   UNL     1       0.581   0.747  23.873  0.00  0.00    +0.006 A 
ATOM     15  C   UNL     1       1.282   0.858  23.452  0.00  0.00    +0.024 A 
ATOM     16  C   UNL     1       1.572   0.255  22.969  0.00  0.00    +0.143 A 
ATOM     17  C   UNL     1       1.162  -0.458  22.907  0.00  0.00    +0.024 A 
ATOM     18  C   UNL     1       0.461  -0.569  23.329  0.00  0.00    +0.006 A 
BRANCH  16  19
ATOM     19  N   UNL     1       2.273   0.366  22.547  0.00  0.00    +0.058 N 
ATOM     20  O   UNL     1       2.370   0.013  21.808  0.00  0.00    -0.126 OA
ATOM     21  O   UNL     1       2.877   0.830  22.865  0.00  0.00    -0.126 OA
ENDBRANCH  16  19
ENDBRANCH  11  13
ENDBRANCH   7   8
ENDBRANCH   6   7
BRANCH  25  26
ATOM     26  C   UNL     1      -4.631   2.267  24.489  0.00  0.00    +0.076 C 
BRANCH  26  27
ATOM     27  N   UNL     1      -5.250   2.308  25.034  0.00  0.00    -0.272 NA
ATOM     28  C   UNL     1      -5.226   2.690  25.766  0.00  0.00    +0.072 C 
ATOM     29  C   UNL     1      -5.962   2.592  26.127  0.00  0.00    +0.019 C 
ATOM     30  C   UNL     1      -6.439   2.151  25.620  0.00  0.00    +0.019 C 
ATOM     31  C   UNL     1      -5.999   1.975  24.944  0.00  0.00    +0.072 C 
ENDBRANCH  26  27
ENDBRANCH  25  26
TORSDOF 7
ENDMDL
MODEL 4
REMARK VINA RESULT:      -9.6      1.747      2.717
REMARK  Name = 
REMARK  7 active torsions:
REMARK  status: ('A' for Active; 'I' for Inactive)
REMARK    1  A    between atoms: C_2  and  C_4
REMARK    2  A    between atoms: C_6  and  C_7
REMARK    3  A    between atoms: C_7  and  C_8
REMARK    4  A    between atoms: C_11  and  C_13
REMARK    5  A    between atoms: C_16  and  N_19
REMARK    6  A    between atoms: C_25  and  C_26
REMARK    7  A    between atoms: C_26  and  N_27
REMARK                            x       y       z     vdW  Elec       q    Type
REMARK                         _______ _______ _______ _____ _____    ______ ____
ROOT
ATOM      4  C   UNL     1      -1.994   2.309  24.394  0.00  0.00    +0.006 C 
ATOM      5  C   UNL     1      -1.595   1.606  24.560  0.00  0.00    +0.005 C 
ATOM      6  C   UNL     1      -0.975   1.602  25.105  0.00  0.00    +0.027 C 
ATOM     22  C   UNL     1      -0.756   2.302  25.484  0.00  0.00    -0.048 C 
ATOM     23  C   UNL     1      -0.136   2.298  26.029  0.00  0.00    +0.026 C 
ATOM     24  C   UNL     1      -1.155   3.004  25.318  0.00  0.00    -0.034 C 
ATOM     25  C   UNL     1      -1.774   3.008  24.773  0.00  0.00    +0.037 C 
ENDROOT
BRANCH   4   2
ATOM      1  C   UNL     1      -3.395   2.315  24.112  0.00  0.00    +0.000 C 
ATOM      2  C   UNL     1      -2.613   2.313  23.849  0.00  0.00    +0.000 C 
ATOM      3  C   UNL     1      -2.451   2.315  23.040  0.00  0.00    +0.000 C 
ENDBRANCH   4   2
BRANCH   6   7
ATOM      7  C   UNL     1      -0.576   0.899  25.270  0.00  0.00    +0.091 C 
BRANCH   7   8
ATOM      8  C   UNL     1      -1.003   0.216  25.451  0.00  0.00    +0.227 A 
ATOM      9  N   UNL     1      -0.997  -0.181  26.174  0.00  0.00    -0.111 NA
ATOM     10  N   UNL     1      -1.500  -0.832  26.111  0.00  0.00    -0.107 NA
ATOM     11  C   UNL     1      -1.817  -0.837  25.349  0.00  0.00    +0.250 A 
ATOM     12  O   UNL     1      -1.509  -0.189  24.941  0.00  0.00    -0.420 OA
BRANCH  11  13
ATOM     13  C   UNL     1      -2.348  -1.393  25.047  0.00  0.00    +0.055 A 
ATOM     14  C   UNL     1      -3.159  -1.284  25.149  0.00  0.00    +0.006 A 
ATOM     15  C   UNL     1      -3.690  -1.840  24.848  0.00  0.00    +0.024 A 
ATOM     16  C   UNL     1      -3.408  -2.503  24.445  0.00  0.00    +0.143 A 
ATOM     17  C   UNL     1      -2.597  -2.611  24.344  0.00  0.00    +0.024 A 
ATOM     18  C   UNL     1      -2.066  -2.055  24.645  0.00  0.00    +0.006 A 
BRANCH  16  19
ATOM     19  N   UNL     1      -3.939  -3.059  24.144  0.00  0.00    +0.058 N 
ATOM     20  O   UNL     1      -3.874  -3.852  24.362  0.00  0.00    -0.126 OA
ATOM     21  O   UNL     1      -4.535  -2.821  23.624  0.00  0.00    -0.126 OA
ENDBRANCH  16  19
ENDBRANCH  11  13
ENDBRANCH   7   8
ENDBRANCH   6   7
BRANCH  25  26
ATOM     26  C   UNL     1      -2.174   3.710  24.607  0.00  0.00    +0.076 C 
BRANCH  26  27
ATOM     27  N   UNL     1      -1.829   4.435  24.799  0.00  0.00    -0.272 NA
ATOM     28  C   UNL     1      -1.160   4.763  24.444  0.00  0.00    +0.072 C 
ATOM     29  C   UNL     1      -1.011   5.490  24.804  0.00  0.00    +0.019 C 
ATOM     30  C   UNL     1      -1.588   5.612  25.381  0.00  0.00    +0.019 C 
ATOM     31  C   UNL     1      -2.094   4.960  25.378  0.00  0.00    +0.072 C 
ENDBRANCH  26  27
ENDBRANCH  25  26
TORSDOF 7
ENDMDL
MODEL 5
REMARK VINA RESULT:      -9.6      2.008      3.638
REMARK  Name = 
REMARK  7 active torsions:
REMARK  status: ('A' for Active; 'I' for Inactive)
REMARK    1  A    between atoms: C_2  and  C_4
REMARK    2  A    between atoms: C_6  and  C_7
REMARK    3  A    between atoms: C_7  and  C_8
REMARK    4  A    between atoms: C_11  and  C_13
REMARK    5  A    between atoms: C_16  and  N_19
REMARK    6  A    between atoms: C_25  and  C_26
REMARK    7  A    between atoms: C_26  and  N_27
REMARK                            x       y       z     vdW  Elec       q    Type
REMARK                         _______ _______ _______ _____ _____    ______ ____
ROOT
ATOM      4  C   UNL     1      -3.202   2.988  24.026  0.00  0.00    +0.006 C 
ATOM      5  C   UNL     1      -2.395   2.969  24.200  0.00  0.00    +0.005 C 
ATOM      6  C   UNL     1      -2.127   3.195  24.947  0.00  0.00    +0.027 C 
ATOM     22  C   UNL     1      -2.667   3.440  25.521  0.00  0.00    -0.048 C 
ATOM     23  C   UNL     1      -2.400   3.666  26.269  0.00  0.00    +0.026 C 
ATOM     24  C   UNL     1      -3.473   3.460  25.348  0.00  0.00    -0.034 C 
ATOM     25  C   UNL     1      -3.740   3.234  24.601  0.00  0.00    +0.037 C 
ENDROOT
BRANCH   4   2
ATOM      1  C   UNL     1      -3.547   1.963  23.094  0.00  0.00    +0.000 C 
ATOM      2  C   UNL     1      -3.468   2.763  23.280  0.00  0.00    +0.000 C 
ATOM      3  C   UNL     1      -3.657   3.337  22.718  0.00  0.00    +0.000 C 
ENDBRANCH   4   2
BRANCH   6   7
ATOM      7  C   UNL     1      -1.321   3.175  25.119  0.00  0.00    +0.091 C 
BRANCH   7   8
ATOM      8  C   UNL     1      -0.892   2.478  25.007  0.00  0.00    +0.227 A 
ATOM      9  N   UNL     1      -0.107   2.427  24.760  0.00  0.00    -0.111 NA
ATOM     10  N   UNL     1       0.096   1.628  24.723  0.00  0.00    -0.107 NA
ATOM     11  C   UNL     1      -0.563   1.186  24.946  0.00  0.00    +0.250 A 
ATOM     12  O   UNL     1      -1.175   1.712  25.122  0.00  0.00    -0.420 OA
BRANCH  11  13
ATOM     13  C   UNL     1      -0.605   0.363  24.987  0.00  0.00    +0.055 A 
ATOM     14  C   UNL     1      -0.331  -0.095  24.358  0.00  0.00    +0.006 A 
ATOM     15  C   UNL     1      -0.372  -0.919  24.399  0.00  0.00    +0.024 A 
ATOM     16  C   UNL     1      -0.687  -1.283  25.070  0.00  0.00    +0.143 A 
ATOM     17  C   UNL     1      -0.960  -0.824  25.698  0.00  0.00    +0.024 A 
ATOM     18  C   UNL     1      -0.919  -0.001  25.657  0.00  0.00    +0.006 A 
BRANCH  16  19
ATOM     19  N   UNL     1      -0.728  -2.106  25.110  0.00  0.00    +0.058 N 
ATOM     20  O   UNL     1      -1.395  -2.500  24.827  0.00  0.00    -0.126 OA
ATOM     21  O   UNL     1      -0.102  -2.535  25.435  0.00  0.00    -0.126 OA
ENDBRANCH  16  19
ENDBRANCH  11  13
ENDBRANCH   7   8
ENDBRANCH   6   7
BRANCH  25  26
ATOM     26  C   UNL     1      -4.546   3.253  24.427  0.00  0.00    +0.076 C 
BRANCH  26  27
ATOM     27  N   UNL     1      -5.099   3.068  25.013  0.00  0.00    -0.272 NA
ATOM     28  C   UNL     1      -5.336   2.309  25.233  0.00  0.00    +0.072 C 
ATOM     29  C   UNL     1      -5.894   2.382  25.836  0.00  0.00    +0.019 C 
ATOM     30  C   UNL     1      -6.002   3.185  25.989  0.00  0.00    +0.019 C 
ATOM     31  C   UNL     1      -5.510   3.610  25.480  0.00  0.00    +0.072 C 
ENDBRANCH  26  27
ENDBRANCH  25  26
TORSDOF 7
ENDMDL
MODEL 6
REMARK VINA RESULT:      -9.5      1.871      5.643
REMARK  Name = 
REMARK  7 active torsions:
REMARK  status: ('A' for Active; 'I' for Inactive)
REMARK    1  A    between atoms: C_2  and  C_4
REMARK    2  A    between atoms: C_6  and  C_7
REMARK    3  A    between atoms: C_7  and  C_8
REMARK    4  A    between atoms: C_11  and  C_13
REMARK    5  A    between atoms: C_16  and  N_19
REMARK    6  A    between atoms: C_25  and  C_26
REMARK    7  A    between atoms: C_26  and  N_27
REMARK                            x       y       z     vdW  Elec       q    Type
REMARK                         _______ _______ _______ _____ _____    ______ ____
ROOT
ATOM      4  C   UNL     1      -2.720  -0.223  24.919  0.00  0.00    +0.006 C 
ATOM      5  C   UNL     1      -3.127   0.474  25.094  0.00  0.00    +0.005 C 
ATOM      6  C   UNL     1      -3.945   0.511  24.995  0.00  0.00    +0.027 C 
ATOM     22  C   UNL     1      -4.357  -0.150  24.722  0.00  0.00    -0.048 C 
ATOM     23  C   UNL     1      -5.176  -0.113  24.624  0.00  0.00    +0.026 C 
ATOM     24  C   UNL     1      -3.952  -0.846  24.548  0.00  0.00    -0.034 C 
ATOM     25  C   UNL     1      -3.133  -0.883  24.646  0.00  0.00    +0.037 C 
ENDROOT
BRANCH   4   2
ATOM      1  C   UNL     1      -1.403  -0.131  24.374  0.00  0.00    +0.000 C 
ATOM      2  C   UNL     1      -1.903  -0.259  25.017  0.00  0.00    +0.000 C 
ATOM      3  C   UNL     1      -1.583  -0.424  25.761  0.00  0.00    +0.000 C 
ENDBRANCH   4   2
BRANCH   6   7
ATOM      7  C   UNL     1      -4.350   1.208  25.170  0.00  0.00    +0.091 C 
BRANCH   7   8
ATOM      8  C   UNL     1      -4.079   1.929  24.871  0.00  0.00    +0.227 A 
ATOM      9  N   UNL     1      -4.421   2.358  24.256  0.00  0.00    -0.111 NA
ATOM     10  N   UNL     1      -3.972   3.040  24.141  0.00  0.00    -0.107 NA
ATOM     11  C   UNL     1      -3.352   3.032  24.685  0.00  0.00    +0.250 A 
ATOM     12  O   UNL     1      -3.418   2.345  25.137  0.00  0.00    -0.420 OA
BRANCH  11  13
ATOM     13  C   UNL     1      -2.768   3.610  24.763  0.00  0.00    +0.055 A 
ATOM     14  C   UNL     1      -2.872   4.232  25.295  0.00  0.00    +0.006 A 
ATOM     15  C   UNL     1      -2.288   4.810  25.373  0.00  0.00    +0.024 A 
ATOM     16  C   UNL     1      -1.600   4.765  24.919  0.00  0.00    +0.143 A 
ATOM     17  C   UNL     1      -1.497   4.144  24.387  0.00  0.00    +0.024 A 
ATOM     18  C   UNL     1      -2.081   3.566  24.309  0.00  0.00    +0.006 A 
BRANCH  16  19
ATOM     19  N   UNL     1      -1.016   5.343  24.997  0.00  0.00    +0.058 N 
ATOM     20  O   UNL     1      -1.229   6.136  25.073  0.00  0.00    -0.126 OA
ATOM     21  O   UNL     1      -0.220   5.128  25.000  0.00  0.00    -0.126 OA
ENDBRANCH  16  19
ENDBRANCH  11  13
ENDBRANCH   7   8
ENDBRANCH   6   7
BRANCH  25  26
ATOM     26  C   UNL     1      -2.727  -1.579  24.472  0.00  0.00    +0.076 C 
BRANCH  26  27
ATOM     27  N   UNL     1      -3.140  -2.291  24.404  0.00  0.00    -0.272 NA
ATOM     28  C   UNL     1      -3.544  -2.556  23.735  0.00  0.00    +0.072 C 
ATOM     29  C   UNL     1      -3.874  -3.291  23.911  0.00  0.00    +0.019 C 
ATOM     30  C   UNL     1      -3.674  -3.481  24.689  0.00  0.00    +0.019 C 
ATOM     31  C   UNL     1      -3.220  -2.863  24.994  0.00  0.00    +0.072 C 
ENDBRANCH  26  27
ENDBRANCH  25  26
TORSDOF 7
ENDMDL
