MODEL 1
REMARK VINA RESULT:     -14.9      0.000      0.000
REMARK  Name = 
REMARK  6 active torsions:
REMARK  status: ('A' for Active; 'I' for Inactive)
REMARK    1  A    between atoms: C_2  and  C_3
REMARK    2  A    between atoms: C_3  and  O_4
REMARK    3  A    between atoms: O_4  and  C_5
REMARK    4  A    between atoms: C_20  and  N_21
REMARK    5  A    between atoms: N_21  and  S_22
REMARK    6  A    between atoms: S_22  and  C_25
REMARK                            x       y       z     vdW  Elec       q    Type
REMARK                         _______ _______ _______ _____ _____    ______ ____
ROOT
ATOM      1  O   UNL     1      -2.430   3.300  24.801  0.00  0.00    -0.271 OA
ATOM      2  C   UNL     1      -3.127   2.875  24.918  0.00  0.00    +0.270 C 
ATOM     11  N   UNL     1      -3.820   3.270  25.131  0.00  0.00    -0.276 N 
ATOM     12  C   UNL     1      -4.326   3.905  25.326  0.00  0.00    +0.095 C 
ATOM     13  C   UNL     1      -5.168   3.408  25.470  0.00  0.00    +0.043 C 
ATOM     14  C   UNL     1      -5.926   3.152  25.622  0.00  0.00    +0.011 C 
ATOM     15  C   UNL     1      -5.310   2.869  25.441  0.00  0.00    +0.058 C 
ATOM     16  C   UNL     1      -4.504   3.364  25.306  0.00  0.00    +0.099 C 
ATOM     17  C   UNL     1      -4.915   2.061  25.252  0.00  0.00    +0.041 A 
ATOM     18  C   UNL     1      -5.094   1.257  25.201  0.00  0.00    +0.014 A 
ATOM     19  C   UNL     1      -4.505   0.717  24.997  0.00  0.00    +0.024 A 
ATOM     20  C   UNL     1      -3.738   0.979  24.844  0.00  0.00    +0.147 A 
ATOM     31  C   UNL     1      -3.559   1.783  24.895  0.00  0.00    +0.277 A 
ATOM     32  O   UNL     1      -2.800   1.539  24.684  0.00  0.00    -0.266 OA
ATOM     33  N   UNL     1      -4.148   2.324  25.099  0.00  0.00    -0.298 N 
ATOM     34  C   UNL     1      -4.747   2.568  25.271  0.00  0.00    +0.110 C 
ENDROOT
BRANCH   2   3
ATOM      3  C   UNL     1      -3.132   2.055  24.824  0.00  0.00    +0.290 C 
BRANCH   3   4
ATOM      4  O   UNL     1      -2.455   1.667  24.555  0.00  0.00    -0.466 OA
BRANCH   4   5
ATOM      5  C   UNL     1      -1.708   1.964  24.739  0.00  0.00    +0.139 A 
ATOM      6  C   UNL     1      -1.255   2.331  24.154  0.00  0.00    +0.037 A 
ATOM      7  C   UNL     1      -0.507   2.629  24.337  0.00  0.00    +0.003 A 
ATOM      8  C   UNL     1      -0.213   2.559  25.105  0.00  0.00    +0.000 A 
ATOM      9  C   UNL     1      -0.666   2.192  25.689  0.00  0.00    +0.003 A 
ATOM     10  C   UNL     1      -1.413   1.895  25.505  0.00  0.00    +0.037 A 
ENDBRANCH   4   5
ENDBRANCH   3   4
ENDBRANCH   2   3
BRANCH  20  21
ATOM     21  N   UNL     1      -3.150   0.438  24.640  0.00  0.00    -0.092 NA
BRANCH  21  22
ATOM     22  S   UNL     1      -3.333  -0.363  24.569  0.00  0.00    +0.093 S 
ATOM     23  O   UNL     1      -3.504  -0.253  23.769  0.00  0.00    -0.148 OA
ATOM     24  O   UNL     1      -3.163  -0.472  25.368  0.00  0.00    -0.148 OA
BRANCH  22  25
ATOM     25  C   UNL     1      -3.517  -1.165  24.498  0.00  0.00    +0.127 A 
ATOM     26  C   UNL     1      -3.985  -1.428  23.872  0.00  0.00    +0.020 A 
ATOM     27  C   UNL     1      -4.168  -2.229  23.803  0.00  0.00    +0.001 A 
ATOM     28  C   UNL     1      -3.882  -2.767  24.359  0.00  0.00    +0.000 A 
ATOM     29  C   UNL     1      -3.413  -2.504  24.985  0.00  0.00    +0.001 A 
ATOM     30  C   UNL     1      -3.231  -1.703  25.055  0.00  0.00    +0.020 A 
ENDBRANCH  22  25
ENDBRANCH  21  22
ENDBRANCH  20  21
TORSDOF 6
ENDMDL
MODEL 2
REMARK VINA RESULT:     -13.7      0.884      2.895
REMARK  Name = 
REMARK  6 active torsions:
REMARK  status: ('A' for Active; 'I' for Inactive)
REMARK    1  A    between atoms: C_2  and  C_3
REMARK    2  A    between atoms: C_3  and  O_4
REMARK    3  A    between atoms: O_4  and  C_5
REMARK    4  A    between atoms: C_20  and  N_21
REMARK    5  A    between atoms: N_21  and  S_22
REMARK    6  A    between atoms: S_22  and  C_25
REMARK                            x       y       z     vdW  Elec       q    Type
REMARK                         _______ _______ _______ _____ _____    ______ ____
ROOT
ATOM      1  O   UNL     1      -3.073   3.565  25.072  0.00  0.00    -0.271 OA
ATOM      2  C   UNL     1      -2.562   2.921  25.136  0.00  0.00    +0.270 C 
ATOM     11  N   UNL     1      -1.767   3.042  25.319  0.00  0.00    -0.276 N 
ATOM     12  C   UNL     1      -1.064   3.454  25.503  0.00  0.00    +0.095 C 
ATOM     13  C   UNL     1      -0.441   2.691  25.582  0.00  0.00    +0.043 C 
ATOM     14  C   UNL     1       0.188   2.183  25.682  0.00  0.00    +0.011 C 
ATOM     15  C   UNL     1      -0.496   2.139  25.530  0.00  0.00    +0.058 C 
ATOM     16  C   UNL     1      -1.085   2.887  25.456  0.00  0.00    +0.099 C 
ATOM     17  C   UNL     1      -1.154   1.526  25.340  0.00  0.00    +0.041 A 
ATOM     18  C   UNL     1      -1.268   0.714  25.256  0.00  0.00    +0.014 A 
ATOM     19  C   UNL     1      -2.016   0.419  25.070  0.00  0.00    +0.024 A 
ATOM     20  C   UNL     1      -2.650   0.937  24.970  0.00  0.00    +0.147 A 
ATOM     31  C   UNL     1      -2.537   1.750  25.055  0.00  0.00    +0.277 A 
ATOM     32  O   UNL     1      -3.342   1.793  24.882  0.00  0.00    -0.266 OA
ATOM     33  N   UNL     1      -1.789   2.044  25.240  0.00  0.00    -0.298 N 
ATOM     34  C   UNL     1      -1.135   2.059  25.384  0.00  0.00    +0.110 C 
ENDROOT
BRANCH   2   3
ATOM      3  C   UNL     1      -2.847   2.155  25.017  0.00  0.00    +0.290 C 
BRANCH   3   4
ATOM      4  O   UNL     1      -3.620   2.039  24.755  0.00  0.00    -0.466 OA
BRANCH   4   5
ATOM      5  C   UNL     1      -4.213   2.570  24.968  0.00  0.00    +0.139 A 
ATOM      6  C   UNL     1      -4.467   3.143  24.431  0.00  0.00    +0.037 A 
ATOM      7  C   UNL     1      -5.061   3.675  24.644  0.00  0.00    +0.003 A 
ATOM      8  C   UNL     1      -5.401   3.633  25.395  0.00  0.00    +0.000 A 
ATOM      9  C   UNL     1      -5.147   3.061  25.932  0.00  0.00    +0.003 A 
ATOM     10  C   UNL     1      -4.554   2.530  25.718  0.00  0.00    +0.037 A 
ENDBRANCH   4   5
ENDBRANCH   3   4
ENDBRANCH   2   3
BRANCH  20  21
ATOM     21  N   UNL     1      -3.398   0.642  24.785  0.00  0.00    -0.092 NA
BRANCH  21  22
ATOM     22  S   UNL     1      -3.508  -0.169  24.683  0.00  0.00    +0.093 S 
ATOM     23  O   UNL     1      -3.654  -0.251  25.490  0.00  0.00    -0.148 OA
ATOM     24  O   UNL     1      -3.361  -0.087  23.875  0.00  0.00    -0.148 OA
BRANCH  22  25
ATOM     25  C   UNL     1      -3.618  -0.981  24.580  0.00  0.00    +0.127 A 
ATOM     26  C   UNL     1      -3.371  -1.508  25.165  0.00  0.00    +0.020 A 
ATOM     27  C   UNL     1      -3.481  -2.319  25.062  0.00  0.00    +0.001 A 
ATOM     28  C   UNL     1      -3.838  -2.602  24.374  0.00  0.00    +0.000 A 
ATOM     29  C   UNL     1      -4.084  -2.075  23.789  0.00  0.00    +0.001 A 
ATOM     30  C   UNL     1      -3.974  -1.264  23.892  0.00  0.00    +0.020 A 
ENDBRANCH  22  25
ENDBRANCH  21  22
ENDBRANCH  20  21
TORSDOF 6
ENDMDL
MODEL 3
REMARK VINA RESULT:     -13.4      0.895      3.473
REMARK  Name = 
REMARK  6 active torsions:
REMARK  status: ('A' for Active; 'I' for Inactive)
REMARK    1  A    between atoms: C_2  and  C_3
REMARK    2  A    between atoms: C_3  and  O_4
REMARK    3  A    between atoms: O_4  and  C_5
REMARK    4  A    between atoms: C_20  and  N_21
REMARK    5  A    between atoms: N_21  and  S_22
REMARK    6  A    between atoms: S_22  and  C_25
REMARK                            x       y       z     vdW  Elec       q    Type
REMARK                         _______ _______ _______ _____ _____    ______ ____
ROOT
ATOM      1  O   UNL     1      -5.080  -0.047  24.624  0.00  0.00    -0.271 OA
ATOM      2  C   UNL     1      -4.825   0.719  24.790  0.00  0.00    +0.270 C 
ATOM     11  N   UNL     1      -5.374   1.304  24.982  0.00  0.00    -0.276 N 
ATOM     12  C   UNL     1      -6.116   1.657  25.133  0.00  0.00    +0.095 C 
ATOM     13  C   UNL     1      -5.823   2.579  25.334  0.00  0.00    +0.043 C 
ATOM     14  C   UNL     1      -5.748   3.368  25.522  0.00  0.00    +0.011 C 
ATOM     15  C   UNL     1      -5.327   2.833  25.353  0.00  0.00    +0.058 C 
ATOM     16  C   UNL     1      -5.625   1.946  25.161  0.00  0.00    +0.099 C 
ATOM     17  C   UNL     1      -4.441   2.625  25.226  0.00  0.00    +0.041 A 
ATOM     18  C   UNL     1      -3.692   2.971  25.246  0.00  0.00    +0.014 A 
ATOM     19  C   UNL     1      -3.024   2.518  25.077  0.00  0.00    +0.024 A 
ATOM     20  C   UNL     1      -3.104   1.719  24.887  0.00  0.00    +0.147 A 
ATOM     31  C   UNL     1      -3.852   1.373  24.867  0.00  0.00    +0.277 A 
ATOM     32  O   UNL     1      -3.436   0.691  24.663  0.00  0.00    -0.266 OA
ATOM     33  N   UNL     1      -4.521   1.826  25.036  0.00  0.00    -0.298 N 
ATOM     34  C   UNL     1      -4.900   2.353  25.198  0.00  0.00    +0.110 C 
ENDROOT
BRANCH   2   3
ATOM      3  C   UNL     1      -4.020   0.900  24.765  0.00  0.00    +0.290 C 
BRANCH   3   4
ATOM      4  O   UNL     1      -3.486   0.359  24.445  0.00  0.00    -0.466 OA
BRANCH   4   5
ATOM      5  C   UNL     1      -3.618  -0.450  24.527  0.00  0.00    +0.139 A 
ATOM      6  C   UNL     1      -3.872  -0.894  23.879  0.00  0.00    +0.037 A 
ATOM      7  C   UNL     1      -4.004  -1.705  23.961  0.00  0.00    +0.003 A 
ATOM      8  C   UNL     1      -3.882  -2.071  24.690  0.00  0.00    +0.000 A 
ATOM      9  C   UNL     1      -3.628  -1.627  25.338  0.00  0.00    +0.003 A 
ATOM     10  C   UNL     1      -3.496  -0.817  25.256  0.00  0.00    +0.037 A 
ENDBRANCH   4   5
ENDBRANCH   3   4
ENDBRANCH   2   3
BRANCH  20  21
ATOM     21  N   UNL     1      -2.435   1.267  24.718  0.00  0.00    -0.092 NA
BRANCH  21  22
ATOM     22  S   UNL     1      -1.684   1.598  24.791  0.00  0.00    +0.093 S 
ATOM     23  O   UNL     1      -1.703   1.818  23.997  0.00  0.00    -0.148 OA
ATOM     24  O   UNL     1      -1.664   1.378  25.586  0.00  0.00    -0.148 OA
BRANCH  22  25
ATOM     25  C   UNL     1      -0.931   1.930  24.865  0.00  0.00    +0.127 A 
ATOM     26  C   UNL     1      -0.564   1.961  25.604  0.00  0.00    +0.020 A 
ATOM     27  C   UNL     1       0.187   2.292  25.677  0.00  0.00    +0.001 A 
ATOM     28  C   UNL     1       0.572   2.592  25.012  0.00  0.00    +0.000 A 
ATOM     29  C   UNL     1       0.206   2.561  24.273  0.00  0.00    +0.001 A 
ATOM     30  C   UNL     1      -0.546   2.230  24.200  0.00  0.00    +0.020 A 
ENDBRANCH  22  25
ENDBRANCH  21  22
ENDBRANCH  20  21
TORSDOF 6
ENDMDL
