REMARK  Name = 
REMARK  3 active torsions:
REMARK  status: ('A' for Active; 'I' for Inactive)
REMARK    1  A    between atoms: O_2  and  C_3
REMARK    2  A    between atoms: C_7  and  C_8
REMARK    3  A    between atoms: C_8  and  N_9
REMARK                            x       y       z     vdW  Elec       q    Type
REMARK                         _______ _______ _______ _____ _____    ______ ____
ROOT
ATOM      9  N   UNL     1       3.352   1.935   0.000  0.00  0.00    -0.265 NA
ATOM     10  C   UNL     1       3.352   1.110   0.000  0.00  0.00    +0.094 C 
ATOM     11  C   UNL     1       2.638   0.698   0.000  0.00  0.00    +0.112 C 
ATOM     12  N   UNL     1       1.923   1.110   0.000  0.00  0.00    -0.261 N 
ATOM     13  C   UNL     1       1.923   1.935   0.000  0.00  0.00    +0.113 C 
ATOM     14  C   UNL     1       1.139   2.190   0.000  0.00  0.00    +0.116 C 
ATOM     15  N   UNL     1       0.654   1.523   0.000  0.00  0.00    -0.261 N 
ATOM     16  C   UNL     1      -0.171   1.523   0.000  0.00  0.00    +0.117 C 
ATOM     17  C   UNL     1       1.139   0.856   0.000  0.00  0.00    +0.307 C 
ATOM     18  O   UNL     1       0.884   0.071   0.000  0.00  0.00    -0.252 OA
ATOM     19  C   UNL     1       2.638   2.348   0.000  0.00  0.00    +0.094 C 
ENDROOT
BRANCH   9   8
ATOM      8  C   UNL     1       4.067   2.348   0.000  0.00  0.00    +0.119 C 
BRANCH   8   7
ATOM      3  C   UNL     1       6.210   1.935   0.000  0.00  0.00    +0.225 A 
ATOM      4  C   UNL     1       6.210   1.110   0.000  0.00  0.00    +0.058 A 
ATOM      5  C   UNL     1       5.496   0.698   0.000  0.00  0.00    +0.006 A 
ATOM      6  C   UNL     1       4.781   1.110   0.000  0.00  0.00    +0.016 A 
ATOM      7  C   UNL     1       4.781   1.935   0.000  0.00  0.00    +0.078 A 
ATOM     20  N   UNL     1       5.496   2.348   0.000  0.00  0.00    -0.215 NA
BRANCH   3   2
ATOM      1  C   UNL     1       7.639   1.935   0.000  0.00  0.00    +0.254 C 
ATOM      2  O   UNL     1       6.925   2.348   0.000  0.00  0.00    -0.456 OA
ENDBRANCH   3   2
ENDBRANCH   8   7
ENDBRANCH   9   8
TORSDOF 3
