MODEL 1
REMARK VINA RESULT:     -12.3      0.000      0.000
REMARK  Name = 
REMARK  2 active torsions:
REMARK  status: ('A' for Active; 'I' for Inactive)
REMARK    1  A    between atoms: C_13  and  N_19
REMARK    2  A    between atoms: C_20  and  C_22
REMARK                            x       y       z     vdW  Elec       q    Type
REMARK                         _______ _______ _______ _____ _____    ______ ____
ROOT
ATOM      1  C   UNL     1      -0.794   4.291  25.087  0.00  0.00    +0.095 C 
ATOM      2  C   UNL     1      -1.343   3.680  24.998  0.00  0.00    +0.226 C 
ATOM      3  O   UNL     1      -1.104   2.953  24.692  0.00  0.00    -0.275 OA
ATOM      4  N   UNL     1      -2.130   3.799  25.216  0.00  0.00    -0.272 N 
ATOM      5  C   UNL     1      -2.448   4.494  25.529  0.00  0.00    +0.096 C 
ATOM      6  C   UNL     1      -3.251   4.367  25.665  0.00  0.00    +0.045 C 
ATOM      7  C   UNL     1      -3.430   3.595  25.437  0.00  0.00    +0.124 C 
ATOM      8  N   UNL     1      -4.185   3.267  25.493  0.00  0.00    -0.204 NA
ATOM      9  C   UNL     1      -4.434   2.508  25.286  0.00  0.00    +0.260 C 
ATOM     10  O   UNL     1      -5.234   2.348  25.410  0.00  0.00    -0.272 OA
ATOM     11  C   UNL     1      -3.989   1.889  24.971  0.00  0.00    +0.155 C 
ATOM     12  C   UNL     1      -4.306   1.150  24.786  0.00  0.00    +0.053 C 
ATOM     13  C   UNL     1      -3.698   0.681  24.487  0.00  0.00    +0.118 C 
ATOM     14  C   UNL     1      -3.005   1.129  24.486  0.00  0.00    +0.115 C 
ATOM     15  N   UNL     1      -3.185   1.877  24.786  0.00  0.00    -0.270 N 
ATOM     16  C   UNL     1      -2.628   2.479  24.870  0.00  0.00    +0.246 C 
ATOM     17  O   UNL     1      -1.860   2.292  24.633  0.00  0.00    -0.273 OA
ATOM     18  C   UNL     1      -2.737   3.243  25.160  0.00  0.00    +0.172 C 
ENDROOT
BRANCH  13  19
ATOM     19  N   UNL     1      -3.769  -0.101  24.232  0.00  0.00    -0.201 NA
ATOM     20  C   UNL     1      -3.715  -0.718  24.776  0.00  0.00    +0.271 C 
ATOM     21  O   UNL     1      -3.589  -0.555  25.574  0.00  0.00    -0.268 OA
BRANCH  20  22
ATOM     22  C   UNL     1      -3.786  -1.500  24.521  0.00  0.00    +0.084 A 
ATOM     23  C   UNL     1      -4.274  -1.769  23.913  0.00  0.00    +0.012 A 
ATOM     24  C   UNL     1      -4.172  -2.584  23.845  0.00  0.00    +0.008 A 
ATOM     25  C   UNL     1      -3.620  -2.820  24.411  0.00  0.00    +0.036 A 
ATOM     26  S   UNL     1      -3.382  -2.149  24.829  0.00  0.00    -0.082 S 
ENDBRANCH  20  22
ENDBRANCH  13  19
TORSDOF 2
ENDMDL
MODEL 2
REMARK VINA RESULT:     -11.6      1.802      4.763
REMARK  Name = 
REMARK  2 active torsions:
REMARK  status: ('A' for Active; 'I' for Inactive)
REMARK    1  A    between atoms: C_13  and  N_19
REMARK    2  A    between atoms: C_20  and  C_22
REMARK                            x       y       z     vdW  Elec       q    Type
REMARK                         _______ _______ _______ _____ _____    ______ ____
ROOT
ATOM      1  C   UNL     1      -1.632  -2.559  24.588  0.00  0.00    +0.095 C 
ATOM      2  C   UNL     1      -1.847  -1.762  24.579  0.00  0.00    +0.226 C 
ATOM      3  O   UNL     1      -1.266  -1.180  24.527  0.00  0.00    -0.275 OA
ATOM      4  N   UNL     1      -2.643  -1.548  24.623  0.00  0.00    -0.272 N 
ATOM      5  C   UNL     1      -3.282  -2.068  24.677  0.00  0.00    +0.096 C 
ATOM      6  C   UNL     1      -3.973  -1.618  24.707  0.00  0.00    +0.045 C 
ATOM      7  C   UNL     1      -3.761  -0.822  24.671  0.00  0.00    +0.124 C 
ATOM      8  N   UNL     1      -4.308  -0.204  24.688  0.00  0.00    -0.204 NA
ATOM      9  C   UNL     1      -4.169   0.608  24.657  0.00  0.00    +0.260 C 
ATOM     10  O   UNL     1      -4.840   1.088  24.685  0.00  0.00    -0.272 OA
ATOM     11  C   UNL     1      -3.447   1.004  24.601  0.00  0.00    +0.155 C 
ATOM     12  C   UNL     1      -3.381   1.826  24.574  0.00  0.00    +0.053 C 
ATOM     13  C   UNL     1      -2.580   2.015  24.519  0.00  0.00    +0.118 C 
ATOM     14  C   UNL     1      -2.151   1.311  24.512  0.00  0.00    +0.115 C 
ATOM     15  N   UNL     1      -2.687   0.685  24.563  0.00  0.00    -0.270 N 
ATOM     16  C   UNL     1      -2.461  -0.108  24.571  0.00  0.00    +0.246 C 
ATOM     17  O   UNL     1      -1.650  -0.249  24.525  0.00  0.00    -0.273 OA
ATOM     18  C   UNL     1      -2.939  -0.779  24.619  0.00  0.00    +0.172 C 
ENDROOT
BRANCH  13  19
ATOM     19  N   UNL     1      -2.263   2.776  24.478  0.00  0.00    -0.201 NA
ATOM     20  C   UNL     1      -1.979   3.141  25.161  0.00  0.00    +0.271 C 
ATOM     21  O   UNL     1      -2.012   2.745  25.885  0.00  0.00    -0.268 OA
BRANCH  20  22
ATOM     22  C   UNL     1      -1.661   3.902  25.121  0.00  0.00    +0.084 A 
ATOM     23  C   UNL     1      -2.058   4.602  25.301  0.00  0.00    +0.012 A 
ATOM     24  C   UNL     1      -1.534   5.229  25.185  0.00  0.00    +0.008 A 
ATOM     25  C   UNL     1      -0.814   4.916  24.932  0.00  0.00    +0.036 A 
ATOM     26  S   UNL     1      -0.893   4.095  24.893  0.00  0.00    -0.082 S 
ENDBRANCH  20  22
ENDBRANCH  13  19
TORSDOF 2
ENDMDL
MODEL 3
REMARK VINA RESULT:     -11.3      2.203      5.333
REMARK  Name = 
REMARK  2 active torsions:
REMARK  status: ('A' for Active; 'I' for Inactive)
REMARK    1  A    between atoms: C_13  and  N_19
REMARK    2  A    between atoms: C_20  and  C_22
REMARK                            x       y       z     vdW  Elec       q    Type
REMARK                         _______ _______ _______ _____ _____    ______ ____
ROOT
ATOM      1  C   UNL     1      -3.620  -2.380  25.060  0.00  0.00    +0.095 C 
ATOM      2  C   UNL     1      -3.192  -1.684  24.941  0.00  0.00    +0.226 C 
ATOM      3  O   UNL     1      -3.561  -0.952  25.032  0.00  0.00    -0.275 OA
ATOM      4  N   UNL     1      -2.395  -1.721  24.731  0.00  0.00    -0.272 N 
ATOM      5  C   UNL     1      -1.954  -2.410  24.620  0.00  0.00    +0.096 C 
ATOM      6  C   UNL     1      -1.186  -2.190  24.415  0.00  0.00    +0.045 C 
ATOM      7  C   UNL     1      -1.152  -1.366  24.400  0.00  0.00    +0.124 C 
ATOM      8  N   UNL     1      -0.468  -0.942  24.215  0.00  0.00    -0.204 NA
ATOM      9  C   UNL     1      -0.363  -0.125  24.181  0.00  0.00    +0.260 C 
ATOM     10  O   UNL     1       0.396   0.130  23.978  0.00  0.00    -0.272 OA
ATOM     11  C   UNL     1      -0.915   0.471  24.322  0.00  0.00    +0.155 C 
ATOM     12  C   UNL     1      -0.740   1.276  24.269  0.00  0.00    +0.053 C 
ATOM     13  C   UNL     1      -1.425   1.698  24.446  0.00  0.00    +0.118 C 
ATOM     14  C   UNL     1      -2.024   1.156  24.609  0.00  0.00    +0.115 C 
ATOM     15  N   UNL     1      -1.709   0.397  24.532  0.00  0.00    -0.270 N 
ATOM     16  C   UNL     1      -2.147  -0.292  24.653  0.00  0.00    +0.246 C 
ATOM     17  O   UNL     1      -2.938  -0.181  24.861  0.00  0.00    -0.273 OA
ATOM     18  C   UNL     1      -1.899  -1.076  24.594  0.00  0.00    +0.172 C 
ENDROOT
BRANCH  13  19
ATOM     19  N   UNL     1      -1.498   2.520  24.459  0.00  0.00    -0.201 NA
ATOM     20  C   UNL     1      -1.344   2.937  25.154  0.00  0.00    +0.271 C 
ATOM     21  O   UNL     1      -1.116   2.532  25.835  0.00  0.00    -0.268 OA
BRANCH  20  22
ATOM     22  C   UNL     1      -1.418   3.759  25.166  0.00  0.00    +0.084 A 
ATOM     23  C   UNL     1      -0.844   4.301  24.926  0.00  0.00    +0.012 A 
ATOM     24  C   UNL     1      -1.149   5.059  25.033  0.00  0.00    +0.008 A 
ATOM     25  C   UNL     1      -1.912   4.987  25.339  0.00  0.00    +0.036 A 
ATOM     26  S   UNL     1      -2.077   4.183  25.421  0.00  0.00    -0.082 S 
ENDBRANCH  20  22
ENDBRANCH  13  19
TORSDOF 2
ENDMDL
MODEL 4
REMARK VINA RESULT:     -11.1      1.142      2.093
REMARK  Name = 
REMARK  2 active torsions:
REMARK  status: ('A' for Active; 'I' for Inactive)
REMARK    1  A    between atoms: C_13  and  N_19
REMARK    2  A    between atoms: C_20  and  C_22
REMARK                            x       y       z     vdW  Elec       q    Type
REMARK                         _______ _______ _______ _____ _____    ______ ____
ROOT
ATOM      1  C   UNL     1      -2.843   4.761  25.838  0.00  0.00    +0.095 C 
ATOM      2  C   UNL     1      -2.717   3.995  25.559  0.00  0.00    +0.226 C 
ATOM      3  O   UNL     1      -3.354   3.477  25.476  0.00  0.00    -0.275 OA
ATOM      4  N   UNL     1      -1.955   3.746  25.364  0.00  0.00    -0.272 N 
ATOM      5  C   UNL     1      -1.268   4.201  25.419  0.00  0.00    +0.096 C 
ATOM      6  C   UNL     1      -0.635   3.735  25.169  0.00  0.00    +0.045 C 
ATOM      7  C   UNL     1      -0.929   2.994  24.959  0.00  0.00    +0.124 C 
ATOM      8  N   UNL     1      -0.456   2.378  24.681  0.00  0.00    -0.204 NA
ATOM      9  C   UNL     1      -0.682   1.618  24.455  0.00  0.00    +0.260 C 
ATOM     10  O   UNL     1      -0.071   1.125  24.198  0.00  0.00    -0.272 OA
ATOM     11  C   UNL     1      -1.436   1.285  24.451  0.00  0.00    +0.155 C 
ATOM     12  C   UNL     1      -1.590   0.511  24.210  0.00  0.00    +0.053 C 
ATOM     13  C   UNL     1      -2.401   0.378  24.282  0.00  0.00    +0.118 C 
ATOM     14  C   UNL     1      -2.748   1.070  24.568  0.00  0.00    +0.115 C 
ATOM     15  N   UNL     1      -2.152   1.631  24.673  0.00  0.00    -0.270 N 
ATOM     16  C   UNL     1      -2.289   2.394  24.952  0.00  0.00    +0.246 C 
ATOM     17  O   UNL     1      -3.075   2.575  25.128  0.00  0.00    -0.273 OA
ATOM     18  C   UNL     1      -1.745   3.001  25.080  0.00  0.00    +0.172 C 
ENDROOT
BRANCH  13  19
ATOM     19  N   UNL     1      -2.796  -0.323  24.101  0.00  0.00    -0.201 NA
ATOM     20  C   UNL     1      -2.941  -0.879  24.693  0.00  0.00    +0.271 C 
ATOM     21  O   UNL     1      -2.691  -0.734  25.466  0.00  0.00    -0.268 OA
BRANCH  20  22
ATOM     22  C   UNL     1      -3.336  -1.581  24.512  0.00  0.00    +0.084 A 
ATOM     23  C   UNL     1      -4.018  -1.648  24.052  0.00  0.00    +0.012 A 
ATOM     24  C   UNL     1      -4.222  -2.446  24.015  0.00  0.00    +0.008 A 
ATOM     25  C   UNL     1      -3.667  -2.872  24.451  0.00  0.00    +0.036 A 
ATOM     26  S   UNL     1      -3.119  -2.337  24.758  0.00  0.00    -0.082 S 
ENDBRANCH  20  22
ENDBRANCH  13  19
TORSDOF 2
ENDMDL
MODEL 5
REMARK VINA RESULT:     -11.1      0.773      2.037
REMARK  Name = 
REMARK  2 active torsions:
REMARK  status: ('A' for Active; 'I' for Inactive)
REMARK    1  A    between atoms: C_13  and  N_19
REMARK    2  A    between atoms: C_20  and  C_22
REMARK                            x       y       z     vdW  Elec       q    Type
REMARK                         _______ _______ _______ _____ _____    ______ ____
ROOT
ATOM      1  C   UNL     1      -5.540   4.277  25.616  0.00  0.00    +0.095 C 
ATOM      2  C   UNL     1      -5.108   3.603  25.416  0.00  0.00    +0.226 C 
ATOM      3  O   UNL     1      -5.501   2.907  25.212  0.00  0.00    -0.275 OA
ATOM      4  N   UNL     1      -4.283   3.625  25.419  0.00  0.00    -0.272 N 
ATOM      5  C   UNL     1      -3.816   4.279  25.610  0.00  0.00    +0.096 C 
ATOM      6  C   UNL     1      -3.026   4.055  25.541  0.00  0.00    +0.045 C 
ATOM      7  C   UNL     1      -3.003   3.265  25.308  0.00  0.00    +0.124 C 
ATOM      8  N   UNL     1      -2.303   2.847  25.183  0.00  0.00    -0.204 NA
ATOM      9  C   UNL     1      -2.206   2.061  24.951  0.00  0.00    +0.260 C 
ATOM     10  O   UNL     1      -1.426   1.804  24.873  0.00  0.00    -0.272 OA
ATOM     11  C   UNL     1      -2.787   1.498  24.788  0.00  0.00    +0.155 C 
ATOM     12  C   UNL     1      -2.617   0.724  24.559  0.00  0.00    +0.053 C 
ATOM     13  C   UNL     1      -3.332   0.329  24.445  0.00  0.00    +0.118 C 
ATOM     14  C   UNL     1      -3.944   0.860  24.604  0.00  0.00    +0.115 C 
ATOM     15  N   UNL     1      -3.607   1.583  24.815  0.00  0.00    -0.270 N 
ATOM     16  C   UNL     1      -4.049   2.250  25.014  0.00  0.00    +0.246 C 
ATOM     17  O   UNL     1      -4.869   2.157  24.989  0.00  0.00    -0.273 OA
ATOM     18  C   UNL     1      -3.780   2.998  25.233  0.00  0.00    +0.172 C 
ENDROOT
BRANCH  13  19
ATOM     19  N   UNL     1      -3.421  -0.457  24.214  0.00  0.00    -0.201 NA
ATOM     20  C   UNL     1      -3.545  -1.042  24.783  0.00  0.00    +0.271 C 
ATOM     21  O   UNL     1      -3.581  -0.840  25.581  0.00  0.00    -0.268 OA
BRANCH  20  22
ATOM     22  C   UNL     1      -3.634  -1.830  24.551  0.00  0.00    +0.084 A 
ATOM     23  C   UNL     1      -4.127  -2.105  23.950  0.00  0.00    +0.012 A 
ATOM     24  C   UNL     1      -4.044  -2.925  23.908  0.00  0.00    +0.008 A 
ATOM     25  C   UNL     1      -3.500  -3.156  24.482  0.00  0.00    +0.036 A 
ATOM     26  S   UNL     1      -3.246  -2.479  24.880  0.00  0.00    -0.082 S 
ENDBRANCH  20  22
ENDBRANCH  13  19
TORSDOF 2
ENDMDL
MODEL 6
REMARK VINA RESULT:     -10.7      2.259      4.630
REMARK  Name = 
REMARK  2 active torsions:
REMARK  status: ('A' for Active; 'I' for Inactive)
REMARK    1  A    between atoms: C_13  and  N_19
REMARK    2  A    between atoms: C_20  and  C_22
REMARK                            x       y       z     vdW  Elec       q    Type
REMARK                         _______ _______ _______ _____ _____    ______ ____
ROOT
ATOM      1  C   UNL     1      -0.077  -1.883  25.315  0.00  0.00    +0.095 C 
ATOM      2  C   UNL     1      -0.810  -1.508  25.261  0.00  0.00    +0.226 C 
ATOM      3  O   UNL     1      -0.916  -0.761  25.593  0.00  0.00    -0.275 OA
ATOM      4  N   UNL     1      -1.436  -1.881  24.874  0.00  0.00    -0.272 N 
ATOM      5  C   UNL     1      -1.412  -2.625  24.517  0.00  0.00    +0.096 C 
ATOM      6  C   UNL     1      -2.158  -2.778  24.199  0.00  0.00    +0.045 C 
ATOM      7  C   UNL     1      -2.642  -2.131  24.359  0.00  0.00    +0.124 C 
ATOM      8  N   UNL     1      -3.432  -2.084  24.125  0.00  0.00    -0.204 NA
ATOM      9  C   UNL     1      -3.971  -1.472  24.250  0.00  0.00    +0.260 C 
ATOM     10  O   UNL     1      -4.728  -1.594  23.944  0.00  0.00    -0.272 OA
ATOM     11  C   UNL     1      -3.853  -0.755  24.640  0.00  0.00    +0.155 C 
ATOM     12  C   UNL     1      -4.442  -0.184  24.728  0.00  0.00    +0.053 C 
ATOM     13  C   UNL     1      -4.120   0.451  25.144  0.00  0.00    +0.118 C 
ATOM     14  C   UNL     1      -3.333   0.273  25.313  0.00  0.00    +0.115 C 
ATOM     15  N   UNL     1      -3.167  -0.473  25.001  0.00  0.00    -0.270 N 
ATOM     16  C   UNL     1      -2.430  -0.838  25.062  0.00  0.00    +0.246 C 
ATOM     17  O   UNL     1      -1.850  -0.409  25.461  0.00  0.00    -0.273 OA
ATOM     18  C   UNL     1      -2.196  -1.576  24.776  0.00  0.00    +0.172 C 
ENDROOT
BRANCH  13  19
ATOM     19  N   UNL     1      -4.516   1.143  25.355  0.00  0.00    -0.201 NA
ATOM     20  C   UNL     1      -4.417   1.828  24.905  0.00  0.00    +0.271 C 
ATOM     21  O   UNL     1      -3.923   1.819  24.245  0.00  0.00    -0.268 OA
BRANCH  20  22
ATOM     22  C   UNL     1      -4.813   2.521  25.116  0.00  0.00    +0.084 A 
ATOM     23  C   UNL     1      -5.606   2.577  25.338  0.00  0.00    +0.012 A 
ATOM     24  C   UNL     1      -5.769   3.369  25.501  0.00  0.00    +0.008 A 
ATOM     25  C   UNL     1      -5.077   3.802  25.379  0.00  0.00    +0.036 A 
ATOM     26  S   UNL     1      -4.487   3.277  25.141  0.00  0.00    -0.082 S 
ENDBRANCH  20  22
ENDBRANCH  13  19
TORSDOF 2
ENDMDL
MODEL 7
REMARK VINA RESULT:     -10.5      2.122      3.357
REMARK  Name = 
REMARK  2 active torsions:
REMARK  status: ('A' for Active; 'I' for Inactive)
REMARK    1  A    between atoms: C_13  and  N_19
REMARK    2  A    between atoms: C_20  and  C_22
REMARK                            x       y       z     vdW  Elec       q    Type
REMARK                         _______ _______ _______ _____ _____    ______ ____
ROOT
ATOM      1  C   UNL     1      -6.431   1.836  25.289  0.00  0.00    +0.095 C 
ATOM      2  C   UNL     1      -5.632   1.867  25.085  0.00  0.00    +0.226 C 
ATOM      3  O   UNL     1      -5.266   1.207  24.752  0.00  0.00    -0.275 OA
ATOM      4  N   UNL     1      -5.199   2.557  25.214  0.00  0.00    -0.272 N 
ATOM      5  C   UNL     1      -5.490   3.258  25.540  0.00  0.00    +0.096 C 
ATOM      6  C   UNL     1      -4.870   3.802  25.567  0.00  0.00    +0.045 C 
ATOM      7  C   UNL     1      -4.198   3.438  25.257  0.00  0.00    +0.124 C 
ATOM      8  N   UNL     1      -3.466   3.814  25.194  0.00  0.00    -0.204 NA
ATOM      9  C   UNL     1      -2.757   3.514  24.897  0.00  0.00    +0.260 C 
ATOM     10  O   UNL     1      -2.116   4.034  24.909  0.00  0.00    -0.272 OA
ATOM     11  C   UNL     1      -2.605   2.764  24.590  0.00  0.00    +0.155 C 
ATOM     12  C   UNL     1      -1.866   2.530  24.308  0.00  0.00    +0.053 C 
ATOM     13  C   UNL     1      -1.928   1.750  24.048  0.00  0.00    +0.118 C 
ATOM     14  C   UNL     1      -2.705   1.502  24.169  0.00  0.00    +0.115 C 
ATOM     15  N   UNL     1      -3.124   2.129  24.504  0.00  0.00    -0.270 N 
ATOM     16  C   UNL     1      -3.923   2.087  24.704  0.00  0.00    +0.246 C 
ATOM     17  O   UNL     1      -4.294   1.366  24.548  0.00  0.00    -0.273 OA
ATOM     18  C   UNL     1      -4.401   2.669  25.039  0.00  0.00    +0.172 C 
ENDROOT
BRANCH  13  19
ATOM     19  N   UNL     1      -1.319   1.297  23.724  0.00  0.00    -0.201 NA
ATOM     20  C   UNL     1      -0.840   0.840  24.216  0.00  0.00    +0.271 C 
ATOM     21  O   UNL     1      -0.968   0.836  25.030  0.00  0.00    -0.268 OA
BRANCH  20  22
ATOM     22  C   UNL     1      -0.231   0.386  23.891  0.00  0.00    +0.084 A 
ATOM     23  C   UNL     1       0.386   0.668  23.422  0.00  0.00    +0.012 A 
ATOM     24  C   UNL     1       0.866   0.028  23.220  0.00  0.00    +0.008 A 
ATOM     25  C   UNL     1       0.545  -0.649  23.564  0.00  0.00    +0.036 A 
ATOM     26  S   UNL     1      -0.133  -0.428  23.979  0.00  0.00    -0.082 S 
ENDBRANCH  20  22
ENDBRANCH  13  19
TORSDOF 2
ENDMDL
MODEL 8
REMARK VINA RESULT:     -10.1      2.050      3.233
REMARK  Name = 
REMARK  2 active torsions:
REMARK  status: ('A' for Active; 'I' for Inactive)
REMARK    1  A    between atoms: C_13  and  N_19
REMARK    2  A    between atoms: C_20  and  C_22
REMARK                            x       y       z     vdW  Elec       q    Type
REMARK                         _______ _______ _______ _____ _____    ______ ____
ROOT
ATOM      1  C   UNL     1      -5.287   4.212  25.646  0.00  0.00    +0.095 C 
ATOM      2  C   UNL     1      -4.812   3.595  25.372  0.00  0.00    +0.226 C 
ATOM      3  O   UNL     1      -4.053   3.753  25.091  0.00  0.00    -0.275 OA
ATOM      4  N   UNL     1      -5.096   2.820  25.380  0.00  0.00    -0.272 N 
ATOM      5  C   UNL     1      -5.840   2.579  25.644  0.00  0.00    +0.096 C 
ATOM      6  C   UNL     1      -5.890   1.761  25.551  0.00  0.00    +0.045 C 
ATOM      7  C   UNL     1      -5.178   1.497  25.231  0.00  0.00    +0.124 C 
ATOM      8  N   UNL     1      -5.022   0.704  25.060  0.00  0.00    -0.204 NA
ATOM      9  C   UNL     1      -4.337   0.371  24.742  0.00  0.00    +0.260 C 
ATOM     10  O   UNL     1      -4.353  -0.447  24.636  0.00  0.00    -0.272 OA
ATOM     11  C   UNL     1      -3.640   0.748  24.515  0.00  0.00    +0.155 C 
ATOM     12  C   UNL     1      -2.989   0.350  24.201  0.00  0.00    +0.053 C 
ATOM     13  C   UNL     1      -2.402   0.906  24.043  0.00  0.00    +0.118 C 
ATOM     14  C   UNL     1      -2.688   1.648  24.259  0.00  0.00    +0.115 C 
ATOM     15  N   UNL     1      -3.454   1.551  24.551  0.00  0.00    -0.270 N 
ATOM     16  C   UNL     1      -3.920   2.176  24.822  0.00  0.00    +0.246 C 
ATOM     17  O   UNL     1      -3.573   2.923  24.786  0.00  0.00    -0.273 OA
ATOM     18  C   UNL     1      -4.687   2.151  25.125  0.00  0.00    +0.172 C 
ENDROOT
BRANCH  13  19
ATOM     19  N   UNL     1      -1.657   0.748  23.724  0.00  0.00    -0.201 NA
ATOM     20  C   UNL     1      -1.034   0.534  24.220  0.00  0.00    +0.271 C 
ATOM     21  O   UNL     1      -1.155   0.479  25.034  0.00  0.00    -0.268 OA
BRANCH  20  22
ATOM     22  C   UNL     1      -0.289   0.376  23.902  0.00  0.00    +0.084 A 
ATOM     23  C   UNL     1       0.275   0.939  23.686  0.00  0.00    +0.012 A 
ATOM     24  C   UNL     1       0.935   0.539  23.394  0.00  0.00    +0.008 A 
ATOM     25  C   UNL     1       0.779  -0.270  23.430  0.00  0.00    +0.036 A 
ATOM     26  S   UNL     1       0.023  -0.371  23.744  0.00  0.00    -0.082 S 
ENDBRANCH  20  22
ENDBRANCH  13  19
TORSDOF 2
ENDMDL
MODEL 9
REMARK VINA RESULT:      -9.9      1.869      4.954
REMARK  Name = 
REMARK  2 active torsions:
REMARK  status: ('A' for Active; 'I' for Inactive)
REMARK    1  A    between atoms: C_13  and  N_19
REMARK    2  A    between atoms: C_20  and  C_22
REMARK                            x       y       z     vdW  Elec       q    Type
REMARK                         _______ _______ _______ _____ _____    ______ ____
ROOT
ATOM      1  C   UNL     1      -3.331  -3.360  24.609  0.00  0.00    +0.095 C 
ATOM      2  C   UNL     1      -3.228  -2.545  24.699  0.00  0.00    +0.226 C 
ATOM      3  O   UNL     1      -3.871  -2.068  24.894  0.00  0.00    -0.275 OA
ATOM      4  N   UNL     1      -2.481  -2.210  24.592  0.00  0.00    -0.272 N 
ATOM      5  C   UNL     1      -1.790  -2.617  24.397  0.00  0.00    +0.096 C 
ATOM      6  C   UNL     1      -1.177  -2.067  24.347  0.00  0.00    +0.045 C 
ATOM      7  C   UNL     1      -1.489  -1.322  24.511  0.00  0.00    +0.124 C 
ATOM      8  N   UNL     1      -1.038  -0.630  24.513  0.00  0.00    -0.204 NA
ATOM      9  C   UNL     1      -1.282   0.142  24.668  0.00  0.00    +0.260 C 
ATOM     10  O   UNL     1      -0.692   0.719  24.626  0.00  0.00    -0.272 OA
ATOM     11  C   UNL     1      -2.036   0.415  24.858  0.00  0.00    +0.155 C 
ATOM     12  C   UNL     1      -2.210   1.209  25.001  0.00  0.00    +0.053 C 
ATOM     13  C   UNL     1      -3.014   1.267  25.173  0.00  0.00    +0.118 C 
ATOM     14  C   UNL     1      -3.338   0.510  25.136  0.00  0.00    +0.115 C 
ATOM     15  N   UNL     1      -2.734  -0.017  24.941  0.00  0.00    -0.270 N 
ATOM     16  C   UNL     1      -2.849  -0.829  24.855  0.00  0.00    +0.246 C 
ATOM     17  O   UNL     1      -3.620  -1.097  24.975  0.00  0.00    -0.273 OA
ATOM     18  C   UNL     1      -2.295  -1.410  24.663  0.00  0.00    +0.172 C 
ENDROOT
BRANCH  13  19
ATOM     19  N   UNL     1      -3.423   1.961  25.350  0.00  0.00    -0.201 NA
ATOM     20  C   UNL     1      -3.928   2.297  24.790  0.00  0.00    +0.271 C 
ATOM     21  O   UNL     1      -4.022   1.939  24.053  0.00  0.00    -0.268 OA
BRANCH  20  22
ATOM     22  C   UNL     1      -4.338   2.991  24.967  0.00  0.00    +0.084 A 
ATOM     23  C   UNL     1      -4.099   3.757  24.775  0.00  0.00    +0.012 A 
ATOM     24  C   UNL     1      -4.671   4.280  25.057  0.00  0.00    +0.008 A 
ATOM     25  C   UNL     1      -5.263   3.838  25.422  0.00  0.00    +0.036 A 
ATOM     26  S   UNL     1      -5.057   3.041  25.367  0.00  0.00    -0.082 S 
ENDBRANCH  20  22
ENDBRANCH  13  19
TORSDOF 2
ENDMDL
MODEL 10
REMARK VINA RESULT:      -9.6      2.291      4.229
REMARK  Name = 
REMARK  2 active torsions:
REMARK  status: ('A' for Active; 'I' for Inactive)
REMARK    1  A    between atoms: C_13  and  N_19
REMARK    2  A    between atoms: C_20  and  C_22
REMARK                            x       y       z     vdW  Elec       q    Type
REMARK                         _______ _______ _______ _____ _____    ______ ____
ROOT
ATOM      1  C   UNL     1       0.599  -0.172  23.487  0.00  0.00    +0.095 C 
ATOM      2  C   UNL     1      -0.167  -0.032  23.761  0.00  0.00    +0.226 C 
ATOM      3  O   UNL     1      -0.530   0.695  23.615  0.00  0.00    -0.275 OA
ATOM      4  N   UNL     1      -0.570  -0.618  24.180  0.00  0.00    -0.272 N 
ATOM      5  C   UNL     1      -0.278  -1.368  24.366  0.00  0.00    +0.096 C 
ATOM      6  C   UNL     1      -0.863  -1.769  24.787  0.00  0.00    +0.045 C 
ATOM      7  C   UNL     1      -1.514  -1.269  24.861  0.00  0.00    +0.124 C 
ATOM      8  N   UNL     1      -2.209  -1.482  25.251  0.00  0.00    -0.204 NA
ATOM      9  C   UNL     1      -2.894  -1.036  25.362  0.00  0.00    +0.260 C 
ATOM     10  O   UNL     1      -3.501  -1.409  25.781  0.00  0.00    -0.272 OA
ATOM     11  C   UNL     1      -3.054  -0.267  25.111  0.00  0.00    +0.155 C 
ATOM     12  C   UNL     1      -3.767   0.121  25.258  0.00  0.00    +0.053 C 
ATOM     13  C   UNL     1      -3.721   0.874  24.925  0.00  0.00    +0.118 C 
ATOM     14  C   UNL     1      -2.980   0.952  24.571  0.00  0.00    +0.115 C 
ATOM     15  N   UNL     1      -2.567   0.246  24.686  0.00  0.00    -0.270 N 
ATOM     16  C   UNL     1      -1.801   0.117  24.408  0.00  0.00    +0.246 C 
ATOM     17  O   UNL     1      -1.459   0.746  23.997  0.00  0.00    -0.273 OA
ATOM     18  C   UNL     1      -1.333  -0.557  24.485  0.00  0.00    +0.172 C 
ENDROOT
BRANCH  13  19
ATOM     19  N   UNL     1      -4.313   1.449  24.942  0.00  0.00    -0.201 NA
ATOM     20  C   UNL     1      -4.198   2.144  25.370  0.00  0.00    +0.271 C 
ATOM     21  O   UNL     1      -3.494   2.265  25.781  0.00  0.00    -0.268 OA
BRANCH  20  22
ATOM     22  C   UNL     1      -4.790   2.720  25.387  0.00  0.00    +0.084 A 
ATOM     23  C   UNL     1      -5.603   2.579  25.391  0.00  0.00    +0.012 A 
ATOM     24  C   UNL     1      -5.988   3.308  25.410  0.00  0.00    +0.008 A 
ATOM     25  C   UNL     1      -5.413   3.900  25.418  0.00  0.00    +0.036 A 
ATOM     26  S   UNL     1      -4.673   3.536  25.404  0.00  0.00    -0.082 S 
ENDBRANCH  20  22
ENDBRANCH  13  19
TORSDOF 2
ENDMDL
