REMARK  Name = 
REMARK  10 active torsions:
REMARK  status: ('A' for Active; 'I' for Inactive)
REMARK    1  A    between atoms: O_2  and  C_3
REMARK    2  A    between atoms: C_3  and  C_4
REMARK    3  A    between atoms: C_4  and  N_5
REMARK    4  A    between atoms: N_5  and  C_6
REMARK    5  A    between atoms: C_6  and  C_7
REMARK    6  A    between atoms: C_11  and  C_12
REMARK    7  A    between atoms: C_12  and  C_13
REMARK    8  A    between atoms: C_16  and  C_18
REMARK    9  A    between atoms: C_21  and  N_24
REMARK   10  A    between atoms: C_28  and  C_29
REMARK                            x       y       z     vdW  Elec       q    Type
REMARK                         _______ _______ _______ _____ _____    ______ ____
ROOT
ATOM      7  C   UNL     1       4.141  -9.444   0.000  0.00  0.00    +0.039 C 
ATOM      8  C   UNL     1       4.855  -9.031   0.000  0.00  0.00    -0.033 C 
ATOM      9  C   UNL     1       5.570  -9.444   0.000  0.00  0.00    -0.048 C 
ATOM     10  C   UNL     1       6.284  -9.031   0.000  0.00  0.00    +0.026 C 
ATOM     11  C   UNL     1       5.570 -10.269   0.000  0.00  0.00    +0.027 C 
ATOM     27  C   UNL     1       4.855 -10.681   0.000  0.00  0.00    +0.005 C 
ATOM     28  C   UNL     1       4.141 -10.269   0.000  0.00  0.00    +0.006 C 
ENDROOT
BRANCH  28  29
ATOM     29  C   UNL     1       3.426 -10.681   0.000  0.00  0.00    +0.000 C 
ATOM     30  C   UNL     1       2.712 -10.269   0.000  0.00  0.00    +0.000 C 
ATOM     31  C   UNL     1       3.426 -11.506   0.000  0.00  0.00    +0.000 C 
ENDBRANCH  28  29
BRANCH   7   6
ATOM      6  C   UNL     1       3.426  -9.031   0.000  0.00  0.00    +0.093 C 
BRANCH   6   5
ATOM      5  N   UNL     1       2.712  -9.444   0.000  0.00  0.00    -0.215 NA
BRANCH   5   4
ATOM      4  C   UNL     1       1.997  -9.031   0.000  0.00  0.00    +0.121 C 
BRANCH   4   3
ATOM      3  C   UNL     1       1.283  -9.444   0.000  0.00  0.00    +0.161 C 
BRANCH   3   2
ATOM      1  C   UNL     1      -0.146  -9.444   0.000  0.00  0.00    +0.174 C 
ATOM      2  O   UNL     1       0.568  -9.031   0.000  0.00  0.00    -0.350 OA
ENDBRANCH   3   2
ENDBRANCH   4   3
ENDBRANCH   5   4
ENDBRANCH   6   5
ENDBRANCH   7   6
BRANCH  11  12
ATOM     12  C   UNL     1       6.284 -10.681   0.000  0.00  0.00    +0.091 C 
BRANCH  12  13
ATOM     13  C   UNL     1       6.999 -10.269   0.000  0.00  0.00    +0.227 A 
ATOM     14  N   UNL     1       7.085  -9.448   0.000  0.00  0.00    -0.111 NA
ATOM     15  N   UNL     1       7.892  -9.277   0.000  0.00  0.00    -0.107 NA
ATOM     16  C   UNL     1       8.304  -9.991   0.000  0.00  0.00    +0.250 A 
ATOM     17  O   UNL     1       7.752 -10.604   0.000  0.00  0.00    -0.420 OA
BRANCH  16  18
ATOM     18  C   UNL     1       9.125 -10.078   0.000  0.00  0.00    +0.055 A 
ATOM     19  C   UNL     1       9.610  -9.410   0.000  0.00  0.00    +0.006 A 
ATOM     20  C   UNL     1      10.430  -9.496   0.000  0.00  0.00    +0.024 A 
ATOM     21  C   UNL     1      10.766 -10.250   0.000  0.00  0.00    +0.143 A 
ATOM     22  C   UNL     1      10.281 -10.918   0.000  0.00  0.00    +0.024 A 
ATOM     23  C   UNL     1       9.460 -10.831   0.000  0.00  0.00    +0.006 A 
BRANCH  21  24
ATOM     24  N   UNL     1      11.586 -10.336   0.000  0.00  0.00    +0.058 N 
ATOM     25  O   UNL     1      12.071  -9.669   0.000  0.00  0.00    -0.126 OA
ATOM     26  O   UNL     1      11.922 -11.090   0.000  0.00  0.00    -0.126 OA
ENDBRANCH  21  24
ENDBRANCH  16  18
ENDBRANCH  12  13
ENDBRANCH  11  12
TORSDOF 10
