MODEL 1
REMARK VINA RESULT:     -10.4      0.000      0.000
REMARK  Name = 
REMARK  5 active torsions:
REMARK  status: ('A' for Active; 'I' for Inactive)
REMARK    1  A    between atoms: C_4  and  C_13
REMARK    2  A    between atoms: C_6  and  C_8
REMARK    3  A    between atoms: C_20  and  C_21
REMARK    4  A    between atoms: C_21  and  N_22
REMARK    5  A    between atoms: C_23  and  C_25
REMARK                            x       y       z     vdW  Elec       q    Type
REMARK                         _______ _______ _______ _____ _____    ______ ____
ROOT
ATOM     13  C   UNL     1      -3.770   1.540  24.298  0.00  0.00    +0.056 C 
ATOM     14  C   UNL     1      -3.447   1.099  23.744  0.00  0.00    +0.078 C 
ATOM     15  N   UNL     1      -4.011   0.854  24.296  0.00  0.00    -0.272 NA
ATOM     16  C   UNL     1      -4.238   1.684  24.895  0.00  0.00    +0.072 C 
ATOM     17  C   UNL     1      -4.569   1.954  25.389  0.00  0.00    +0.018 C 
ATOM     18  C   UNL     1      -4.323   1.293  24.835  0.00  0.00    +0.010 C 
ATOM     19  C   UNL     1      -4.711   0.517  24.965  0.00  0.00    +0.018 C 
ATOM     20  C   UNL     1      -4.418   0.050  24.437  0.00  0.00    +0.079 C 
ENDROOT
BRANCH  13   4
ATOM      1  C   UNL     1      -4.313   4.320  23.910  0.00  0.00    +0.074 C 
ATOM      2  C   UNL     1      -3.800   3.718  24.147  0.00  0.00    +0.139 A 
ATOM      3  N   UNL     1      -4.041   2.931  24.104  0.00  0.00    -0.235 NA
ATOM      4  C   UNL     1      -3.529   2.329  24.341  0.00  0.00    +0.063 A 
ATOM      5  C   UNL     1      -2.776   2.515  24.620  0.00  0.00    +0.034 A 
ATOM      6  C   UNL     1      -2.535   3.302  24.663  0.00  0.00    +0.090 A 
ATOM      7  N   UNL     1      -3.047   3.904  24.427  0.00  0.00    -0.230 NA
BRANCH   6   8
ATOM      8  C   UNL     1      -1.782   3.489  24.943  0.00  0.00    +0.047 A 
ATOM      9  C   UNL     1      -1.596   3.737  25.708  0.00  0.00    +0.009 A 
ATOM     10  C   UNL     1      -0.782   3.862  25.746  0.00  0.00    +0.008 A 
ATOM     11  C   UNL     1      -0.463   3.692  25.004  0.00  0.00    +0.035 A 
ATOM     12  S   UNL     1      -1.081   3.461  24.508  0.00  0.00    -0.085 S 
ENDBRANCH   6   8
ENDBRANCH  13   4
BRANCH  20  21
ATOM     21  C   UNL     1      -4.451  -0.725  24.158  0.00  0.00    +0.131 C 
BRANCH  21  22
ATOM     22  N   UNL     1      -3.939  -1.296  24.464  0.00  0.00    -0.204 NA
ATOM     23  C   UNL     1      -3.943  -2.061  24.155  0.00  0.00    +0.241 C 
ATOM     24  O   UNL     1      -4.457  -2.255  23.539  0.00  0.00    -0.273 OA
BRANCH  23  25
ATOM     25  C   UNL     1      -3.432  -2.631  24.461  0.00  0.00    +0.078 C 
ATOM     26  C   UNL     1      -2.673  -2.947  24.531  0.00  0.00    +0.010 C 
ATOM     27  C   UNL     1      -3.306  -3.305  24.920  0.00  0.00    +0.010 C 
ENDBRANCH  23  25
ENDBRANCH  21  22
ENDBRANCH  20  21
TORSDOF 5
ENDMDL
MODEL 2
REMARK VINA RESULT:     -10.2      1.590      2.429
REMARK  Name = 
REMARK  5 active torsions:
REMARK  status: ('A' for Active; 'I' for Inactive)
REMARK    1  A    between atoms: C_4  and  C_13
REMARK    2  A    between atoms: C_6  and  C_8
REMARK    3  A    between atoms: C_20  and  C_21
REMARK    4  A    between atoms: C_21  and  N_22
REMARK    5  A    between atoms: C_23  and  C_25
REMARK                            x       y       z     vdW  Elec       q    Type
REMARK                         _______ _______ _______ _____ _____    ______ ____
ROOT
ATOM     13  C   UNL     1      -1.930   1.549  24.980  0.00  0.00    +0.056 C 
ATOM     14  C   UNL     1      -2.611   1.429  25.338  0.00  0.00    +0.078 C 
ATOM     15  N   UNL     1      -2.328   1.020  24.679  0.00  0.00    -0.272 NA
ATOM     16  C   UNL     1      -1.388   1.422  24.446  0.00  0.00    +0.072 C 
ATOM     17  C   UNL     1      -0.852   1.434  24.072  0.00  0.00    +0.018 C 
ATOM     18  C   UNL     1      -1.660   1.144  24.333  0.00  0.00    +0.010 C 
ATOM     19  C   UNL     1      -2.008   0.492  23.860  0.00  0.00    +0.018 C 
ATOM     20  C   UNL     1      -2.683   0.343  24.182  0.00  0.00    +0.079 C 
ENDROOT
BRANCH  13   4
ATOM      1  C   UNL     1       0.305   2.333  26.580  0.00  0.00    +0.074 C 
ATOM      2  C   UNL     1      -0.325   2.533  26.086  0.00  0.00    +0.139 A 
ATOM      3  N   UNL     1      -0.812   1.942  25.780  0.00  0.00    -0.235 NA
ATOM      4  C   UNL     1      -1.442   2.141  25.286  0.00  0.00    +0.063 A 
ATOM      5  C   UNL     1      -1.584   2.931  25.097  0.00  0.00    +0.034 A 
ATOM      6  C   UNL     1      -1.096   3.522  25.402  0.00  0.00    +0.090 A 
ATOM      7  N   UNL     1      -0.467   3.323  25.896  0.00  0.00    -0.230 NA
BRANCH   6   8
ATOM      8  C   UNL     1      -1.238   4.312  25.213  0.00  0.00    +0.047 A 
ATOM      9  C   UNL     1      -0.731   4.808  24.791  0.00  0.00    +0.009 A 
ATOM     10  C   UNL     1      -1.090   5.548  24.730  0.00  0.00    +0.008 A 
ATOM     11  C   UNL     1      -1.819   5.510  25.114  0.00  0.00    +0.035 A 
ATOM     12  S   UNL     1      -1.910   4.747  25.413  0.00  0.00    -0.085 S 
ENDBRANCH   6   8
ENDBRANCH  13   4
BRANCH  20  21
ATOM     21  C   UNL     1      -3.345  -0.145  24.118  0.00  0.00    +0.131 C 
BRANCH  21  22
ATOM     22  N   UNL     1      -3.264  -0.963  24.191  0.00  0.00    -0.204 NA
ATOM     23  C   UNL     1      -3.931  -1.447  24.165  0.00  0.00    +0.241 C 
ATOM     24  O   UNL     1      -4.680  -1.114  24.066  0.00  0.00    -0.273 OA
BRANCH  23  25
ATOM     25  C   UNL     1      -3.851  -2.264  24.238  0.00  0.00    +0.078 C 
ATOM     26  C   UNL     1      -3.587  -2.922  24.662  0.00  0.00    +0.010 C 
ATOM     27  C   UNL     1      -3.974  -3.024  23.940  0.00  0.00    +0.010 C 
ENDBRANCH  23  25
ENDBRANCH  21  22
ENDBRANCH  20  21
TORSDOF 5
ENDMDL
MODEL 3
REMARK VINA RESULT:     -10.1      1.909      2.614
REMARK  Name = 
REMARK  5 active torsions:
REMARK  status: ('A' for Active; 'I' for Inactive)
REMARK    1  A    between atoms: C_4  and  C_13
REMARK    2  A    between atoms: C_6  and  C_8
REMARK    3  A    between atoms: C_20  and  C_21
REMARK    4  A    between atoms: C_21  and  N_22
REMARK    5  A    between atoms: C_23  and  C_25
REMARK                            x       y       z     vdW  Elec       q    Type
REMARK                         _______ _______ _______ _____ _____    ______ ____
ROOT
ATOM     13  C   UNL     1      -1.415   1.225  24.711  0.00  0.00    +0.056 C 
ATOM     14  C   UNL     1      -1.804   0.876  24.135  0.00  0.00    +0.078 C 
ATOM     15  N   UNL     1      -1.363   0.500  24.723  0.00  0.00    -0.272 NA
ATOM     16  C   UNL     1      -0.968   1.249  25.341  0.00  0.00    +0.072 C 
ATOM     17  C   UNL     1      -0.611   1.430  25.857  0.00  0.00    +0.018 C 
ATOM     18  C   UNL     1      -0.983   0.849  25.284  0.00  0.00    +0.010 C 
ATOM     19  C   UNL     1      -0.823  -0.000  25.437  0.00  0.00    +0.018 C 
ATOM     20  C   UNL     1      -1.192  -0.381  24.888  0.00  0.00    +0.079 C 
ENDROOT
BRANCH  13   4
ATOM      1  C   UNL     1      -0.202   3.764  24.204  0.00  0.00    +0.074 C 
ATOM      2  C   UNL     1      -0.837   3.319  24.488  0.00  0.00    +0.139 A 
ATOM      3  N   UNL     1      -0.809   2.495  24.458  0.00  0.00    -0.235 NA
ATOM      4  C   UNL     1      -1.443   2.050  24.741  0.00  0.00    +0.063 A 
ATOM      5  C   UNL     1      -2.105   2.428  25.055  0.00  0.00    +0.034 A 
ATOM      6  C   UNL     1      -2.133   3.252  25.085  0.00  0.00    +0.090 A 
ATOM      7  N   UNL     1      -1.500   3.698  24.802  0.00  0.00    -0.230 NA
BRANCH   6   8
ATOM      8  C   UNL     1      -2.795   3.632  25.398  0.00  0.00    +0.047 A 
ATOM      9  C   UNL     1      -2.855   3.960  26.153  0.00  0.00    +0.009 A 
ATOM     10  C   UNL     1      -3.609   4.280  26.234  0.00  0.00    +0.008 A 
ATOM     11  C   UNL     1      -4.018   4.151  25.529  0.00  0.00    +0.035 A 
ATOM     12  S   UNL     1      -3.515   3.750  25.012  0.00  0.00    -0.085 S 
ENDBRANCH   6   8
ENDBRANCH  13   4
BRANCH  20  21
ATOM     21  C   UNL     1      -1.345  -1.141  24.608  0.00  0.00    +0.131 C 
BRANCH  21  22
ATOM     22  N   UNL     1      -2.093  -1.474  24.705  0.00  0.00    -0.204 NA
ATOM     23  C   UNL     1      -2.237  -2.246  24.452  0.00  0.00    +0.241 C 
ATOM     24  O   UNL     1      -1.633  -2.685  24.101  0.00  0.00    -0.273 OA
BRANCH  23  25
ATOM     25  C   UNL     1      -2.985  -2.579  24.549  0.00  0.00    +0.078 C 
ATOM     26  C   UNL     1      -3.579  -2.871  25.042  0.00  0.00    +0.010 C 
ATOM     27  C   UNL     1      -3.688  -2.864  24.224  0.00  0.00    +0.010 C 
ENDBRANCH  23  25
ENDBRANCH  21  22
ENDBRANCH  20  21
TORSDOF 5
ENDMDL
MODEL 4
REMARK VINA RESULT:     -10.1      2.918      5.732
REMARK  Name = 
REMARK  5 active torsions:
REMARK  status: ('A' for Active; 'I' for Inactive)
REMARK    1  A    between atoms: C_4  and  C_13
REMARK    2  A    between atoms: C_6  and  C_8
REMARK    3  A    between atoms: C_20  and  C_21
REMARK    4  A    between atoms: C_21  and  N_22
REMARK    5  A    between atoms: C_23  and  C_25
REMARK                            x       y       z     vdW  Elec       q    Type
REMARK                         _______ _______ _______ _____ _____    ______ ____
ROOT
ATOM     13  C   UNL     1      -1.093   0.206  24.771  0.00  0.00    +0.056 C 
ATOM     14  C   UNL     1      -0.971   0.563  24.091  0.00  0.00    +0.078 C 
ATOM     15  N   UNL     1      -0.918   0.908  24.838  0.00  0.00    -0.272 NA
ATOM     16  C   UNL     1      -1.140   0.162  25.541  0.00  0.00    +0.072 C 
ATOM     17  C   UNL     1      -1.217  -0.029  26.160  0.00  0.00    +0.018 C 
ATOM     18  C   UNL     1      -1.039   0.552  25.501  0.00  0.00    +0.010 C 
ATOM     19  C   UNL     1      -0.842   1.370  25.752  0.00  0.00    +0.018 C 
ATOM     20  C   UNL     1      -0.714   1.757  25.106  0.00  0.00    +0.079 C 
ENDROOT
BRANCH  13   4
ATOM      1  C   UNL     1      -0.358  -2.543  25.047  0.00  0.00    +0.074 C 
ATOM      2  C   UNL     1      -0.928  -1.968  24.885  0.00  0.00    +0.139 A 
ATOM      3  N   UNL     1      -0.726  -1.169  24.909  0.00  0.00    -0.235 NA
ATOM      4  C   UNL     1      -1.296  -0.594  24.748  0.00  0.00    +0.063 A 
ATOM      5  C   UNL     1      -2.067  -0.819  24.562  0.00  0.00    +0.034 A 
ATOM      6  C   UNL     1      -2.269  -1.618  24.539  0.00  0.00    +0.090 A 
ATOM      7  N   UNL     1      -1.700  -2.193  24.700  0.00  0.00    -0.230 NA
BRANCH   6   8
ATOM      8  C   UNL     1      -3.041  -1.843  24.353  0.00  0.00    +0.047 A 
ATOM      9  C   UNL     1      -3.593  -1.390  23.940  0.00  0.00    +0.009 A 
ATOM     10  C   UNL     1      -4.289  -1.827  23.880  0.00  0.00    +0.008 A 
ATOM     11  C   UNL     1      -4.168  -2.552  24.256  0.00  0.00    +0.035 A 
ATOM     12  S   UNL     1      -3.397  -2.562  24.549  0.00  0.00    -0.085 S 
ENDBRANCH   6   8
ENDBRANCH  13   4
BRANCH  20  21
ATOM     21  C   UNL     1      -0.511   2.503  24.819  0.00  0.00    +0.131 C 
BRANCH  21  22
ATOM     22  N   UNL     1      -0.933   3.168  25.063  0.00  0.00    -0.204 NA
ATOM     23  C   UNL     1      -0.769   3.905  24.731  0.00  0.00    +0.241 C 
ATOM     24  O   UNL     1      -0.183   3.977  24.155  0.00  0.00    -0.273 OA
BRANCH  23  25
ATOM     25  C   UNL     1      -1.192   4.570  24.974  0.00  0.00    +0.078 C 
ATOM     26  C   UNL     1      -1.842   4.903  25.358  0.00  0.00    +0.010 C 
ATOM     27  C   UNL     1      -1.273   5.390  25.013  0.00  0.00    +0.010 C 
ENDBRANCH  23  25
ENDBRANCH  21  22
ENDBRANCH  20  21
TORSDOF 5
ENDMDL
MODEL 5
REMARK VINA RESULT:      -9.7      2.071      5.024
REMARK  Name = 
REMARK  5 active torsions:
REMARK  status: ('A' for Active; 'I' for Inactive)
REMARK    1  A    between atoms: C_4  and  C_13
REMARK    2  A    between atoms: C_6  and  C_8
REMARK    3  A    between atoms: C_20  and  C_21
REMARK    4  A    between atoms: C_21  and  N_22
REMARK    5  A    between atoms: C_23  and  C_25
REMARK                            x       y       z     vdW  Elec       q    Type
REMARK                         _______ _______ _______ _____ _____    ______ ____
ROOT
ATOM     13  C   UNL     1      -3.197   0.872  24.565  0.00  0.00    +0.056 C 
ATOM     14  C   UNL     1      -3.195   1.173  25.282  0.00  0.00    +0.078 C 
ATOM     15  N   UNL     1      -3.187   1.598  24.575  0.00  0.00    -0.272 NA
ATOM     16  C   UNL     1      -3.195   0.899  23.794  0.00  0.00    +0.072 C 
ATOM     17  C   UNL     1      -3.196   0.761  23.155  0.00  0.00    +0.018 C 
ATOM     18  C   UNL     1      -3.190   1.295  23.875  0.00  0.00    +0.010 C 
ATOM     19  C   UNL     1      -3.178   2.158  23.715  0.00  0.00    +0.018 C 
ATOM     20  C   UNL     1      -3.174   2.494  24.401  0.00  0.00    +0.079 C 
ENDROOT
BRANCH  13   4
ATOM      1  C   UNL     1      -4.619  -1.551  24.032  0.00  0.00    +0.074 C 
ATOM      2  C   UNL     1      -3.920  -1.163  24.235  0.00  0.00    +0.139 A 
ATOM      3  N   UNL     1      -3.908  -0.340  24.299  0.00  0.00    -0.235 NA
ATOM      4  C   UNL     1      -3.209   0.048  24.502  0.00  0.00    +0.063 A 
ATOM      5  C   UNL     1      -2.522  -0.385  24.641  0.00  0.00    +0.034 A 
ATOM      6  C   UNL     1      -2.533  -1.208  24.578  0.00  0.00    +0.090 A 
ATOM      7  N   UNL     1      -3.232  -1.597  24.375  0.00  0.00    -0.230 NA
BRANCH   6   8
ATOM      8  C   UNL     1      -1.846  -1.642  24.718  0.00  0.00    +0.047 A 
ATOM      9  C   UNL     1      -1.581  -2.287  24.275  0.00  0.00    +0.009 A 
ATOM     10  C   UNL     1      -0.875  -2.552  24.607  0.00  0.00    +0.008 A 
ATOM     11  C   UNL     1      -0.702  -2.072  25.256  0.00  0.00    +0.035 A 
ATOM     12  S   UNL     1      -1.302  -1.510  25.324  0.00  0.00    -0.085 S 
ENDBRANCH   6   8
ENDBRANCH  13   4
BRANCH  20  21
ATOM     21  C   UNL     1      -3.165   3.232  24.767  0.00  0.00    +0.131 C 
BRANCH  21  22
ATOM     22  N   UNL     1      -2.512   3.729  24.679  0.00  0.00    -0.204 NA
ATOM     23  C   UNL     1      -2.383   4.339  25.218  0.00  0.00    +0.241 C 
ATOM     24  O   UNL     1      -2.906   4.454  25.846  0.00  0.00    -0.273 OA
BRANCH  23  25
ATOM     25  C   UNL     1      -1.730   4.836  25.130  0.00  0.00    +0.078 C 
ATOM     26  C   UNL     1      -0.917   4.938  25.040  0.00  0.00    +0.010 C 
ATOM     27  C   UNL     1      -1.414   5.596  25.066  0.00  0.00    +0.010 C 
ENDBRANCH  23  25
ENDBRANCH  21  22
ENDBRANCH  20  21
TORSDOF 5
ENDMDL
MODEL 6
REMARK VINA RESULT:      -9.7      2.481      4.819
REMARK  Name = 
REMARK  5 active torsions:
REMARK  status: ('A' for Active; 'I' for Inactive)
REMARK    1  A    between atoms: C_4  and  C_13
REMARK    2  A    between atoms: C_6  and  C_8
REMARK    3  A    between atoms: C_20  and  C_21
REMARK    4  A    between atoms: C_21  and  N_22
REMARK    5  A    between atoms: C_23  and  C_25
REMARK                            x       y       z     vdW  Elec       q    Type
REMARK                         _______ _______ _______ _____ _____    ______ ____
ROOT
ATOM     13  C   UNL     1      -3.895  -0.443  25.041  0.00  0.00    +0.056 C 
ATOM     14  C   UNL     1      -3.993  -0.220  25.780  0.00  0.00    +0.078 C 
ATOM     15  N   UNL     1      -4.334   0.131  25.115  0.00  0.00    -0.272 NA
ATOM     16  C   UNL     1      -4.003  -0.404  24.277  0.00  0.00    +0.072 C 
ATOM     17  C   UNL     1      -3.994  -0.500  23.631  0.00  0.00    +0.018 C 
ATOM     18  C   UNL     1      -4.233  -0.093  24.394  0.00  0.00    +0.010 C 
ATOM     19  C   UNL     1      -4.775   0.593  24.312  0.00  0.00    +0.018 C 
ATOM     20  C   UNL     1      -4.897   0.843  25.023  0.00  0.00    +0.079 C 
ENDROOT
BRANCH  13   4
ATOM      1  C   UNL     1      -3.570  -3.236  24.527  0.00  0.00    +0.074 C 
ATOM      2  C   UNL     1      -3.241  -2.489  24.647  0.00  0.00    +0.139 A 
ATOM      3  N   UNL     1      -3.732  -1.840  24.784  0.00  0.00    -0.235 NA
ATOM      4  C   UNL     1      -3.403  -1.093  24.904  0.00  0.00    +0.063 A 
ATOM      5  C   UNL     1      -2.585  -0.994  24.889  0.00  0.00    +0.034 A 
ATOM      6  C   UNL     1      -2.095  -1.643  24.752  0.00  0.00    +0.090 A 
ATOM      7  N   UNL     1      -2.422  -2.391  24.632  0.00  0.00    -0.230 NA
BRANCH   6   8
ATOM      8  C   UNL     1      -1.275  -1.546  24.736  0.00  0.00    +0.047 A 
ATOM      9  C   UNL     1      -0.832  -1.276  24.095  0.00  0.00    +0.009 A 
ATOM     10  C   UNL     1      -0.039  -1.264  24.320  0.00  0.00    +0.008 A 
ATOM     11  C   UNL     1       0.009  -1.526  25.101  0.00  0.00    +0.035 A 
ATOM     12  S   UNL     1      -0.756  -1.700  25.358  0.00  0.00    -0.085 S 
ENDBRANCH   6   8
ENDBRANCH  13   4
BRANCH  20  21
ATOM     21  C   UNL     1      -5.301   1.419  25.453  0.00  0.00    +0.131 C 
BRANCH  21  22
ATOM     22  N   UNL     1      -5.175   2.219  25.293  0.00  0.00    -0.204 NA
ATOM     23  C   UNL     1      -5.497   2.794  25.789  0.00  0.00    +0.241 C 
ATOM     24  O   UNL     1      -5.944   2.570  26.445  0.00  0.00    -0.273 OA
BRANCH  23  25
ATOM     25  C   UNL     1      -5.371   3.593  25.629  0.00  0.00    +0.078 C 
ATOM     26  C   UNL     1      -4.854   4.221  25.488  0.00  0.00    +0.010 C 
ATOM     27  C   UNL     1      -5.669   4.350  25.493  0.00  0.00    +0.010 C 
ENDBRANCH  23  25
ENDBRANCH  21  22
ENDBRANCH  20  21
TORSDOF 5
ENDMDL
MODEL 7
REMARK VINA RESULT:      -9.5      2.912      4.065
REMARK  Name = 
REMARK  5 active torsions:
REMARK  status: ('A' for Active; 'I' for Inactive)
REMARK    1  A    between atoms: C_4  and  C_13
REMARK    2  A    between atoms: C_6  and  C_8
REMARK    3  A    between atoms: C_20  and  C_21
REMARK    4  A    between atoms: C_21  and  N_22
REMARK    5  A    between atoms: C_23  and  C_25
REMARK                            x       y       z     vdW  Elec       q    Type
REMARK                         _______ _______ _______ _____ _____    ______ ____
ROOT
ATOM     13  C   UNL     1      -1.334   2.266  24.429  0.00  0.00    +0.056 C 
ATOM     14  C   UNL     1      -1.363   2.075  23.675  0.00  0.00    +0.078 C 
ATOM     15  N   UNL     1      -0.881   1.727  24.248  0.00  0.00    -0.272 NA
ATOM     16  C   UNL     1      -1.081   2.210  25.156  0.00  0.00    +0.072 C 
ATOM     17  C   UNL     1      -0.973   2.284  25.796  0.00  0.00    +0.018 C 
ATOM     18  C   UNL     1      -0.858   1.920  24.985  0.00  0.00    +0.010 C 
ATOM     19  C   UNL     1      -0.268   1.272  24.933  0.00  0.00    +0.018 C 
ATOM     20  C   UNL     1      -0.267   1.054  24.201  0.00  0.00    +0.079 C 
ENDROOT
BRANCH  13   4
ATOM      1  C   UNL     1      -1.706   4.984  25.234  0.00  0.00    +0.074 C 
ATOM      2  C   UNL     1      -2.016   4.234  25.087  0.00  0.00    +0.139 A 
ATOM      3  N   UNL     1      -1.520   3.626  24.832  0.00  0.00    -0.235 NA
ATOM      4  C   UNL     1      -1.830   2.875  24.684  0.00  0.00    +0.063 A 
ATOM      5  C   UNL     1      -2.635   2.733  24.792  0.00  0.00    +0.034 A 
ATOM      6  C   UNL     1      -3.130   3.341  25.047  0.00  0.00    +0.090 A 
ATOM      7  N   UNL     1      -2.821   4.091  25.194  0.00  0.00    -0.230 NA
BRANCH   6   8
ATOM      8  C   UNL     1      -3.936   3.199  25.155  0.00  0.00    +0.047 A 
ATOM      9  C   UNL     1      -4.430   2.790  24.636  0.00  0.00    +0.009 A 
ATOM     10  C   UNL     1      -5.188   2.780  24.960  0.00  0.00    +0.008 A 
ATOM     11  C   UNL     1      -5.163   3.182  25.680  0.00  0.00    +0.035 A 
ATOM     12  S   UNL     1      -4.390   3.441  25.800  0.00  0.00    -0.085 S 
ENDBRANCH   6   8
ENDBRANCH  13   4
BRANCH  20  21
ATOM     21  C   UNL     1       0.083   0.522  23.678  0.00  0.00    +0.131 C 
BRANCH  21  22
ATOM     22  N   UNL     1       0.875   0.614  23.463  0.00  0.00    -0.204 NA
ATOM     23  C   UNL     1       1.226   0.077  22.946  0.00  0.00    +0.241 C 
ATOM     24  O   UNL     1       0.788  -0.552  22.643  0.00  0.00    -0.273 OA
BRANCH  23  25
ATOM     25  C   UNL     1       2.018   0.169  22.731  0.00  0.00    +0.078 C 
ATOM     26  C   UNL     1       2.783   0.418  22.913  0.00  0.00    +0.010 C 
ATOM     27  C   UNL     1       2.623   0.081  22.177  0.00  0.00    +0.010 C 
ENDBRANCH  23  25
ENDBRANCH  21  22
ENDBRANCH  20  21
TORSDOF 5
ENDMDL
