MODEL 1
REMARK VINA RESULT:     -11.8      0.000      0.000
REMARK  Name = 
REMARK  8 active torsions:
REMARK  status: ('A' for Active; 'I' for Inactive)
REMARK    1  A    between atoms: O_2  and  C_3
REMARK    2  A    between atoms: C_3  and  C_5
REMARK    3  A    between atoms: C_18  and  N_30
REMARK    4  A    between atoms: C_20  and  C_22
REMARK    5  A    between atoms: N_30  and  C_31
REMARK    6  A    between atoms: C_31  and  C_32
REMARK    7  A    between atoms: C_32  and  C_33
REMARK    8  A    between atoms: C_33  and  N_34
REMARK                            x       y       z     vdW  Elec       q    Type
REMARK                         _______ _______ _______ _____ _____    ______ ____
ROOT
ATOM      5  C   UNL     1      -2.861   1.165  24.729  0.00  0.00    +0.162 C 
ATOM      6  C   UNL     1      -2.946   1.965  24.909  0.00  0.00    +0.055 C 
ATOM      7  C   UNL     1      -2.281   2.453  24.940  0.00  0.00    -0.004 A 
ATOM      8  C   UNL     1      -1.532   2.141  24.791  0.00  0.00    +0.070 A 
ATOM      9  N   UNL     1      -0.983   2.752  24.861  0.00  0.00    -0.249 NA
ATOM     10  C   UNL     1      -1.391   3.443  25.053  0.00  0.00    +0.081 A 
ATOM     11  C   UNL     1      -2.194   3.258  25.102  0.00  0.00    +0.015 A 
ATOM     12  C   UNL     1      -2.742   3.846  25.287  0.00  0.00    +0.001 A 
ATOM     13  C   UNL     1      -2.488   4.619  25.424  0.00  0.00    +0.000 A 
ATOM     14  C   UNL     1      -1.684   4.804  25.375  0.00  0.00    +0.002 A 
ATOM     15  C   UNL     1      -1.136   4.216  25.190  0.00  0.00    +0.019 A 
ATOM     16  C   UNL     1      -1.447   1.340  24.611  0.00  0.00    +0.100 C 
ATOM     17  C   UNL     1      -0.699   1.027  24.462  0.00  0.00    +0.040 C 
ATOM     18  C   UNL     1      -0.615   0.227  24.282  0.00  0.00    +0.076 C 
ATOM     19  C   UNL     1      -1.279  -0.261  24.251  0.00  0.00    +0.038 C 
ATOM     20  C   UNL     1      -2.027   0.052  24.400  0.00  0.00    +0.082 C 
ATOM     21  N   UNL     1      -2.112   0.852  24.580  0.00  0.00    -0.258 NA
ENDROOT
BRANCH  20  22
ATOM     22  C   UNL     1      -2.692  -0.437  24.369  0.00  0.00    -0.005 A 
ATOM     23  C   UNL     1      -3.168  -0.444  23.696  0.00  0.00    -0.002 A 
ATOM     24  C   UNL     1      -3.832  -0.933  23.666  0.00  0.00    +0.013 A 
ATOM     25  C   UNL     1      -4.019  -1.415  24.309  0.00  0.00    +0.085 A 
ATOM     26 CL   UNL     1      -4.683  -1.904  24.278  0.00  0.00    -0.080 Cl
ATOM     27  C   UNL     1      -3.543  -1.408  24.982  0.00  0.00    +0.150 A 
ATOM     28  F   UNL     1      -3.730  -1.890  25.625  0.00  0.00    -0.203 F 
ATOM     29  C   UNL     1      -2.879  -0.919  25.012  0.00  0.00    +0.028 A 
ENDBRANCH  20  22
BRANCH   5   3
ATOM      3  C   UNL     1      -3.526   0.677  24.698  0.00  0.00    +0.332 C 
ATOM      4  O   UNL     1      -4.003   0.072  24.404  0.00  0.00    -0.249 OA
BRANCH   3   2
ATOM      1  C   UNL     1      -4.804   1.208  25.051  0.00  0.00    +0.256 C 
ATOM      2  O   UNL     1      -4.133   0.771  25.248  0.00  0.00    -0.443 OA
ENDBRANCH   3   2
ENDBRANCH   5   3
BRANCH  18  30
ATOM     30  N   UNL     1       0.134  -0.085  24.133  0.00  0.00    -0.219 NA
BRANCH  30  31
ATOM     31  C   UNL     1       0.525   0.096  23.429  0.00  0.00    +0.091 C 
BRANCH  31  32
ATOM     32  C   UNL     1       1.334  -0.049  23.357  0.00  0.00    +0.043 C 
BRANCH  32  33
ATOM     33  C   UNL     1       1.733   0.180  22.673  0.00  0.00    +0.109 C 
BRANCH  33  34
ATOM     34  N   UNL     1       2.553   0.278  22.688  0.00  0.00    -0.308 N 
ATOM     35  C   UNL     1       2.955   0.993  22.775  0.00  0.00    +0.098 A 
ATOM     36  C   UNL     1       3.764   0.834  22.759  0.00  0.00    +0.119 A 
ATOM     37  N   UNL     1       3.863   0.021  22.662  0.00  0.00    -0.222 NA
ATOM     38  C   UNL     1       3.114  -0.323  22.618  0.00  0.00    +0.179 A 
ENDBRANCH  33  34
ENDBRANCH  32  33
ENDBRANCH  31  32
ENDBRANCH  30  31
ENDBRANCH  18  30
TORSDOF 8
ENDMDL
MODEL 2
REMARK VINA RESULT:     -11.6      1.637      3.570
REMARK  Name = 
REMARK  8 active torsions:
REMARK  status: ('A' for Active; 'I' for Inactive)
REMARK    1  A    between atoms: O_2  and  C_3
REMARK    2  A    between atoms: C_3  and  C_5
REMARK    3  A    between atoms: C_18  and  N_30
REMARK    4  A    between atoms: C_20  and  C_22
REMARK    5  A    between atoms: N_30  and  C_31
REMARK    6  A    between atoms: C_31  and  C_32
REMARK    7  A    between atoms: C_32  and  C_33
REMARK    8  A    between atoms: C_33  and  N_34
REMARK                            x       y       z     vdW  Elec       q    Type
REMARK                         _______ _______ _______ _____ _____    ______ ____
ROOT
ATOM      5  C   UNL     1      -3.143   0.760  24.519  0.00  0.00    +0.162 C 
ATOM      6  C   UNL     1      -3.479   0.009  24.567  0.00  0.00    +0.055 C 
ATOM      7  C   UNL     1      -2.998  -0.661  24.532  0.00  0.00    -0.004 A 
ATOM      8  C   UNL     1      -2.182  -0.579  24.449  0.00  0.00    +0.070 A 
ATOM      9  N   UNL     1      -1.850  -1.334  24.430  0.00  0.00    -0.249 NA
ATOM     10  C   UNL     1      -2.461  -1.884  24.503  0.00  0.00    +0.081 A 
ATOM     11  C   UNL     1      -3.171  -1.467  24.566  0.00  0.00    +0.015 A 
ATOM     12  C   UNL     1      -3.883  -1.876  24.645  0.00  0.00    +0.001 A 
ATOM     13  C   UNL     1      -3.886  -2.701  24.662  0.00  0.00    +0.000 A 
ATOM     14  C   UNL     1      -3.175  -3.117  24.599  0.00  0.00    +0.002 A 
ATOM     15  C   UNL     1      -2.463  -2.708  24.519  0.00  0.00    +0.019 A 
ATOM     16  C   UNL     1      -1.846   0.173  24.400  0.00  0.00    +0.100 C 
ATOM     17  C   UNL     1      -1.029   0.256  24.317  0.00  0.00    +0.040 C 
ATOM     18  C   UNL     1      -0.694   1.007  24.268  0.00  0.00    +0.076 C 
ATOM     19  C   UNL     1      -1.175   1.677  24.303  0.00  0.00    +0.038 C 
ATOM     20  C   UNL     1      -1.991   1.594  24.387  0.00  0.00    +0.082 C 
ATOM     21  N   UNL     1      -2.326   0.843  24.435  0.00  0.00    -0.258 NA
ENDROOT
BRANCH  20  22
ATOM     22  C   UNL     1      -2.471   2.264  24.422  0.00  0.00    -0.005 A 
ATOM     23  C   UNL     1      -2.881   2.514  23.752  0.00  0.00    -0.002 A 
ATOM     24  C   UNL     1      -3.361   3.184  23.787  0.00  0.00    +0.013 A 
ATOM     25  C   UNL     1      -3.430   3.605  24.494  0.00  0.00    +0.085 A 
ATOM     26 CL   UNL     1      -3.911   4.275  24.529  0.00  0.00    -0.080 Cl
ATOM     27  C   UNL     1      -3.020   3.355  25.164  0.00  0.00    +0.150 A 
ATOM     28  F   UNL     1      -3.089   3.776  25.871  0.00  0.00    -0.203 F 
ATOM     29  C   UNL     1      -2.540   2.685  25.128  0.00  0.00    +0.028 A 
ENDBRANCH  20  22
BRANCH   5   3
ATOM      3  C   UNL     1      -3.624   1.430  24.554  0.00  0.00    +0.332 C 
ATOM      4  O   UNL     1      -3.882   2.184  24.342  0.00  0.00    -0.249 OA
BRANCH   3   2
ATOM      1  C   UNL     1      -5.016   1.289  24.841  0.00  0.00    +0.256 C 
ATOM      2  O   UNL     1      -4.250   1.461  25.091  0.00  0.00    -0.443 OA
ENDBRANCH   3   2
ENDBRANCH   5   3
BRANCH  18  30
ATOM     30  N   UNL     1       0.123   1.090  24.184  0.00  0.00    -0.219 NA
BRANCH  30  31
ATOM     31  C   UNL     1       0.509   0.747  23.541  0.00  0.00    +0.091 C 
BRANCH  31  32
ATOM     32  C   UNL     1       1.333   0.755  23.501  0.00  0.00    +0.043 C 
BRANCH  32  33
ATOM     33  C   UNL     1       1.718   0.404  22.862  0.00  0.00    +0.109 C 
BRANCH  33  34
ATOM     34  N   UNL     1       2.543   0.391  22.834  0.00  0.00    -0.308 N 
ATOM     35  C   UNL     1       3.036   1.050  22.769  0.00  0.00    +0.098 A 
ATOM     36  C   UNL     1       3.817   0.784  22.761  0.00  0.00    +0.119 A 
ATOM     37  N   UNL     1       3.807  -0.039  22.821  0.00  0.00    -0.222 NA
ATOM     38  C   UNL     1       3.019  -0.281  22.867  0.00  0.00    +0.179 A 
ENDBRANCH  33  34
ENDBRANCH  32  33
ENDBRANCH  31  32
ENDBRANCH  30  31
ENDBRANCH  18  30
TORSDOF 8
ENDMDL
MODEL 3
REMARK VINA RESULT:      -9.7      2.691      3.655
REMARK  Name = 
REMARK  8 active torsions:
REMARK  status: ('A' for Active; 'I' for Inactive)
REMARK    1  A    between atoms: O_2  and  C_3
REMARK    2  A    between atoms: C_3  and  C_5
REMARK    3  A    between atoms: C_18  and  N_30
REMARK    4  A    between atoms: C_20  and  C_22
REMARK    5  A    between atoms: N_30  and  C_31
REMARK    6  A    between atoms: C_31  and  C_32
REMARK    7  A    between atoms: C_32  and  C_33
REMARK    8  A    between atoms: C_33  and  N_34
REMARK                            x       y       z     vdW  Elec       q    Type
REMARK                         _______ _______ _______ _____ _____    ______ ____
ROOT
ATOM      5  C   UNL     1      -3.604   3.165  24.976  0.00  0.00    +0.162 C 
ATOM      6  C   UNL     1      -3.169   3.862  25.037  0.00  0.00    +0.055 C 
ATOM      7  C   UNL     1      -2.353   3.852  24.913  0.00  0.00    -0.004 A 
ATOM      8  C   UNL     1      -1.972   3.145  24.728  0.00  0.00    +0.070 A 
ATOM      9  N   UNL     1      -1.168   3.304  24.636  0.00  0.00    -0.249 NA
ATOM     10  C   UNL     1      -1.051   4.110  24.765  0.00  0.00    +0.081 A 
ATOM     11  C   UNL     1      -1.784   4.449  24.936  0.00  0.00    +0.015 A 
ATOM     12  C   UNL     1      -1.838   5.258  25.090  0.00  0.00    +0.001 A 
ATOM     13  C   UNL     1      -1.159   5.728  25.074  0.00  0.00    +0.000 A 
ATOM     14  C   UNL     1      -0.426   5.388  24.902  0.00  0.00    +0.002 A 
ATOM     15  C   UNL     1      -0.373   4.579  24.748  0.00  0.00    +0.019 A 
ATOM     16  C   UNL     1      -2.407   2.446  24.667  0.00  0.00    +0.100 C 
ATOM     17  C   UNL     1      -2.028   1.738  24.482  0.00  0.00    +0.040 C 
ATOM     18  C   UNL     1      -2.462   1.040  24.420  0.00  0.00    +0.076 C 
ATOM     19  C   UNL     1      -3.278   1.050  24.545  0.00  0.00    +0.038 C 
ATOM     20  C   UNL     1      -3.658   1.758  24.730  0.00  0.00    +0.082 C 
ATOM     21  N   UNL     1      -3.223   2.456  24.791  0.00  0.00    -0.258 NA
ENDROOT
BRANCH  20  22
ATOM     22  C   UNL     1      -4.474   1.767  24.854  0.00  0.00    -0.005 A 
ATOM     23  C   UNL     1      -4.981   2.004  24.248  0.00  0.00    -0.002 A 
ATOM     24  C   UNL     1      -5.796   2.013  24.373  0.00  0.00    +0.013 A 
ATOM     25  C   UNL     1      -6.104   1.785  25.104  0.00  0.00    +0.085 A 
ATOM     26 CL   UNL     1      -6.921   1.794  25.228  0.00  0.00    -0.080 Cl
ATOM     27  C   UNL     1      -5.598   1.549  25.710  0.00  0.00    +0.150 A 
ATOM     28  F   UNL     1      -5.906   1.321  26.441  0.00  0.00    -0.203 F 
ATOM     29  C   UNL     1      -4.782   1.540  25.585  0.00  0.00    +0.028 A 
ENDBRANCH  20  22
BRANCH   5   3
ATOM      3  C   UNL     1      -4.419   3.175  25.100  0.00  0.00    +0.332 C 
ATOM      4  O   UNL     1      -5.206   2.971  24.957  0.00  0.00    -0.249 OA
BRANCH   3   2
ATOM      1  C   UNL     1      -5.084   4.362  25.536  0.00  0.00    +0.256 C 
ATOM      2  O   UNL     1      -4.739   3.633  25.707  0.00  0.00    -0.443 OA
ENDBRANCH   3   2
ENDBRANCH   5   3
BRANCH  18  30
ATOM     30  N   UNL     1      -2.082   0.331  24.235  0.00  0.00    -0.219 NA
BRANCH  30  31
ATOM     31  C   UNL     1      -2.003  -0.257  24.808  0.00  0.00    +0.091 C 
BRANCH  31  32
ATOM     32  C   UNL     1      -1.938  -1.048  24.582  0.00  0.00    +0.043 C 
BRANCH  32  33
ATOM     33  C   UNL     1      -2.159  -1.645  25.106  0.00  0.00    +0.109 C 
BRANCH  33  34
ATOM     34  N   UNL     1      -2.599  -2.289  24.835  0.00  0.00    -0.308 N 
ATOM     35  C   UNL     1      -3.352  -2.505  25.093  0.00  0.00    +0.098 A 
ATOM     36  C   UNL     1      -3.581  -3.179  24.676  0.00  0.00    +0.119 A 
ATOM     37  N   UNL     1      -2.969  -3.380  24.160  0.00  0.00    -0.222 NA
ATOM     38  C   UNL     1      -2.362  -2.830  24.259  0.00  0.00    +0.179 A 
ENDBRANCH  33  34
ENDBRANCH  32  33
ENDBRANCH  31  32
ENDBRANCH  30  31
ENDBRANCH  18  30
TORSDOF 8
ENDMDL
