MODEL 1
REMARK VINA RESULT:      -9.1      0.000      0.000
REMARK  Name = 
REMARK  8 active torsions:
REMARK  status: ('A' for Active; 'I' for Inactive)
REMARK    1  A    between atoms: O_2  and  C_3
REMARK    2  A    between atoms: C_3  and  C_4
REMARK    3  A    between atoms: C_4  and  C_5
REMARK    4  A    between atoms: N_7  and  C_8
REMARK    5  A    between atoms: C_8  and  C_9
REMARK    6  A    between atoms: C_13  and  C_14
REMARK    7  A    between atoms: C_14  and  C_15
REMARK    8  A    between atoms: C_19  and  C_20
REMARK                            x       y       z     vdW  Elec       q    Type
REMARK                         _______ _______ _______ _____ _____    ______ ____
ROOT
ATOM      9  C   UNL     1      -3.198   0.801  24.557  0.00  0.00    +0.043 C 
ATOM     10  C   UNL     1      -3.138   1.617  24.451  0.00  0.00    -0.033 C 
ATOM     11  C   UNL     1      -3.813   2.090  24.499  0.00  0.00    -0.048 C 
ATOM     12  C   UNL     1      -3.752   2.906  24.394  0.00  0.00    +0.026 C 
ATOM     13  C   UNL     1      -4.547   1.747  24.653  0.00  0.00    +0.029 C 
ATOM     18  C   UNL     1      -4.606   0.930  24.758  0.00  0.00    +0.005 C 
ATOM     19  C   UNL     1      -3.932   0.458  24.710  0.00  0.00    +0.006 C 
ENDROOT
BRANCH  19  20
ATOM     20  C   UNL     1      -3.992  -0.358  24.816  0.00  0.00    +0.000 C 
ATOM     21  C   UNL     1      -3.872  -0.688  25.561  0.00  0.00    +0.000 C 
ATOM     22  C   UNL     1      -4.171  -0.845  24.173  0.00  0.00    +0.000 C 
ENDBRANCH  19  20
BRANCH   9   8
ATOM      8  C   UNL     1      -2.523   0.328  24.509  0.00  0.00    +0.119 C 
BRANCH   8   7
ATOM      5  C   UNL     1      -1.117   0.219  24.275  0.00  0.00    +0.244 C 
ATOM      6  O   UNL     1      -1.110  -0.509  24.662  0.00  0.00    -0.273 OA
ATOM      7  N   UNL     1      -1.825   0.638  24.198  0.00  0.00    -0.205 NA
BRANCH   5   4
ATOM      4  C   UNL     1      -0.419   0.529  23.965  0.00  0.00    +0.119 C 
BRANCH   4   3
ATOM      3  C   UNL     1       0.136   0.026  23.617  0.00  0.00    +0.152 C 
BRANCH   3   2
ATOM      1  C   UNL     1       1.289  -0.153  22.793  0.00  0.00    +0.174 C 
ATOM      2  O   UNL     1       0.787   0.342  23.222  0.00  0.00    -0.351 OA
ENDBRANCH   3   2
ENDBRANCH   4   3
ENDBRANCH   5   4
ENDBRANCH   8   7
ENDBRANCH   9   8
BRANCH  13  14
ATOM     14  C   UNL     1      -5.221   2.219  24.701  0.00  0.00    +0.118 C 
BRANCH  14  15
ATOM     15  C   UNL     1      -5.840   2.006  25.204  0.00  0.00    +0.365 C 
ATOM     16  O   UNL     1      -6.510   1.633  24.898  0.00  0.00    -0.246 OA
ATOM     17  O   UNL     1      -5.788   2.164  26.011  0.00  0.00    -0.246 OA
ENDBRANCH  14  15
ENDBRANCH  13  14
TORSDOF 8
ENDMDL
MODEL 2
REMARK VINA RESULT:      -8.7      2.265      3.959
REMARK  Name = 
REMARK  8 active torsions:
REMARK  status: ('A' for Active; 'I' for Inactive)
REMARK    1  A    between atoms: O_2  and  C_3
REMARK    2  A    between atoms: C_3  and  C_4
REMARK    3  A    between atoms: C_4  and  C_5
REMARK    4  A    between atoms: N_7  and  C_8
REMARK    5  A    between atoms: C_8  and  C_9
REMARK    6  A    between atoms: C_13  and  C_14
REMARK    7  A    between atoms: C_14  and  C_15
REMARK    8  A    between atoms: C_19  and  C_20
REMARK                            x       y       z     vdW  Elec       q    Type
REMARK                         _______ _______ _______ _____ _____    ______ ____
ROOT
ATOM      9  C   UNL     1      -2.985   2.266  24.905  0.00  0.00    +0.043 C 
ATOM     10  C   UNL     1      -2.233   2.007  25.126  0.00  0.00    -0.033 C 
ATOM     11  C   UNL     1      -1.652   2.556  25.333  0.00  0.00    -0.048 C 
ATOM     12  C   UNL     1      -0.901   2.296  25.555  0.00  0.00    +0.026 C 
ATOM     13  C   UNL     1      -1.823   3.363  25.319  0.00  0.00    +0.029 C 
ATOM     18  C   UNL     1      -2.575   3.621  25.098  0.00  0.00    +0.005 C 
ATOM     19  C   UNL     1      -3.155   3.073  24.891  0.00  0.00    +0.006 C 
ENDROOT
BRANCH  19  20
ATOM     20  C   UNL     1      -3.907   3.332  24.669  0.00  0.00    +0.000 C 
ATOM     21  C   UNL     1      -4.080   3.467  23.874  0.00  0.00    +0.000 C 
ATOM     22  C   UNL     1      -4.487   3.455  25.244  0.00  0.00    +0.000 C 
ENDBRANCH  19  20
BRANCH   9   8
ATOM      8  C   UNL     1      -3.566   1.718  24.697  0.00  0.00    +0.119 C 
BRANCH   8   7
ATOM      5  C   UNL     1      -3.898   0.361  24.395  0.00  0.00    +0.244 C 
ATOM      6  O   UNL     1      -4.664   0.487  24.671  0.00  0.00    -0.273 OA
ATOM      7  N   UNL     1      -3.348   0.976  24.408  0.00  0.00    -0.205 NA
BRANCH   5   4
ATOM      4  C   UNL     1      -3.680  -0.380  24.106  0.00  0.00    +0.119 C 
BRANCH   4   3
ATOM      3  C   UNL     1      -4.153  -1.039  24.261  0.00  0.00    +0.152 C 
BRANCH   3   2
ATOM      1  C   UNL     1      -3.966  -2.450  24.155  0.00  0.00    +0.174 C 
ATOM      2  O   UNL     1      -4.081  -1.716  23.796  0.00  0.00    -0.351 OA
ENDBRANCH   3   2
ENDBRANCH   4   3
ENDBRANCH   5   4
ENDBRANCH   8   7
ENDBRANCH   9   8
BRANCH  13  14
ATOM     14  C   UNL     1      -1.243   3.910  25.526  0.00  0.00    +0.118 C 
BRANCH  14  15
ATOM     15  C   UNL     1      -1.145   4.597  25.078  0.00  0.00    +0.365 C 
ATOM     16  O   UNL     1      -1.502   5.301  25.319  0.00  0.00    -0.246 OA
ATOM     17  O   UNL     1      -0.690   4.579  24.391  0.00  0.00    -0.246 OA
ENDBRANCH  14  15
ENDBRANCH  13  14
TORSDOF 8
ENDMDL
MODEL 3
REMARK VINA RESULT:      -8.6      2.283      3.612
REMARK  Name = 
REMARK  8 active torsions:
REMARK  status: ('A' for Active; 'I' for Inactive)
REMARK    1  A    between atoms: O_2  and  C_3
REMARK    2  A    between atoms: C_3  and  C_4
REMARK    3  A    between atoms: C_4  and  C_5
REMARK    4  A    between atoms: N_7  and  C_8
REMARK    5  A    between atoms: C_8  and  C_9
REMARK    6  A    between atoms: C_13  and  C_14
REMARK    7  A    between atoms: C_14  and  C_15
REMARK    8  A    between atoms: C_19  and  C_20
REMARK                            x       y       z     vdW  Elec       q    Type
REMARK                         _______ _______ _______ _____ _____    ______ ____
ROOT
ATOM      9  C   UNL     1      -2.359   0.221  24.905  0.00  0.00    +0.043 C 
ATOM     10  C   UNL     1      -3.145   0.338  24.682  0.00  0.00    -0.033 C 
ATOM     11  C   UNL     1      -3.648  -0.310  24.589  0.00  0.00    -0.048 C 
ATOM     12  C   UNL     1      -4.433  -0.193  24.366  0.00  0.00    +0.026 C 
ATOM     13  C   UNL     1      -3.365  -1.074  24.719  0.00  0.00    +0.029 C 
ATOM     18  C   UNL     1      -2.578  -1.190  24.942  0.00  0.00    +0.005 C 
ATOM     19  C   UNL     1      -2.076  -0.543  25.035  0.00  0.00    +0.006 C 
ENDROOT
BRANCH  19  20
ATOM     20  C   UNL     1      -1.290  -0.659  25.258  0.00  0.00    +0.000 C 
ATOM     21  C   UNL     1      -1.082  -0.655  26.055  0.00  0.00    +0.000 C 
ATOM     22  C   UNL     1      -0.711  -0.778  24.681  0.00  0.00    +0.000 C 
ENDBRANCH  19  20
BRANCH   9   8
ATOM      8  C   UNL     1      -1.857   0.869  24.998  0.00  0.00    +0.119 C 
BRANCH   8   7
ATOM      5  C   UNL     1      -1.671   2.286  25.039  0.00  0.00    +0.244 C 
ATOM      6  O   UNL     1      -0.858   2.182  24.955  0.00  0.00    -0.273 OA
ATOM      7  N   UNL     1      -2.172   1.629  25.061  0.00  0.00    -0.205 NA
BRANCH   5   4
ATOM      4  C   UNL     1      -1.986   3.045  25.102  0.00  0.00    +0.119 C 
BRANCH   4   3
ATOM      3  C   UNL     1      -1.483   3.695  25.179  0.00  0.00    +0.152 C 
BRANCH   3   2
ATOM      1  C   UNL     1      -1.396   5.120  25.129  0.00  0.00    +0.174 C 
ATOM      2  O   UNL     1      -1.793   4.436  25.366  0.00  0.00    -0.351 OA
ENDBRANCH   3   2
ENDBRANCH   4   3
ENDBRANCH   5   4
ENDBRANCH   8   7
ENDBRANCH   9   8
BRANCH  13  14
ATOM     14  C   UNL     1      -3.867  -1.721  24.625  0.00  0.00    +0.118 C 
BRANCH  14  15
ATOM     15  C   UNL     1      -3.563  -2.488  24.662  0.00  0.00    +0.365 C 
ATOM     16  O   UNL     1      -3.301  -2.861  23.974  0.00  0.00    -0.246 OA
ATOM     17  O   UNL     1      -3.522  -2.881  25.386  0.00  0.00    -0.246 OA
ENDBRANCH  14  15
ENDBRANCH  13  14
TORSDOF 8
ENDMDL
MODEL 4
REMARK VINA RESULT:      -8.5      1.258      2.369
REMARK  Name = 
REMARK  8 active torsions:
REMARK  status: ('A' for Active; 'I' for Inactive)
REMARK    1  A    between atoms: O_2  and  C_3
REMARK    2  A    between atoms: C_3  and  C_4
REMARK    3  A    between atoms: C_4  and  C_5
REMARK    4  A    between atoms: N_7  and  C_8
REMARK    5  A    between atoms: C_8  and  C_9
REMARK    6  A    between atoms: C_13  and  C_14
REMARK    7  A    between atoms: C_14  and  C_15
REMARK    8  A    between atoms: C_19  and  C_20
REMARK                            x       y       z     vdW  Elec       q    Type
REMARK                         _______ _______ _______ _____ _____    ______ ____
ROOT
ATOM      9  C   UNL     1      -2.829   2.417  24.907  0.00  0.00    +0.043 C 
ATOM     10  C   UNL     1      -3.330   1.793  24.709  0.00  0.00    -0.033 C 
ATOM     11  C   UNL     1      -4.147   1.881  24.782  0.00  0.00    -0.048 C 
ATOM     12  C   UNL     1      -4.648   1.256  24.584  0.00  0.00    +0.026 C 
ATOM     13  C   UNL     1      -4.463   2.594  25.052  0.00  0.00    +0.029 C 
ATOM     18  C   UNL     1      -3.960   3.218  25.250  0.00  0.00    +0.005 C 
ATOM     19  C   UNL     1      -3.144   3.130  25.177  0.00  0.00    +0.006 C 
ENDROOT
BRANCH  19  20
ATOM     20  C   UNL     1      -2.642   3.755  25.374  0.00  0.00    +0.000 C 
ATOM     21  C   UNL     1      -2.431   4.311  24.804  0.00  0.00    +0.000 C 
ATOM     22  C   UNL     1      -2.350   3.821  26.144  0.00  0.00    +0.000 C 
ENDBRANCH  19  20
BRANCH   9   8
ATOM      8  C   UNL     1      -2.011   2.329  24.834  0.00  0.00    +0.119 C 
BRANCH   8   7
ATOM      5  C   UNL     1      -0.888   1.511  24.499  0.00  0.00    +0.244 C 
ATOM      6  O   UNL     1      -0.412   2.181  24.456  0.00  0.00    -0.273 OA
ATOM      7  N   UNL     1      -1.689   1.584  24.688  0.00  0.00    -0.205 NA
BRANCH   5   4
ATOM      4  C   UNL     1      -0.566   0.765  24.353  0.00  0.00    +0.119 C 
BRANCH   4   3
ATOM      3  C   UNL     1       0.034   0.678  23.793  0.00  0.00    +0.152 C 
BRANCH   3   2
ATOM      1  C   UNL     1       0.893  -0.163  23.023  0.00  0.00    +0.174 C 
ATOM      2  O   UNL     1       0.272  -0.076  23.558  0.00  0.00    -0.351 OA
ENDBRANCH   3   2
ENDBRANCH   4   3
ENDBRANCH   5   4
ENDBRANCH   8   7
ENDBRANCH   9   8
BRANCH  13  14
ATOM     14  C   UNL     1      -5.279   2.682  25.125  0.00  0.00    +0.118 C 
BRANCH  14  15
ATOM     15  C   UNL     1      -5.593   3.127  25.746  0.00  0.00    +0.365 C 
ATOM     16  O   UNL     1      -5.687   2.786  26.491  0.00  0.00    -0.246 OA
ATOM     17  O   UNL     1      -5.811   3.912  25.620  0.00  0.00    -0.246 OA
ENDBRANCH  14  15
ENDBRANCH  13  14
TORSDOF 8
ENDMDL
MODEL 5
REMARK VINA RESULT:      -8.3      2.151      3.619
REMARK  Name = 
REMARK  8 active torsions:
REMARK  status: ('A' for Active; 'I' for Inactive)
REMARK    1  A    between atoms: O_2  and  C_3
REMARK    2  A    between atoms: C_3  and  C_4
REMARK    3  A    between atoms: C_4  and  C_5
REMARK    4  A    between atoms: N_7  and  C_8
REMARK    5  A    between atoms: C_8  and  C_9
REMARK    6  A    between atoms: C_13  and  C_14
REMARK    7  A    between atoms: C_14  and  C_15
REMARK    8  A    between atoms: C_19  and  C_20
REMARK                            x       y       z     vdW  Elec       q    Type
REMARK                         _______ _______ _______ _____ _____    ______ ____
ROOT
ATOM      9  C   UNL     1      -2.730   0.336  24.927  0.00  0.00    +0.043 C 
ATOM     10  C   UNL     1      -1.996  -0.030  25.012  0.00  0.00    -0.033 C 
ATOM     11  C   UNL     1      -1.935  -0.851  24.956  0.00  0.00    -0.048 C 
ATOM     12  C   UNL     1      -1.201  -1.217  25.041  0.00  0.00    +0.026 C 
ATOM     13  C   UNL     1      -2.609  -1.306  24.816  0.00  0.00    +0.029 C 
ATOM     18  C   UNL     1      -3.343  -0.939  24.731  0.00  0.00    +0.005 C 
ATOM     19  C   UNL     1      -3.404  -0.119  24.786  0.00  0.00    +0.006 C 
ENDROOT
BRANCH  19  20
ATOM     20  C   UNL     1      -4.138   0.248  24.701  0.00  0.00    +0.000 C 
ATOM     21  C   UNL     1      -4.619   0.368  25.361  0.00  0.00    +0.000 C 
ATOM     22  C   UNL     1      -4.392   0.496  23.955  0.00  0.00    +0.000 C 
ENDBRANCH  19  20
BRANCH   9   8
ATOM      8  C   UNL     1      -2.790   1.158  24.982  0.00  0.00    +0.119 C 
BRANCH   8   7
ATOM      5  C   UNL     1      -2.161   2.429  25.154  0.00  0.00    +0.244 C 
ATOM      6  O   UNL     1      -2.896   2.773  25.301  0.00  0.00    -0.273 OA
ATOM      7  N   UNL     1      -2.108   1.621  24.995  0.00  0.00    -0.205 NA
BRANCH   5   4
ATOM      4  C   UNL     1      -1.479   2.892  25.167  0.00  0.00    +0.119 C 
BRANCH   4   3
ATOM      3  C   UNL     1      -1.538   3.715  25.126  0.00  0.00    +0.152 C 
BRANCH   3   2
ATOM      1  C   UNL     1      -0.911   4.986  24.952  0.00  0.00    +0.174 C 
ATOM      2  O   UNL     1      -0.855   4.176  25.096  0.00  0.00    -0.351 OA
ENDBRANCH   3   2
ENDBRANCH   4   3
ENDBRANCH   5   4
ENDBRANCH   8   7
ENDBRANCH   9   8
BRANCH  13  14
ATOM     14  C   UNL     1      -2.549  -2.126  24.760  0.00  0.00    +0.118 C 
BRANCH  14  15
ATOM     15  C   UNL     1      -3.228  -2.594  24.805  0.00  0.00    +0.365 C 
ATOM     16  O   UNL     1      -3.512  -2.839  25.539  0.00  0.00    -0.246 OA
ATOM     17  O   UNL     1      -3.621  -2.816  24.115  0.00  0.00    -0.246 OA
ENDBRANCH  14  15
ENDBRANCH  13  14
TORSDOF 8
ENDMDL
MODEL 6
REMARK VINA RESULT:      -8.1      1.327      4.502
REMARK  Name = 
REMARK  8 active torsions:
REMARK  status: ('A' for Active; 'I' for Inactive)
REMARK    1  A    between atoms: O_2  and  C_3
REMARK    2  A    between atoms: C_3  and  C_4
REMARK    3  A    between atoms: C_4  and  C_5
REMARK    4  A    between atoms: N_7  and  C_8
REMARK    5  A    between atoms: C_8  and  C_9
REMARK    6  A    between atoms: C_13  and  C_14
REMARK    7  A    between atoms: C_14  and  C_15
REMARK    8  A    between atoms: C_19  and  C_20
REMARK                            x       y       z     vdW  Elec       q    Type
REMARK                         _______ _______ _______ _____ _____    ______ ____
ROOT
ATOM      9  C   UNL     1      -3.045   0.267  24.988  0.00  0.00    +0.043 C 
ATOM     10  C   UNL     1      -2.451   0.837  25.020  0.00  0.00    -0.033 C 
ATOM     11  C   UNL     1      -1.661   0.606  25.084  0.00  0.00    -0.048 C 
ATOM     12  C   UNL     1      -1.066   1.177  25.116  0.00  0.00    +0.026 C 
ATOM     13  C   UNL     1      -1.466  -0.195  25.116  0.00  0.00    +0.029 C 
ATOM     18  C   UNL     1      -2.062  -0.765  25.084  0.00  0.00    +0.005 C 
ATOM     19  C   UNL     1      -2.851  -0.535  25.020  0.00  0.00    +0.006 C 
ENDROOT
BRANCH  19  20
ATOM     20  C   UNL     1      -3.447  -1.105  24.988  0.00  0.00    +0.000 C 
ATOM     21  C   UNL     1      -3.753  -1.422  25.684  0.00  0.00    +0.000 C 
ATOM     22  C   UNL     1      -3.737  -1.358  24.257  0.00  0.00    +0.000 C 
ENDBRANCH  19  20
BRANCH   9   8
ATOM      8  C   UNL     1      -3.835   0.498  24.924  0.00  0.00    +0.119 C 
BRANCH   8   7
ATOM      5  C   UNL     1      -4.784   1.565  24.887  0.00  0.00    +0.244 C 
ATOM      6  O   UNL     1      -5.358   1.066  25.204  0.00  0.00    -0.273 OA
ATOM      7  N   UNL     1      -4.022   1.281  24.746  0.00  0.00    -0.205 NA
BRANCH   5   4
ATOM      4  C   UNL     1      -4.971   2.349  24.709  0.00  0.00    +0.119 C 
BRANCH   4   3
ATOM      3  C   UNL     1      -5.331   2.826  25.279  0.00  0.00    +0.152 C 
BRANCH   3   2
ATOM      1  C   UNL     1      -5.756   4.145  25.624  0.00  0.00    +0.174 C 
ATOM      2  O   UNL     1      -5.206   3.642  25.272  0.00  0.00    -0.351 OA
ENDBRANCH   3   2
ENDBRANCH   4   3
ENDBRANCH   5   4
ENDBRANCH   8   7
ENDBRANCH   9   8
BRANCH  13  14
ATOM     14  C   UNL     1      -0.678  -0.426  25.180  0.00  0.00    +0.118 C 
BRANCH  14  15
ATOM     15  C   UNL     1      -0.430  -1.144  24.856  0.00  0.00    +0.365 C 
ATOM     16  O   UNL     1      -0.355  -1.810  25.338  0.00  0.00    -0.246 OA
ATOM     17  O   UNL     1      -0.257  -1.195  24.051  0.00  0.00    -0.246 OA
ENDBRANCH  14  15
ENDBRANCH  13  14
TORSDOF 8
ENDMDL
MODEL 7
REMARK VINA RESULT:      -8.0      2.124      3.286
REMARK  Name = 
REMARK  8 active torsions:
REMARK  status: ('A' for Active; 'I' for Inactive)
REMARK    1  A    between atoms: O_2  and  C_3
REMARK    2  A    between atoms: C_3  and  C_4
REMARK    3  A    between atoms: C_4  and  C_5
REMARK    4  A    between atoms: N_7  and  C_8
REMARK    5  A    between atoms: C_8  and  C_9
REMARK    6  A    between atoms: C_13  and  C_14
REMARK    7  A    between atoms: C_14  and  C_15
REMARK    8  A    between atoms: C_19  and  C_20
REMARK                            x       y       z     vdW  Elec       q    Type
REMARK                         _______ _______ _______ _____ _____    ______ ____
ROOT
ATOM      9  C   UNL     1      -3.624   1.494  24.220  0.00  0.00    +0.043 C 
ATOM     10  C   UNL     1      -4.227   1.682  24.751  0.00  0.00    -0.033 C 
ATOM     11  C   UNL     1      -4.271   2.441  25.072  0.00  0.00    -0.048 C 
ATOM     12  C   UNL     1      -4.874   2.630  25.602  0.00  0.00    +0.026 C 
ATOM     13  C   UNL     1      -3.712   3.011  24.862  0.00  0.00    +0.029 C 
ATOM     18  C   UNL     1      -3.110   2.821  24.332  0.00  0.00    +0.005 C 
ATOM     19  C   UNL     1      -3.066   2.063  24.011  0.00  0.00    +0.006 C 
ENDROOT
BRANCH  19  20
ATOM     20  C   UNL     1      -2.463   1.874  23.480  0.00  0.00    +0.000 C 
ATOM     21  C   UNL     1      -2.579   1.975  22.670  0.00  0.00    +0.000 C 
ATOM     22  C   UNL     1      -1.743   1.582  23.761  0.00  0.00    +0.000 C 
ENDBRANCH  19  20
BRANCH   9   8
ATOM      8  C   UNL     1      -3.580   0.734  23.899  0.00  0.00    +0.119 C 
BRANCH   8   7
ATOM      5  C   UNL     1      -3.920  -0.649  24.012  0.00  0.00    +0.244 C 
ATOM      6  O   UNL     1      -3.903  -0.720  23.191  0.00  0.00    -0.273 OA
ATOM      7  N   UNL     1      -3.758   0.079  24.367  0.00  0.00    -0.205 NA
BRANCH   5   4
ATOM      4  C   UNL     1      -4.098  -1.305  24.479  0.00  0.00    +0.119 C 
BRANCH   4   3
ATOM      3  C   UNL     1      -3.673  -2.007  24.383  0.00  0.00    +0.152 C 
BRANCH   3   2
ATOM      1  C   UNL     1      -3.341  -3.319  24.839  0.00  0.00    +0.174 C 
ATOM      2  O   UNL     1      -3.703  -2.589  24.967  0.00  0.00    -0.351 OA
ENDBRANCH   3   2
ENDBRANCH   4   3
ENDBRANCH   5   4
ENDBRANCH   8   7
ENDBRANCH   9   8
BRANCH  13  14
ATOM     14  C   UNL     1      -3.757   3.769  25.183  0.00  0.00    +0.118 C 
BRANCH  14  15
ATOM     15  C   UNL     1      -3.071   4.145  25.451  0.00  0.00    +0.365 C 
ATOM     16  O   UNL     1      -2.673   4.674  24.960  0.00  0.00    -0.246 OA
ATOM     17  O   UNL     1      -2.786   3.990  26.209  0.00  0.00    -0.246 OA
ENDBRANCH  14  15
ENDBRANCH  13  14
TORSDOF 8
ENDMDL
