MODEL 1
REMARK VINA RESULT:     -10.1      0.000      0.000
REMARK  Name = 
REMARK  7 active torsions:
REMARK  status: ('A' for Active; 'I' for Inactive)
REMARK    1  A    between atoms: C_2  and  C_4
REMARK    2  A    between atoms: C_7  and  N_8
REMARK    3  A    between atoms: C_9  and  O_11
REMARK    4  A    between atoms: O_11  and  C_12
REMARK    5  A    between atoms: C_16  and  N_20
REMARK    6  A    between atoms: C_21  and  C_23
REMARK    7  A    between atoms: C_26  and  C_29
REMARK                            x       y       z     vdW  Elec       q    Type
REMARK                         _______ _______ _______ _____ _____    ______ ____
ROOT
ATOM     12  C   UNL     1      -0.878   0.837  23.610  0.00  0.00    +0.229 C 
ATOM     13  C   UNL     1      -0.527   1.319  24.180  0.00  0.00    +0.188 C 
ATOM     14  O   UNL     1       0.287   1.186  24.158  0.00  0.00    -0.348 OA
ATOM     15  C   UNL     1       0.438   0.622  23.577  0.00  0.00    +0.168 C 
ATOM     16  C   UNL     1       1.034   0.191  23.203  0.00  0.00    +0.155 C 
ATOM     17  C   UNL     1       0.682  -0.292  22.634  0.00  0.00    +0.166 C 
ATOM     18  O   UNL     1      -0.131  -0.158  22.655  0.00  0.00    -0.348 OA
ATOM     19  C   UNL     1      -0.282   0.406  23.238  0.00  0.00    +0.186 C 
ENDROOT
BRANCH  16  20
ATOM     20  N   UNL     1       1.841   0.234  23.370  0.00  0.00    -0.198 NA
ATOM     21  C   UNL     1       2.394   0.111  22.770  0.00  0.00    +0.265 C 
ATOM     22  O   UNL     1       2.140  -0.055  22.003  0.00  0.00    -0.268 OA
BRANCH  21  23
ATOM     23  C   UNL     1       3.201   0.155  22.937  0.00  0.00    +0.055 A 
ATOM     24  C   UNL     1       3.631   0.825  22.722  0.00  0.00    +0.005 A 
ATOM     25  C   UNL     1       4.438   0.869  22.889  0.00  0.00    +0.004 A 
ATOM     26  C   UNL     1       4.814   0.241  23.272  0.00  0.00    +0.071 A 
ATOM     27  C   UNL     1       4.383  -0.428  23.486  0.00  0.00    +0.004 A 
ATOM     28  C   UNL     1       3.577  -0.472  23.320  0.00  0.00    +0.005 A 
BRANCH  26  29
ATOM     29  C   UNL     1       5.621   0.285  23.439  0.00  0.00    +0.419 C 
ATOM     30  F   UNL     1       6.427   0.328  23.605  0.00  0.00    -0.166 F 
ATOM     31  F   UNL     1       5.452   0.638  24.164  0.00  0.00    -0.166 F 
ATOM     32  F   UNL     1       5.791  -0.069  22.712  0.00  0.00    -0.166 F 
ENDBRANCH  26  29
ENDBRANCH  21  23
ENDBRANCH  16  20
BRANCH  12  11
ATOM     11  O   UNL     1      -1.686   0.794  23.443  0.00  0.00    -0.432 OA
BRANCH  11   9
ATOM      8  N   UNL     1      -2.930   1.484  23.569  0.00  0.00    -0.142 NA
ATOM      9  C   UNL     1      -2.226   1.216  23.903  0.00  0.00    +0.425 C 
ATOM     10  O   UNL     1      -2.060   1.369  24.697  0.00  0.00    -0.224 OA
BRANCH   8   7
ATOM      4  C   UNL     1      -4.550   2.751  24.947  0.00  0.00    +0.035 A 
ATOM      5  C   UNL     1      -4.029   3.152  24.449  0.00  0.00    +0.004 A 
ATOM      6  C   UNL     1      -3.489   2.730  23.990  0.00  0.00    +0.017 A 
ATOM      7  C   UNL     1      -3.471   1.906  24.029  0.00  0.00    +0.077 A 
ATOM     33  C   UNL     1      -3.991   1.505  24.526  0.00  0.00    +0.017 A 
ATOM     34  C   UNL     1      -4.532   1.927  24.986  0.00  0.00    +0.004 A 
BRANCH   4   2
ATOM      1  C   UNL     1      -5.773   2.803  25.685  0.00  0.00    +0.077 C 
ATOM      2  C   UNL     1      -5.090   3.173  25.406  0.00  0.00    +0.173 C 
ATOM      3  O   UNL     1      -4.947   3.966  25.586  0.00  0.00    -0.291 OA
ENDBRANCH   4   2
ENDBRANCH   8   7
ENDBRANCH  11   9
ENDBRANCH  12  11
TORSDOF 7
ENDMDL
MODEL 2
REMARK VINA RESULT:      -9.4      3.588      7.686
REMARK  Name = 
REMARK  7 active torsions:
REMARK  status: ('A' for Active; 'I' for Inactive)
REMARK    1  A    between atoms: C_2  and  C_4
REMARK    2  A    between atoms: C_7  and  N_8
REMARK    3  A    between atoms: C_9  and  O_11
REMARK    4  A    between atoms: O_11  and  C_12
REMARK    5  A    between atoms: C_16  and  N_20
REMARK    6  A    between atoms: C_21  and  C_23
REMARK    7  A    between atoms: C_26  and  C_29
REMARK                            x       y       z     vdW  Elec       q    Type
REMARK                         _______ _______ _______ _____ _____    ______ ____
ROOT
ATOM     12  C   UNL     1      -0.038   0.297  23.340  0.00  0.00    +0.229 C 
ATOM     13  C   UNL     1      -0.129   0.029  24.114  0.00  0.00    +0.188 C 
ATOM     14  O   UNL     1      -0.814   0.371  24.423  0.00  0.00    -0.348 OA
ATOM     15  C   UNL     1      -1.146   0.849  23.840  0.00  0.00    +0.168 C 
ATOM     16  C   UNL     1      -1.774   1.356  23.669  0.00  0.00    +0.155 C 
ATOM     17  C   UNL     1      -1.683   1.624  22.894  0.00  0.00    +0.166 C 
ATOM     18  O   UNL     1      -0.998   1.283  22.586  0.00  0.00    -0.348 OA
ATOM     19  C   UNL     1      -0.666   0.804  23.170  0.00  0.00    +0.186 C 
ENDROOT
BRANCH  16  20
ATOM     20  N   UNL     1      -2.386   1.559  24.183  0.00  0.00    -0.198 NA
ATOM     21  C   UNL     1      -3.120   1.786  23.882  0.00  0.00    +0.265 C 
ATOM     22  O   UNL     1      -3.242   1.809  23.067  0.00  0.00    -0.268 OA
BRANCH  21  23
ATOM     23  C   UNL     1      -3.732   1.989  24.397  0.00  0.00    +0.055 A 
ATOM     24  C   UNL     1      -3.842   2.777  24.616  0.00  0.00    +0.005 A 
ATOM     25  C   UNL     1      -4.454   2.981  25.131  0.00  0.00    +0.004 A 
ATOM     26  C   UNL     1      -4.956   2.395  25.426  0.00  0.00    +0.071 A 
ATOM     27  C   UNL     1      -4.845   1.609  25.207  0.00  0.00    +0.004 A 
ATOM     28  C   UNL     1      -4.234   1.404  24.692  0.00  0.00    +0.005 A 
BRANCH  26  29
ATOM     29  C   UNL     1      -5.568   2.599  25.941  0.00  0.00    +0.419 C 
ATOM     30  F   UNL     1      -6.180   2.802  26.454  0.00  0.00    -0.166 F 
ATOM     31  F   UNL     1      -5.025   2.959  26.445  0.00  0.00    -0.166 F 
ATOM     32  F   UNL     1      -6.113   2.238  25.436  0.00  0.00    -0.166 F 
ENDBRANCH  26  29
ENDBRANCH  21  23
ENDBRANCH  16  20
BRANCH  12  11
ATOM     11  O   UNL     1       0.574   0.094  22.825  0.00  0.00    -0.432 OA
BRANCH  11   9
ATOM      8  N   UNL     1       1.971   0.042  22.528  0.00  0.00    -0.142 NA
ATOM      9  C   UNL     1       1.359   0.175  23.065  0.00  0.00    +0.425 C 
ATOM     10  O   UNL     1       1.532   0.391  23.843  0.00  0.00    -0.224 OA
BRANCH   8   7
ATOM      4  C   UNL     1       4.327   0.286  23.248  0.00  0.00    +0.035 A 
ATOM      5  C   UNL     1       3.931  -0.429  23.365  0.00  0.00    +0.004 A 
ATOM      6  C   UNL     1       3.146  -0.509  23.125  0.00  0.00    +0.017 A 
ATOM      7  C   UNL     1       2.756   0.124  22.768  0.00  0.00    +0.077 A 
ATOM     33  C   UNL     1       3.152   0.838  22.651  0.00  0.00    +0.017 A 
ATOM     34  C   UNL     1       3.937   0.919  22.890  0.00  0.00    +0.004 A 
BRANCH   4   2
ATOM      1  C   UNL     1       5.703  -0.076  23.119  0.00  0.00    +0.077 C 
ATOM      2  C   UNL     1       5.112   0.367  23.488  0.00  0.00    +0.173 C 
ATOM      3  O   UNL     1       5.306   0.890  24.095  0.00  0.00    -0.291 OA
ENDBRANCH   4   2
ENDBRANCH   8   7
ENDBRANCH  11   9
ENDBRANCH  12  11
TORSDOF 7
ENDMDL
