MODEL 1
REMARK VINA RESULT:      -8.3      0.000      0.000
REMARK  Name = 
REMARK  2 active torsions:
REMARK  status: ('A' for Active; 'I' for Inactive)
REMARK    1  A    between atoms: O_2  and  C_3
REMARK    2  A    between atoms: C_10  and  C_12
REMARK                            x       y       z     vdW  Elec       q    Type
REMARK                         _______ _______ _______ _____ _____    ______ ____
ROOT
ATOM      3  C   UNL     1      -1.929   0.648  24.353  0.00  0.00    +0.165 C 
ATOM      4  C   UNL     1      -1.753   1.453  24.316  0.00  0.00    +0.173 C 
ATOM      5  O   UNL     1      -2.254   2.095  24.450  0.00  0.00    -0.349 OA
ATOM      6  C   UNL     1      -3.054   2.090  24.654  0.00  0.00    +0.164 C 
ATOM      7  C   UNL     1      -3.550   1.443  24.774  0.00  0.00    +0.126 C 
ATOM      8  N   UNL     1      -3.370   0.639  24.720  0.00  0.00    -0.271 N 
ATOM      9  C   UNL     1      -2.648   0.285  24.532  0.00  0.00    +0.126 C 
ATOM     10  C   UNL     1      -3.993   0.122  24.874  0.00  0.00    +0.251 C 
ATOM     11  O   UNL     1      -4.738   0.418  25.067  0.00  0.00    -0.270 OA
ENDROOT
BRANCH  10  12
ATOM     12  C   UNL     1      -3.871  -0.693  24.835  0.00  0.00    +0.073 A 
ATOM     13  C   UNL     1      -4.023  -1.100  24.133  0.00  0.00    +0.008 A 
ATOM     14  C   UNL     1      -3.902  -1.916  24.093  0.00  0.00    +0.021 A 
ATOM     15  C   UNL     1      -3.628  -2.323  24.756  0.00  0.00    +0.099 A 
ATOM     16  N   UNL     1      -3.476  -1.917  25.457  0.00  0.00    -0.242 NA
ATOM     17  C   UNL     1      -3.598  -1.102  25.497  0.00  0.00    +0.103 A 
ENDBRANCH  10  12
BRANCH   3   2
ATOM      1  C   UNL     1      -0.531   0.428  24.153  0.00  0.00    +0.174 C 
ATOM      2  O   UNL     1      -1.303   0.137  24.188  0.00  0.00    -0.349 OA
ENDBRANCH   3   2
TORSDOF 2
ENDMDL
MODEL 2
REMARK VINA RESULT:      -8.2      2.983      4.429
REMARK  Name = 
REMARK  2 active torsions:
REMARK  status: ('A' for Active; 'I' for Inactive)
REMARK    1  A    between atoms: O_2  and  C_3
REMARK    2  A    between atoms: C_10  and  C_12
REMARK                            x       y       z     vdW  Elec       q    Type
REMARK                         _______ _______ _______ _____ _____    ______ ____
ROOT
ATOM      3  C   UNL     1      -3.525   2.724  24.115  0.00  0.00    +0.165 C 
ATOM      4  C   UNL     1      -4.318   2.498  24.085  0.00  0.00    +0.173 C 
ATOM      5  O   UNL     1      -4.920   2.666  24.624  0.00  0.00    -0.349 OA
ATOM      6  C   UNL     1      -4.879   3.101  25.324  0.00  0.00    +0.164 C 
ATOM      7  C   UNL     1      -4.225   3.475  25.658  0.00  0.00    +0.126 C 
ATOM      8  N   UNL     1      -3.450   3.507  25.376  0.00  0.00    -0.271 N 
ATOM      9  C   UNL     1      -3.138   3.173  24.689  0.00  0.00    +0.126 C 
ATOM     10  C   UNL     1      -2.916   3.929  25.842  0.00  0.00    +0.251 C 
ATOM     11  O   UNL     1      -3.171   4.286  26.542  0.00  0.00    -0.270 OA
ENDROOT
BRANCH  10  12
ATOM     12  C   UNL     1      -2.128   3.995  25.610  0.00  0.00    +0.073 A 
ATOM     13  C   UNL     1      -1.876   4.657  25.185  0.00  0.00    +0.008 A 
ATOM     14  C   UNL     1      -1.088   4.723  24.952  0.00  0.00    +0.021 A 
ATOM     15  C   UNL     1      -0.550   4.127  25.144  0.00  0.00    +0.099 A 
ATOM     16  N   UNL     1      -0.801   3.466  25.568  0.00  0.00    -0.242 NA
ATOM     17  C   UNL     1      -1.589   3.400  25.801  0.00  0.00    +0.103 A 
ENDBRANCH  10  12
BRANCH   3   2
ATOM      1  C   UNL     1      -3.188   1.725  23.150  0.00  0.00    +0.174 C 
ATOM      2  O   UNL     1      -3.056   2.467  23.487  0.00  0.00    -0.349 OA
ENDBRANCH   3   2
TORSDOF 2
ENDMDL
MODEL 3
REMARK VINA RESULT:      -8.2      1.255      2.419
REMARK  Name = 
REMARK  2 active torsions:
REMARK  status: ('A' for Active; 'I' for Inactive)
REMARK    1  A    between atoms: O_2  and  C_3
REMARK    2  A    between atoms: C_10  and  C_12
REMARK                            x       y       z     vdW  Elec       q    Type
REMARK                         _______ _______ _______ _____ _____    ______ ____
ROOT
ATOM      3  C   UNL     1      -4.785   1.754  24.823  0.00  0.00    +0.165 C 
ATOM      4  C   UNL     1      -4.816   2.548  24.600  0.00  0.00    +0.173 C 
ATOM      5  O   UNL     1      -4.286   2.971  24.131  0.00  0.00    -0.349 OA
ATOM      6  C   UNL     1      -3.593   2.705  23.769  0.00  0.00    +0.164 C 
ATOM      7  C   UNL     1      -3.261   1.951  23.787  0.00  0.00    +0.126 C 
ATOM      8  N   UNL     1      -3.538   1.275  24.171  0.00  0.00    -0.271 N 
ATOM      9  C   UNL     1      -4.217   1.187  24.632  0.00  0.00    +0.126 C 
ATOM     10  C   UNL     1      -3.076   0.598  24.082  0.00  0.00    +0.251 C 
ATOM     11  O   UNL     1      -2.385   0.626  23.631  0.00  0.00    -0.270 OA
ENDROOT
BRANCH  10  12
ATOM     12  C   UNL     1      -3.304  -0.107  24.444  0.00  0.00    +0.073 A 
ATOM     13  C   UNL     1      -3.782  -0.644  24.038  0.00  0.00    +0.008 A 
ATOM     14  C   UNL     1      -4.010  -1.349  24.400  0.00  0.00    +0.021 A 
ATOM     15  C   UNL     1      -3.759  -1.518  25.167  0.00  0.00    +0.099 A 
ATOM     16  N   UNL     1      -3.281  -0.983  25.573  0.00  0.00    -0.242 NA
ATOM     17  C   UNL     1      -3.053  -0.277  25.211  0.00  0.00    +0.103 A 
ENDBRANCH  10  12
BRANCH   3   2
ATOM      1  C   UNL     1      -5.924   2.036  25.639  0.00  0.00    +0.174 C 
ATOM      2  O   UNL     1      -5.405   1.491  25.300  0.00  0.00    -0.349 OA
ENDBRANCH   3   2
TORSDOF 2
ENDMDL
MODEL 4
REMARK VINA RESULT:      -7.7      1.730      3.044
REMARK  Name = 
REMARK  2 active torsions:
REMARK  status: ('A' for Active; 'I' for Inactive)
REMARK    1  A    between atoms: O_2  and  C_3
REMARK    2  A    between atoms: C_10  and  C_12
REMARK                            x       y       z     vdW  Elec       q    Type
REMARK                         _______ _______ _______ _____ _____    ______ ____
ROOT
ATOM      3  C   UNL     1      -2.846   0.889  24.642  0.00  0.00    +0.165 C 
ATOM      4  C   UNL     1      -2.170   0.722  24.199  0.00  0.00    +0.173 C 
ATOM      5  O   UNL     1      -1.860   1.139  23.559  0.00  0.00    -0.349 OA
ATOM      6  C   UNL     1      -2.148   1.826  23.203  0.00  0.00    +0.164 C 
ATOM      7  C   UNL     1      -2.818   2.265  23.400  0.00  0.00    +0.126 C 
ATOM      8  N   UNL     1      -3.365   2.126  24.002  0.00  0.00    -0.271 N 
ATOM      9  C   UNL     1      -3.378   1.514  24.555  0.00  0.00    +0.126 C 
ATOM     10  C   UNL     1      -3.981   2.672  24.058  0.00  0.00    +0.251 C 
ATOM     11  O   UNL     1      -4.021   3.306  23.531  0.00  0.00    -0.270 OA
ENDROOT
BRANCH  10  12
ATOM     12  C   UNL     1      -4.558   2.584  24.641  0.00  0.00    +0.073 A 
ATOM     13  C   UNL     1      -5.218   2.108  24.500  0.00  0.00    +0.008 A 
ATOM     14  C   UNL     1      -5.795   2.020  25.082  0.00  0.00    +0.021 A 
ATOM     15  C   UNL     1      -5.713   2.407  25.806  0.00  0.00    +0.099 A 
ATOM     16  N   UNL     1      -5.054   2.883  25.947  0.00  0.00    -0.242 NA
ATOM     17  C   UNL     1      -4.477   2.971  25.364  0.00  0.00    +0.103 A 
ENDBRANCH  10  12
BRANCH   3   2
ATOM      1  C   UNL     1      -2.683  -0.395  25.248  0.00  0.00    +0.174 C 
ATOM      2  O   UNL     1      -3.012   0.362  25.254  0.00  0.00    -0.349 OA
ENDBRANCH   3   2
TORSDOF 2
ENDMDL
MODEL 5
REMARK VINA RESULT:      -7.6      1.624      2.225
REMARK  Name = 
REMARK  2 active torsions:
REMARK  status: ('A' for Active; 'I' for Inactive)
REMARK    1  A    between atoms: O_2  and  C_3
REMARK    2  A    between atoms: C_10  and  C_12
REMARK                            x       y       z     vdW  Elec       q    Type
REMARK                         _______ _______ _______ _____ _____    ______ ____
ROOT
ATOM      3  C   UNL     1      -1.870   2.420  25.299  0.00  0.00    +0.165 C 
ATOM      4  C   UNL     1      -1.595   3.183  25.450  0.00  0.00    +0.173 C 
ATOM      5  O   UNL     1      -1.976   3.902  25.315  0.00  0.00    -0.349 OA
ATOM      6  C   UNL     1      -2.725   4.036  24.996  0.00  0.00    +0.164 C 
ATOM      7  C   UNL     1      -3.277   3.484  24.733  0.00  0.00    +0.126 C 
ATOM      8  N   UNL     1      -3.219   2.661  24.723  0.00  0.00    -0.271 N 
ATOM      9  C   UNL     1      -2.592   2.187  24.976  0.00  0.00    +0.126 C 
ATOM     10  C   UNL     1      -3.873   2.259  24.423  0.00  0.00    +0.251 C 
ATOM     11  O   UNL     1      -4.530   2.680  24.155  0.00  0.00    -0.270 OA
ENDROOT
BRANCH  10  12
ATOM     12  C   UNL     1      -3.870   1.434  24.389  0.00  0.00    +0.073 A 
ATOM     13  C   UNL     1      -4.205   0.995  25.003  0.00  0.00    +0.008 A 
ATOM     14  C   UNL     1      -4.203   0.171  24.969  0.00  0.00    +0.021 A 
ATOM     15  C   UNL     1      -3.866  -0.214  24.322  0.00  0.00    +0.099 A 
ATOM     16  N   UNL     1      -3.532   0.224  23.709  0.00  0.00    -0.242 NA
ATOM     17  C   UNL     1      -3.534   1.048  23.742  0.00  0.00    +0.103 A 
ENDBRANCH  10  12
BRANCH   3   2
ATOM      1  C   UNL     1      -0.599   1.980  25.786  0.00  0.00    +0.174 C 
ATOM      2  O   UNL     1      -1.353   1.808  25.497  0.00  0.00    -0.349 OA
ENDBRANCH   3   2
TORSDOF 2
ENDMDL
MODEL 6
REMARK VINA RESULT:      -7.6      2.910      4.491
REMARK  Name = 
REMARK  2 active torsions:
REMARK  status: ('A' for Active; 'I' for Inactive)
REMARK    1  A    between atoms: O_2  and  C_3
REMARK    2  A    between atoms: C_10  and  C_12
REMARK                            x       y       z     vdW  Elec       q    Type
REMARK                         _______ _______ _______ _____ _____    ______ ____
ROOT
ATOM      3  C   UNL     1      -1.720   1.967  23.715  0.00  0.00    +0.165 C 
ATOM      4  C   UNL     1      -1.453   1.217  23.498  0.00  0.00    +0.173 C 
ATOM      5  O   UNL     1      -0.859   0.762  23.847  0.00  0.00    -0.349 OA
ATOM      6  C   UNL     1      -0.386   0.945  24.498  0.00  0.00    +0.164 C 
ATOM      7  C   UNL     1      -0.390   1.627  24.961  0.00  0.00    +0.126 C 
ATOM      8  N   UNL     1      -0.868   2.296  24.888  0.00  0.00    -0.271 N 
ATOM      9  C   UNL     1      -1.460   2.447  24.333  0.00  0.00    +0.126 C 
ATOM     10  C   UNL     1      -0.736   2.892  25.442  0.00  0.00    +0.251 C 
ATOM     11  O   UNL     1      -0.157   2.797  26.022  0.00  0.00    -0.270 OA
ENDROOT
BRANCH  10  12
ATOM     12  C   UNL     1      -1.185   3.584  25.418  0.00  0.00    +0.073 A 
ATOM     13  C   UNL     1      -0.896   4.249  25.023  0.00  0.00    +0.008 A 
ATOM     14  C   UNL     1      -1.345   4.941  24.998  0.00  0.00    +0.021 A 
ATOM     15  C   UNL     1      -2.081   4.968  25.369  0.00  0.00    +0.099 A 
ATOM     16  N   UNL     1      -2.369   4.305  25.764  0.00  0.00    -0.242 NA
ATOM     17  C   UNL     1      -1.921   3.612  25.788  0.00  0.00    +0.103 A 
ENDBRANCH  10  12
BRANCH   3   2
ATOM      1  C   UNL     1      -2.475   1.969  22.501  0.00  0.00    +0.174 C 
ATOM      2  O   UNL     1      -2.328   2.278  23.252  0.00  0.00    -0.349 OA
ENDBRANCH   3   2
TORSDOF 2
ENDMDL
MODEL 7
REMARK VINA RESULT:      -7.5      2.140      3.210
REMARK  Name = 
REMARK  2 active torsions:
REMARK  status: ('A' for Active; 'I' for Inactive)
REMARK    1  A    between atoms: O_2  and  C_3
REMARK    2  A    between atoms: C_10  and  C_12
REMARK                            x       y       z     vdW  Elec       q    Type
REMARK                         _______ _______ _______ _____ _____    ______ ____
ROOT
ATOM      3  C   UNL     1      -3.976   3.247  25.371  0.00  0.00    +0.165 C 
ATOM      4  C   UNL     1      -4.675   3.470  25.748  0.00  0.00    +0.173 C 
ATOM      5  O   UNL     1      -5.380   3.047  25.814  0.00  0.00    -0.349 OA
ATOM      6  C   UNL     1      -5.561   2.298  25.518  0.00  0.00    +0.164 C 
ATOM      7  C   UNL     1      -5.081   1.787  25.084  0.00  0.00    +0.126 C 
ATOM      8  N   UNL     1      -4.301   1.898  24.838  0.00  0.00    -0.271 N 
ATOM      9  C   UNL     1      -3.809   2.548  24.966  0.00  0.00    +0.126 C 
ATOM     10  C   UNL     1      -3.970   1.278  24.407  0.00  0.00    +0.251 C 
ATOM     11  O   UNL     1      -4.414   0.601  24.249  0.00  0.00    -0.270 OA
ENDROOT
BRANCH  10  12
ATOM     12  C   UNL     1      -3.193   1.333  24.135  0.00  0.00    +0.073 A 
ATOM     13  C   UNL     1      -3.037   1.664  23.395  0.00  0.00    +0.008 A 
ATOM     14  C   UNL     1      -2.260   1.720  23.123  0.00  0.00    +0.021 A 
ATOM     15  C   UNL     1      -1.639   1.444  23.592  0.00  0.00    +0.099 A 
ATOM     16  N   UNL     1      -1.794   1.114  24.331  0.00  0.00    -0.242 NA
ATOM     17  C   UNL     1      -2.571   1.058  24.603  0.00  0.00    +0.103 A 
ENDBRANCH  10  12
BRANCH   3   2
ATOM      1  C   UNL     1      -3.220   4.218  26.098  0.00  0.00    +0.174 C 
ATOM      2  O   UNL     1      -3.361   3.797  25.403  0.00  0.00    -0.349 OA
ENDBRANCH   3   2
TORSDOF 2
ENDMDL
