MODEL 1
REMARK VINA RESULT:     -13.2      0.000      0.000
REMARK  Name = 
REMARK  4 active torsions:
REMARK  status: ('A' for Active; 'I' for Inactive)
REMARK    1  A    between atoms: C_4  and  C_20
REMARK    2  A    between atoms: C_5  and  N_6
REMARK    3  A    between atoms: C_7  and  C_9
REMARK    4  A    between atoms: C_23  and  C_26
REMARK                            x       y       z     vdW  Elec       q    Type
REMARK                         _______ _______ _______ _____ _____    ______ ____
ROOT
ATOM      1  O   UNL     1      -5.334   3.838  25.270  0.00  0.00    -0.220 OA
ATOM      2  C   UNL     1      -4.743   3.293  25.086  0.00  0.00    +0.184 C 
ATOM      3  C   UNL     1      -3.938   3.457  25.009  0.00  0.00    +0.042 C 
ATOM      4  C   UNL     1      -3.550   2.753  24.822  0.00  0.00    +0.049 C 
ATOM      5  C   UNL     1      -4.115   2.154  24.782  0.00  0.00    +0.133 C 
ATOM     18  C   UNL     1      -4.852   2.487  24.945  0.00  0.00    +0.202 C 
ATOM     19  O   UNL     1      -5.572   2.085  24.964  0.00  0.00    -0.219 OA
ENDROOT
BRANCH   4  20
ATOM     20  C   UNL     1      -2.739   2.664  24.696  0.00  0.00    -0.002 A 
ATOM     21  C   UNL     1      -2.449   2.558  23.931  0.00  0.00    +0.095 A 
ATOM     22  N   UNL     1      -1.639   2.470  23.806  0.00  0.00    -0.240 NA
ATOM     23  C   UNL     1      -1.118   2.487  24.446  0.00  0.00    +0.153 A 
ATOM     24  C   UNL     1      -1.408   2.593  25.211  0.00  0.00    +0.023 A 
ATOM     25  C   UNL     1      -2.219   2.682  25.336  0.00  0.00    -0.001 A 
BRANCH  23  26
ATOM     26  C   UNL     1      -0.308   2.398  24.320  0.00  0.00    +0.435 C 
ATOM     27  F   UNL     1       0.503   2.310  24.195  0.00  0.00    -0.164 F 
ATOM     28  F   UNL     1      -0.377   1.586  24.446  0.00  0.00    -0.164 F 
ATOM     29  F   UNL     1      -0.239   3.211  24.195  0.00  0.00    -0.164 F 
ENDBRANCH  23  26
ENDBRANCH   4  20
BRANCH   5   6
ATOM      6  N   UNL     1      -3.969   1.360  24.610  0.00  0.00    -0.199 NA
ATOM      7  C   UNL     1      -4.304   0.768  25.078  0.00  0.00    +0.289 C 
ATOM      8  O   UNL     1      -4.784   0.970  25.717  0.00  0.00    -0.266 OA
BRANCH   7   9
ATOM      9  C   UNL     1      -4.158  -0.026  24.906  0.00  0.00    +0.166 A 
ATOM     10  N   UNL     1      -4.396  -0.426  24.226  0.00  0.00    -0.234 NA
ATOM     11  C   UNL     1      -4.134  -1.206  24.283  0.00  0.00    +0.088 A 
ATOM     12  C   UNL     1      -3.733  -1.287  25.000  0.00  0.00    +0.049 A 
ATOM     13  S   UNL     1      -3.747  -0.558  25.385  0.00  0.00    -0.062 S 
ATOM     14  C   UNL     1      -3.406  -2.016  25.208  0.00  0.00    +0.008 A 
ATOM     15  C   UNL     1      -3.480  -2.662  24.701  0.00  0.00    +0.001 A 
ATOM     16  C   UNL     1      -3.881  -2.580  23.985  0.00  0.00    +0.002 A 
ATOM     17  C   UNL     1      -4.208  -1.853  23.776  0.00  0.00    +0.020 A 
ENDBRANCH   7   9
ENDBRANCH   5   6
TORSDOF 4
ENDMDL
MODEL 2
REMARK VINA RESULT:     -12.7      2.940      3.762
REMARK  Name = 
REMARK  4 active torsions:
REMARK  status: ('A' for Active; 'I' for Inactive)
REMARK    1  A    between atoms: C_4  and  C_20
REMARK    2  A    between atoms: C_5  and  N_6
REMARK    3  A    between atoms: C_7  and  C_9
REMARK    4  A    between atoms: C_23  and  C_26
REMARK                            x       y       z     vdW  Elec       q    Type
REMARK                         _______ _______ _______ _____ _____    ______ ____
ROOT
ATOM      1  O   UNL     1      -1.340   5.379  25.264  0.00  0.00    -0.220 OA
ATOM      2  C   UNL     1      -1.710   4.648  25.171  0.00  0.00    +0.184 C 
ATOM      3  C   UNL     1      -2.524   4.512  25.181  0.00  0.00    +0.042 C 
ATOM      4  C   UNL     1      -2.648   3.704  25.068  0.00  0.00    +0.049 C 
ATOM      5  C   UNL     1      -1.912   3.341  24.988  0.00  0.00    +0.133 C 
ATOM     18  C   UNL     1      -1.332   3.924  25.052  0.00  0.00    +0.202 C 
ATOM     19  O   UNL     1      -0.518   3.805  25.005  0.00  0.00    -0.219 OA
ENDROOT
BRANCH   4  20
ATOM     20  C   UNL     1      -3.381   3.325  25.040  0.00  0.00    -0.002 A 
ATOM     21  C   UNL     1      -3.798   3.181  25.737  0.00  0.00    +0.095 A 
ATOM     22  N   UNL     1      -4.530   2.803  25.708  0.00  0.00    -0.240 NA
ATOM     23  C   UNL     1      -4.846   2.569  24.983  0.00  0.00    +0.153 A 
ATOM     24  C   UNL     1      -4.430   2.713  24.286  0.00  0.00    +0.023 A 
ATOM     25  C   UNL     1      -3.697   3.092  24.314  0.00  0.00    -0.001 A 
BRANCH  23  26
ATOM     26  C   UNL     1      -5.579   2.191  24.954  0.00  0.00    +0.435 C 
ATOM     27  F   UNL     1      -6.311   1.812  24.925  0.00  0.00    -0.164 F 
ATOM     28  F   UNL     1      -5.958   2.918  25.046  0.00  0.00    -0.164 F 
ATOM     29  F   UNL     1      -5.199   1.464  24.862  0.00  0.00    -0.164 F 
ENDBRANCH  23  26
ENDBRANCH   4  20
BRANCH   5   6
ATOM      6  N   UNL     1      -1.779   2.536  24.866  0.00  0.00    -0.199 NA
ATOM      7  C   UNL     1      -1.244   2.128  25.345  0.00  0.00    +0.289 C 
ATOM      8  O   UNL     1      -0.844   2.527  25.946  0.00  0.00    -0.266 OA
BRANCH   7   9
ATOM      9  C   UNL     1      -1.111   1.323  25.223  0.00  0.00    +0.166 A 
ATOM     10  N   UNL     1      -1.395   0.708  25.693  0.00  0.00    -0.234 NA
ATOM     11  C   UNL     1      -1.130  -0.003  25.370  0.00  0.00    +0.088 A 
ATOM     12  C   UNL     1      -0.681   0.173  24.700  0.00  0.00    +0.049 A 
ATOM     13  S   UNL     1      -0.669   0.993  24.609  0.00  0.00    -0.062 S 
ATOM     14  C   UNL     1      -0.341  -0.436  24.260  0.00  0.00    +0.008 A 
ATOM     15  C   UNL     1      -0.450  -1.221  24.488  0.00  0.00    +0.001 A 
ATOM     16  C   UNL     1      -0.899  -1.397  25.158  0.00  0.00    +0.002 A 
ATOM     17  C   UNL     1      -1.239  -0.788  25.599  0.00  0.00    +0.020 A 
ENDBRANCH   7   9
ENDBRANCH   5   6
TORSDOF 4
ENDMDL
MODEL 3
REMARK VINA RESULT:     -12.7      1.799      2.202
REMARK  Name = 
REMARK  4 active torsions:
REMARK  status: ('A' for Active; 'I' for Inactive)
REMARK    1  A    between atoms: C_4  and  C_20
REMARK    2  A    between atoms: C_5  and  N_6
REMARK    3  A    between atoms: C_7  and  C_9
REMARK    4  A    between atoms: C_23  and  C_26
REMARK                            x       y       z     vdW  Elec       q    Type
REMARK                         _______ _______ _______ _____ _____    ______ ____
ROOT
ATOM      1  O   UNL     1      -6.174   2.406  25.039  0.00  0.00    -0.220 OA
ATOM      2  C   UNL     1      -5.350   2.414  25.073  0.00  0.00    +0.184 C 
ATOM      3  C   UNL     1      -4.872   3.087  25.081  0.00  0.00    +0.042 C 
ATOM      4  C   UNL     1      -4.085   2.839  25.118  0.00  0.00    +0.049 C 
ATOM      5  C   UNL     1      -4.078   2.015  25.134  0.00  0.00    +0.133 C 
ATOM     18  C   UNL     1      -4.859   1.752  25.106  0.00  0.00    +0.202 C 
ATOM     19  O   UNL     1      -5.107   0.965  25.111  0.00  0.00    -0.219 OA
ENDROOT
BRANCH   4  20
ATOM     20  C   UNL     1      -3.423   3.331  25.137  0.00  0.00    -0.002 A 
ATOM     21  C   UNL     1      -3.124   3.647  24.436  0.00  0.00    +0.095 A 
ATOM     22  N   UNL     1      -2.462   4.138  24.455  0.00  0.00    -0.240 NA
ATOM     23  C   UNL     1      -2.098   4.314  25.174  0.00  0.00    +0.153 A 
ATOM     24  C   UNL     1      -2.396   3.997  25.875  0.00  0.00    +0.023 A 
ATOM     25  C   UNL     1      -3.059   3.505  25.857  0.00  0.00    -0.001 A 
BRANCH  23  26
ATOM     26  C   UNL     1      -1.436   4.805  25.193  0.00  0.00    +0.435 C 
ATOM     27  F   UNL     1      -0.773   5.296  25.212  0.00  0.00    -0.164 F 
ATOM     28  F   UNL     1      -1.896   5.413  25.510  0.00  0.00    -0.164 F 
ATOM     29  F   UNL     1      -0.976   4.197  24.876  0.00  0.00    -0.164 F 
ENDBRANCH  23  26
ENDBRANCH   4  20
BRANCH   5   6
ATOM      6  N   UNL     1      -3.406   1.536  25.172  0.00  0.00    -0.199 NA
ATOM      7  C   UNL     1      -3.303   0.926  24.625  0.00  0.00    +0.289 C 
ATOM      8  O   UNL     1      -3.872   0.794  24.043  0.00  0.00    -0.266 OA
BRANCH   7   9
ATOM      9  C   UNL     1      -2.632   0.448  24.663  0.00  0.00    +0.166 A 
ATOM     10  N   UNL     1      -1.923   0.575  24.261  0.00  0.00    -0.234 NA
ATOM     11  C   UNL     1      -1.405  -0.036  24.459  0.00  0.00    +0.088 A 
ATOM     12  C   UNL     1      -1.795  -0.541  24.982  0.00  0.00    +0.049 A 
ATOM     13  S   UNL     1      -2.553  -0.243  25.109  0.00  0.00    -0.062 S 
ATOM     14  C   UNL     1      -1.407  -1.208  25.276  0.00  0.00    +0.008 A 
ATOM     15  C   UNL     1      -0.632  -1.369  25.047  0.00  0.00    +0.001 A 
ATOM     16  C   UNL     1      -0.243  -0.864  24.523  0.00  0.00    +0.002 A 
ATOM     17  C   UNL     1      -0.629  -0.197  24.229  0.00  0.00    +0.020 A 
ENDBRANCH   7   9
ENDBRANCH   5   6
TORSDOF 4
ENDMDL
MODEL 4
REMARK VINA RESULT:     -12.6      2.482      3.230
REMARK  Name = 
REMARK  4 active torsions:
REMARK  status: ('A' for Active; 'I' for Inactive)
REMARK    1  A    between atoms: C_4  and  C_20
REMARK    2  A    between atoms: C_5  and  N_6
REMARK    3  A    between atoms: C_7  and  C_9
REMARK    4  A    between atoms: C_23  and  C_26
REMARK                            x       y       z     vdW  Elec       q    Type
REMARK                         _______ _______ _______ _____ _____    ______ ____
ROOT
ATOM      1  O   UNL     1      -0.206   3.416  24.328  0.00  0.00    -0.220 OA
ATOM      2  C   UNL     1      -0.951   3.071  24.410  0.00  0.00    +0.184 C 
ATOM      3  C   UNL     1      -1.642   3.458  24.642  0.00  0.00    +0.042 C 
ATOM      4  C   UNL     1      -2.254   2.904  24.649  0.00  0.00    +0.049 C 
ATOM      5  C   UNL     1      -1.941   2.175  24.421  0.00  0.00    +0.133 C 
ATOM     18  C   UNL     1      -1.136   2.278  24.273  0.00  0.00    +0.202 C 
ATOM     19  O   UNL     1      -0.608   1.692  24.032  0.00  0.00    -0.219 OA
ENDROOT
BRANCH   4  20
ATOM     20  C   UNL     1      -3.040   3.053  24.848  0.00  0.00    -0.002 A 
ATOM     21  C   UNL     1      -3.256   3.142  25.640  0.00  0.00    +0.095 A 
ATOM     22  N   UNL     1      -4.042   3.291  25.839  0.00  0.00    -0.240 NA
ATOM     23  C   UNL     1      -4.613   3.351  25.247  0.00  0.00    +0.153 A 
ATOM     24  C   UNL     1      -4.398   3.263  24.455  0.00  0.00    +0.023 A 
ATOM     25  C   UNL     1      -3.611   3.114  24.256  0.00  0.00    -0.001 A 
BRANCH  23  26
ATOM     26  C   UNL     1      -5.399   3.500  25.446  0.00  0.00    +0.435 C 
ATOM     27  F   UNL     1      -6.186   3.649  25.645  0.00  0.00    -0.164 F 
ATOM     28  F   UNL     1      -5.234   4.307  25.498  0.00  0.00    -0.164 F 
ATOM     29  F   UNL     1      -5.565   2.693  25.394  0.00  0.00    -0.164 F 
ENDBRANCH  23  26
ENDBRANCH   4  20
BRANCH   5   6
ATOM      6  N   UNL     1      -2.360   1.468  24.353  0.00  0.00    -0.199 NA
ATOM      7  C   UNL     1      -2.106   0.797  24.761  0.00  0.00    +0.289 C 
ATOM      8  O   UNL     1      -1.433   0.834  25.237  0.00  0.00    -0.266 OA
BRANCH   7   9
ATOM      9  C   UNL     1      -2.525   0.089  24.693  0.00  0.00    +0.166 A 
ATOM     10  N   UNL     1      -3.083  -0.090  24.113  0.00  0.00    -0.234 NA
ATOM     11  C   UNL     1      -3.362  -0.853  24.255  0.00  0.00    +0.088 A 
ATOM     12  C   UNL     1      -2.975  -1.146  24.923  0.00  0.00    +0.049 A 
ATOM     13  S   UNL     1      -2.458  -0.564  25.194  0.00  0.00    -0.062 S 
ATOM     14  C   UNL     1      -3.146  -1.905  25.197  0.00  0.00    +0.008 A 
ATOM     15  C   UNL     1      -3.701  -2.371  24.805  0.00  0.00    +0.001 A 
ATOM     16  C   UNL     1      -4.087  -2.079  24.137  0.00  0.00    +0.002 A 
ATOM     17  C   UNL     1      -3.918  -1.320  23.862  0.00  0.00    +0.020 A 
ENDBRANCH   7   9
ENDBRANCH   5   6
TORSDOF 4
ENDMDL
MODEL 5
REMARK VINA RESULT:     -12.4      1.977      4.183
REMARK  Name = 
REMARK  4 active torsions:
REMARK  status: ('A' for Active; 'I' for Inactive)
REMARK    1  A    between atoms: C_4  and  C_20
REMARK    2  A    between atoms: C_5  and  N_6
REMARK    3  A    between atoms: C_7  and  C_9
REMARK    4  A    between atoms: C_23  and  C_26
REMARK                            x       y       z     vdW  Elec       q    Type
REMARK                         _______ _______ _______ _____ _____    ______ ____
ROOT
ATOM      1  O   UNL     1      -6.323   2.019  24.949  0.00  0.00    -0.220 OA
ATOM      2  C   UNL     1      -5.602   1.618  24.957  0.00  0.00    +0.184 C 
ATOM      3  C   UNL     1      -5.497   0.806  24.859  0.00  0.00    +0.042 C 
ATOM      4  C   UNL     1      -4.689   0.645  24.907  0.00  0.00    +0.049 C 
ATOM      5  C   UNL     1      -4.294   1.358  25.035  0.00  0.00    +0.133 C 
ATOM     18  C   UNL     1      -4.859   1.960  25.066  0.00  0.00    +0.202 C 
ATOM     19  O   UNL     1      -4.706   2.761  25.185  0.00  0.00    -0.219 OA
ENDROOT
BRANCH   4  20
ATOM     20  C   UNL     1      -4.337  -0.098  24.839  0.00  0.00    -0.002 A 
ATOM     21  C   UNL     1      -4.027  -0.471  25.507  0.00  0.00    +0.095 A 
ATOM     22  N   UNL     1      -3.676  -1.213  25.438  0.00  0.00    -0.240 NA
ATOM     23  C   UNL     1      -3.634  -1.584  24.703  0.00  0.00    +0.153 A 
ATOM     24  C   UNL     1      -3.944  -1.212  24.035  0.00  0.00    +0.023 A 
ATOM     25  C   UNL     1      -4.296  -0.468  24.103  0.00  0.00    -0.001 A 
BRANCH  23  26
ATOM     26  C   UNL     1      -3.283  -2.327  24.634  0.00  0.00    +0.435 C 
ATOM     27  F   UNL     1      -2.931  -3.071  24.566  0.00  0.00    -0.164 F 
ATOM     28  F   UNL     1      -3.977  -2.681  24.906  0.00  0.00    -0.164 F 
ATOM     29  F   UNL     1      -2.588  -1.973  24.362  0.00  0.00    -0.164 F 
ENDBRANCH  23  26
ENDBRANCH   4  20
BRANCH   5   6
ATOM      6  N   UNL     1      -3.479   1.453  25.118  0.00  0.00    -0.199 NA
ATOM      7  C   UNL     1      -3.076   1.993  24.640  0.00  0.00    +0.289 C 
ATOM      8  O   UNL     1      -3.489   2.436  24.080  0.00  0.00    -0.266 OA
BRANCH   7   9
ATOM      9  C   UNL     1      -2.260   2.088  24.722  0.00  0.00    +0.166 A 
ATOM     10  N   UNL     1      -1.864   2.295  25.415  0.00  0.00    -0.234 NA
ATOM     11  C   UNL     1      -1.058   2.328  25.247  0.00  0.00    +0.088 A 
ATOM     12  C   UNL     1      -0.955   2.141  24.450  0.00  0.00    +0.049 A 
ATOM     13  S   UNL     1      -1.698   1.992  24.126  0.00  0.00    -0.062 S 
ATOM     14  C   UNL     1      -0.197   2.130  24.124  0.00  0.00    +0.008 A 
ATOM     15  C   UNL     1       0.457   2.306  24.593  0.00  0.00    +0.001 A 
ATOM     16  C   UNL     1       0.355   2.493  25.390  0.00  0.00    +0.002 A 
ATOM     17  C   UNL     1      -0.402   2.504  25.718  0.00  0.00    +0.020 A 
ENDBRANCH   7   9
ENDBRANCH   5   6
TORSDOF 4
ENDMDL
