MODEL 1
REMARK VINA RESULT:     -12.4      0.000      0.000
REMARK  Name = 
REMARK  4 active torsions:
REMARK  status: ('A' for Active; 'I' for Inactive)
REMARK    1  A    between atoms: C_7  and  C_9
REMARK    2  A    between atoms: N_12  and  C_13
REMARK    3  A    between atoms: C_13  and  C_14
REMARK    4  A    between atoms: C_17  and  C_20
REMARK                            x       y       z     vdW  Elec       q    Type
REMARK                         _______ _______ _______ _____ _____    ______ ____
ROOT
ATOM      9  C   UNL     1      -4.721   1.001  25.015  0.00  0.00    +0.076 C 
ATOM     10  C   UNL     1      -5.343   1.231  25.505  0.00  0.00    +0.026 C 
ATOM     11  C   UNL     1      -5.406   2.053  25.472  0.00  0.00    +0.073 C 
ATOM     12  N   UNL     1      -4.821   2.331  24.961  0.00  0.00    -0.269 NA
ATOM     22  C   UNL     1      -4.398   1.681  24.679  0.00  0.00    +0.080 C 
ENDROOT
BRANCH   9   7
ATOM      1  C   UNL     1      -3.059  -2.982  25.090  0.00  0.00    +0.031 C 
ATOM      2  C   UNL     1      -3.456  -2.308  24.831  0.00  0.00    -0.020 A 
ATOM      3  C   UNL     1      -3.501  -1.643  25.316  0.00  0.00    +0.016 A 
ATOM      4  C   UNL     1      -3.898  -0.968  25.057  0.00  0.00    +0.100 A 
ATOM      5  C   UNL     1      -4.250  -0.958  24.311  0.00  0.00    +0.100 A 
ATOM      6  N   UNL     1      -4.601  -0.220  24.205  0.00  0.00    -0.229 NA
ATOM      7  C   UNL     1      -4.466   0.227  24.885  0.00  0.00    +0.140 A 
ATOM      8  N   UNL     1      -4.031  -0.235  25.411  0.00  0.00    -0.229 NA
ATOM     23  C   UNL     1      -4.206  -1.624  23.825  0.00  0.00    +0.020 A 
ATOM     24  C   UNL     1      -3.809  -2.298  24.085  0.00  0.00    -0.003 A 
ENDBRANCH   9   7
BRANCH  12  13
ATOM     13  C   UNL     1      -4.684   3.121  24.766  0.00  0.00    +0.099 C 
BRANCH  13  14
ATOM     14  C   UNL     1      -3.934   3.448  24.874  0.00  0.00    -0.006 A 
ATOM     15  C   UNL     1      -3.712   3.737  25.615  0.00  0.00    -0.002 A 
ATOM     16  C   UNL     1      -2.963   4.064  25.722  0.00  0.00    +0.010 A 
ATOM     17  C   UNL     1      -2.435   4.103  25.090  0.00  0.00    +0.068 A 
ATOM     18  C   UNL     1      -2.656   3.815  24.349  0.00  0.00    +0.010 A 
ATOM     19  C   UNL     1      -3.406   3.487  24.241  0.00  0.00    -0.002 A 
BRANCH  17  20
ATOM     20  C   UNL     1      -1.686   4.431  25.198  0.00  0.00    +0.100 C 
ATOM     21  N   UNL     1      -0.936   4.759  25.305  0.00  0.00    -0.191 NA
ENDBRANCH  17  20
ENDBRANCH  13  14
ENDBRANCH  12  13
TORSDOF 4
ENDMDL
MODEL 2
REMARK VINA RESULT:     -12.1      1.176      5.071
REMARK  Name = 
REMARK  4 active torsions:
REMARK  status: ('A' for Active; 'I' for Inactive)
REMARK    1  A    between atoms: C_7  and  C_9
REMARK    2  A    between atoms: N_12  and  C_13
REMARK    3  A    between atoms: C_13  and  C_14
REMARK    4  A    between atoms: C_17  and  C_20
REMARK                            x       y       z     vdW  Elec       q    Type
REMARK                         _______ _______ _______ _____ _____    ______ ____
ROOT
ATOM      9  C   UNL     1      -3.821   2.161  24.873  0.00  0.00    +0.076 C 
ATOM     10  C   UNL     1      -4.499   2.184  24.403  0.00  0.00    +0.026 C 
ATOM     11  C   UNL     1      -4.901   1.470  24.499  0.00  0.00    +0.073 C 
ATOM     12  N   UNL     1      -4.472   1.006  25.029  0.00  0.00    -0.269 NA
ATOM     22  C   UNL     1      -3.805   1.433  25.260  0.00  0.00    +0.080 C 
ENDROOT
BRANCH   9   7
ATOM      1  C   UNL     1      -0.402   4.795  24.792  0.00  0.00    +0.031 C 
ATOM      2  C   UNL     1      -1.155   4.499  24.952  0.00  0.00    -0.020 A 
ATOM      3  C   UNL     1      -1.375   3.756  24.670  0.00  0.00    +0.016 A 
ATOM      4  C   UNL     1      -2.128   3.460  24.830  0.00  0.00    +0.100 A 
ATOM      5  C   UNL     1      -2.661   3.908  25.272  0.00  0.00    +0.100 A 
ATOM      6  N   UNL     1      -3.360   3.476  25.342  0.00  0.00    -0.229 NA
ATOM      7  C   UNL     1      -3.259   2.761  24.943  0.00  0.00    +0.140 A 
ATOM      8  N   UNL     1      -2.498   2.752  24.627  0.00  0.00    -0.229 NA
ATOM     23  C   UNL     1      -2.442   4.652  25.554  0.00  0.00    +0.020 A 
ATOM     24  C   UNL     1      -1.688   4.947  25.394  0.00  0.00    -0.003 A 
ENDBRANCH   9   7
BRANCH  12  13
ATOM     13  C   UNL     1      -4.674   0.248  25.284  0.00  0.00    +0.099 C 
BRANCH  13  14
ATOM     14  C   UNL     1      -4.202  -0.397  25.077  0.00  0.00    -0.006 A 
ATOM     15  C   UNL     1      -3.658  -0.701  25.618  0.00  0.00    -0.002 A 
ATOM     16  C   UNL     1      -3.187  -1.345  25.411  0.00  0.00    +0.010 A 
ATOM     17  C   UNL     1      -3.259  -1.686  24.663  0.00  0.00    +0.068 A 
ATOM     18  C   UNL     1      -3.803  -1.383  24.122  0.00  0.00    +0.010 A 
ATOM     19  C   UNL     1      -4.275  -0.738  24.329  0.00  0.00    -0.002 A 
BRANCH  17  20
ATOM     20  C   UNL     1      -2.787  -2.330  24.457  0.00  0.00    +0.100 C 
ATOM     21  N   UNL     1      -2.315  -2.975  24.250  0.00  0.00    -0.191 NA
ENDBRANCH  17  20
ENDBRANCH  13  14
ENDBRANCH  12  13
TORSDOF 4
ENDMDL
MODEL 3
REMARK VINA RESULT:     -11.7      1.984      2.672
REMARK  Name = 
REMARK  4 active torsions:
REMARK  status: ('A' for Active; 'I' for Inactive)
REMARK    1  A    between atoms: C_7  and  C_9
REMARK    2  A    between atoms: N_12  and  C_13
REMARK    3  A    between atoms: C_13  and  C_14
REMARK    4  A    between atoms: C_17  and  C_20
REMARK                            x       y       z     vdW  Elec       q    Type
REMARK                         _______ _______ _______ _____ _____    ______ ____
ROOT
ATOM      9  C   UNL     1      -1.406   0.365  24.774  0.00  0.00    +0.076 C 
ATOM     10  C   UNL     1      -0.716   0.457  24.333  0.00  0.00    +0.026 C 
ATOM     11  C   UNL     1      -0.283   1.079  24.661  0.00  0.00    +0.073 C 
ATOM     12  N   UNL     1      -0.707   1.370  25.306  0.00  0.00    -0.269 NA
ATOM     22  C   UNL     1      -1.401   0.929  25.376  0.00  0.00    +0.080 C 
ENDROOT
BRANCH   9   7
ATOM      1  C   UNL     1      -3.928  -3.105  24.297  0.00  0.00    +0.031 C 
ATOM      2  C   UNL     1      -3.674  -2.321  24.304  0.00  0.00    -0.020 A 
ATOM      3  C   UNL     1      -2.904  -2.139  24.533  0.00  0.00    +0.016 A 
ATOM      4  C   UNL     1      -2.649  -1.354  24.540  0.00  0.00    +0.100 A 
ATOM      5  C   UNL     1      -3.167  -0.751  24.317  0.00  0.00    +0.100 A 
ATOM      6  N   UNL     1      -2.764  -0.034  24.378  0.00  0.00    -0.229 NA
ATOM      7  C   UNL     1      -1.998  -0.193  24.638  0.00  0.00    +0.140 A 
ATOM      8  N   UNL     1      -1.927  -1.009  24.738  0.00  0.00    -0.229 NA
ATOM     23  C   UNL     1      -3.939  -0.933  24.088  0.00  0.00    +0.020 A 
ATOM     24  C   UNL     1      -4.192  -1.718  24.081  0.00  0.00    -0.003 A 
ENDBRANCH   9   7
BRANCH  12  13
ATOM     13  C   UNL     1      -0.477   1.993  25.796  0.00  0.00    +0.099 C 
BRANCH  13  14
ATOM     14  C   UNL     1      -0.731   2.762  25.633  0.00  0.00    -0.006 A 
ATOM     15  C   UNL     1      -1.420   3.051  25.981  0.00  0.00    -0.002 A 
ATOM     16  C   UNL     1      -1.673   3.819  25.818  0.00  0.00    +0.010 A 
ATOM     17  C   UNL     1      -1.237   4.298  25.307  0.00  0.00    +0.068 A 
ATOM     18  C   UNL     1      -0.547   4.008  24.958  0.00  0.00    +0.010 A 
ATOM     19  C   UNL     1      -0.293   3.239  25.121  0.00  0.00    -0.002 A 
BRANCH  17  20
ATOM     20  C   UNL     1      -1.490   5.065  25.144  0.00  0.00    +0.100 C 
ATOM     21  N   UNL     1      -1.742   5.834  24.981  0.00  0.00    -0.191 NA
ENDBRANCH  17  20
ENDBRANCH  13  14
ENDBRANCH  12  13
TORSDOF 4
ENDMDL
MODEL 4
REMARK VINA RESULT:     -11.6      2.060      5.824
REMARK  Name = 
REMARK  4 active torsions:
REMARK  status: ('A' for Active; 'I' for Inactive)
REMARK    1  A    between atoms: C_7  and  C_9
REMARK    2  A    between atoms: N_12  and  C_13
REMARK    3  A    between atoms: C_13  and  C_14
REMARK    4  A    between atoms: C_17  and  C_20
REMARK                            x       y       z     vdW  Elec       q    Type
REMARK                         _______ _______ _______ _____ _____    ______ ____
ROOT
ATOM      9  C   UNL     1      -1.049   1.275  25.125  0.00  0.00    +0.076 C 
ATOM     10  C   UNL     1      -0.512   0.900  24.624  0.00  0.00    +0.026 C 
ATOM     11  C   UNL     1      -0.538   0.090  24.780  0.00  0.00    +0.073 C 
ATOM     12  N   UNL     1      -1.092  -0.036  25.378  0.00  0.00    -0.269 NA
ATOM     22  C   UNL     1      -1.407   0.697  25.592  0.00  0.00    +0.080 C 
ENDROOT
BRANCH   9   7
ATOM      1  C   UNL     1      -1.077   5.588  24.975  0.00  0.00    +0.031 C 
ATOM      2  C   UNL     1      -1.321   4.811  25.101  0.00  0.00    -0.020 A 
ATOM      3  C   UNL     1      -0.814   4.186  24.923  0.00  0.00    +0.016 A 
ATOM      4  C   UNL     1      -1.058   3.408  25.049  0.00  0.00    +0.100 A 
ATOM      5  C   UNL     1      -1.809   3.256  25.353  0.00  0.00    +0.100 A 
ATOM      6  N   UNL     1      -1.898   2.438  25.418  0.00  0.00    -0.229 NA
ATOM      7  C   UNL     1      -1.201   2.085  25.155  0.00  0.00    +0.140 A 
ATOM      8  N   UNL     1      -0.682   2.684  24.927  0.00  0.00    -0.229 NA
ATOM     23  C   UNL     1      -2.317   3.882  25.531  0.00  0.00    +0.020 A 
ATOM     24  C   UNL     1      -2.072   4.659  25.405  0.00  0.00    -0.003 A 
ENDBRANCH   9   7
BRANCH  12  13
ATOM     13  C   UNL     1      -1.294  -0.765  25.706  0.00  0.00    +0.099 C 
BRANCH  13  14
ATOM     14  C   UNL     1      -1.889  -1.222  25.361  0.00  0.00    -0.006 A 
ATOM     15  C   UNL     1      -1.699  -1.780  24.784  0.00  0.00    -0.002 A 
ATOM     16  C   UNL     1      -2.294  -2.236  24.440  0.00  0.00    +0.010 A 
ATOM     17  C   UNL     1      -3.078  -2.135  24.673  0.00  0.00    +0.068 A 
ATOM     18  C   UNL     1      -3.269  -1.577  25.250  0.00  0.00    +0.010 A 
ATOM     19  C   UNL     1      -2.674  -1.120  25.595  0.00  0.00    -0.002 A 
BRANCH  17  20
ATOM     20  C   UNL     1      -3.673  -2.591  24.329  0.00  0.00    +0.100 C 
ATOM     21  N   UNL     1      -4.268  -3.048  23.984  0.00  0.00    -0.191 NA
ENDBRANCH  17  20
ENDBRANCH  13  14
ENDBRANCH  12  13
TORSDOF 4
ENDMDL
MODEL 5
REMARK VINA RESULT:     -10.8      1.710      2.534
REMARK  Name = 
REMARK  4 active torsions:
REMARK  status: ('A' for Active; 'I' for Inactive)
REMARK    1  A    between atoms: C_7  and  C_9
REMARK    2  A    between atoms: N_12  and  C_13
REMARK    3  A    between atoms: C_13  and  C_14
REMARK    4  A    between atoms: C_17  and  C_20
REMARK                            x       y       z     vdW  Elec       q    Type
REMARK                         _______ _______ _______ _____ _____    ______ ____
ROOT
ATOM      9  C   UNL     1      -1.826   0.809  24.941  0.00  0.00    +0.076 C 
ATOM     10  C   UNL     1      -1.191   1.115  25.369  0.00  0.00    +0.026 C 
ATOM     11  C   UNL     1      -1.221   1.938  25.318  0.00  0.00    +0.073 C 
ATOM     12  N   UNL     1      -1.875   2.140  24.858  0.00  0.00    -0.269 NA
ATOM     22  C   UNL     1      -2.249   1.442  24.625  0.00  0.00    +0.080 C 
ENDROOT
BRANCH   9   7
ATOM      1  C   UNL     1      -3.556  -3.122  24.511  0.00  0.00    +0.031 C 
ATOM      2  C   UNL     1      -2.999  -2.517  24.563  0.00  0.00    -0.020 A 
ATOM      3  C   UNL     1      -3.244  -1.739  24.676  0.00  0.00    +0.016 A 
ATOM      4  C   UNL     1      -2.686  -1.133  24.729  0.00  0.00    +0.100 A 
ATOM      5  C   UNL     1      -1.882  -1.307  24.668  0.00  0.00    +0.100 A 
ATOM      6  N   UNL     1      -1.462  -0.601  24.740  0.00  0.00    -0.229 NA
ATOM      7  C   UNL     1      -2.006   0.009  24.845  0.00  0.00    +0.140 A 
ATOM      8  N   UNL     1      -2.762  -0.320  24.838  0.00  0.00    -0.229 NA
ATOM     23  C   UNL     1      -1.636  -2.087  24.555  0.00  0.00    +0.020 A 
ATOM     24  C   UNL     1      -2.195  -2.692  24.503  0.00  0.00    -0.003 A 
ENDBRANCH   9   7
BRANCH  12  13
ATOM     13  C   UNL     1      -2.113   2.906  24.665  0.00  0.00    +0.099 C 
BRANCH  13  14
ATOM     14  C   UNL     1      -2.868   3.169  24.873  0.00  0.00    -0.006 A 
ATOM     15  C   UNL     1      -3.491   3.103  24.335  0.00  0.00    -0.002 A 
ATOM     16  C   UNL     1      -4.244   3.366  24.544  0.00  0.00    +0.010 A 
ATOM     17  C   UNL     1      -4.376   3.694  25.289  0.00  0.00    +0.068 A 
ATOM     18  C   UNL     1      -3.753   3.759  25.827  0.00  0.00    +0.010 A 
ATOM     19  C   UNL     1      -2.998   3.496  25.619  0.00  0.00    -0.002 A 
BRANCH  17  20
ATOM     20  C   UNL     1      -5.129   3.956  25.497  0.00  0.00    +0.100 C 
ATOM     21  N   UNL     1      -5.884   4.219  25.705  0.00  0.00    -0.191 NA
ENDBRANCH  17  20
ENDBRANCH  13  14
ENDBRANCH  12  13
TORSDOF 4
ENDMDL
