REMARK  Name = 
REMARK  6 active torsions:
REMARK  status: ('A' for Active; 'I' for Inactive)
REMARK    1  A    between atoms: C_2  and  C_5
REMARK    2  A    between atoms: C_9  and  N_10
REMARK    3  A    between atoms: C_11  and  O_13
REMARK    4  A    between atoms: O_13  and  C_14
REMARK    5  A    between atoms: C_18  and  N_22
REMARK    6  A    between atoms: N_25  and  C_26
REMARK                            x       y       z     vdW  Elec       q    Type
REMARK                         _______ _______ _______ _____ _____    ______ ____
ROOT
ATOM     14  C   UNL     1       1.270  -0.922   0.000  0.00  0.00    +0.229 C 
ATOM     15  C   UNL     1       0.785  -0.255   0.000  0.00  0.00    +0.188 C 
ATOM     16  O   UNL     1       1.270   0.412   0.000  0.00  0.00    -0.348 OA
ATOM     17  C   UNL     1       2.054   0.158   0.000  0.00  0.00    +0.168 C 
ATOM     18  C   UNL     1       2.839   0.412   0.000  0.00  0.00    +0.156 C 
ATOM     19  C   UNL     1       3.324  -0.255   0.000  0.00  0.00    +0.166 C 
ATOM     20  O   UNL     1       2.839  -0.922   0.000  0.00  0.00    -0.348 OA
ATOM     21  C   UNL     1       2.054  -0.667   0.000  0.00  0.00    +0.186 C 
ENDROOT
BRANCH  18  22
ATOM     22  N   UNL     1       3.094   1.197   0.000  0.00  0.00    -0.184 NA
ATOM     23  C   UNL     1       3.901   1.369   0.000  0.00  0.00    +0.339 C 
ATOM     24  O   UNL     1       4.453   0.756   0.000  0.00  0.00    -0.249 OA
ATOM     25  N   UNL     1       4.156   2.153   0.000  0.00  0.00    -0.189 NA
BRANCH  25  26
ATOM     26  C   UNL     1       4.963   2.325   0.000  0.00  0.00    +0.097 C 
ATOM     27  C   UNL     1       5.218   3.109   0.000  0.00  0.00    +0.022 C 
ATOM     28  C   UNL     1       6.024   3.281   0.000  0.00  0.00    +0.002 C 
ATOM     29  C   UNL     1       6.577   2.668   0.000  0.00  0.00    +0.000 C 
ATOM     30  C   UNL     1       6.322   1.883   0.000  0.00  0.00    +0.002 C 
ATOM     31  C   UNL     1       5.515   1.712   0.000  0.00  0.00    +0.022 C 
ENDBRANCH  25  26
ENDBRANCH  18  22
BRANCH  14  13
ATOM     13  O   UNL     1       1.015  -1.707   0.000  0.00  0.00    -0.432 OA
BRANCH  13  11
ATOM     10  N   UNL     1      -0.047  -2.663   0.000  0.00  0.00    -0.142 NA
ATOM     11  C   UNL     1       0.208  -1.879   0.000  0.00  0.00    +0.425 C 
ATOM     12  O   UNL     1      -0.344  -1.265   0.000  0.00  0.00    -0.224 OA
BRANCH  10   9
ATOM      5  C   UNL     1      -1.916  -3.791   0.000  0.00  0.00    +0.073 A 
ATOM      6  C   UNL     1      -2.468  -3.178   0.000  0.00  0.00    +0.004 A 
ATOM      7  C   UNL     1      -2.213  -2.393   0.000  0.00  0.00    +0.001 A 
ATOM      8  C   UNL     1      -1.406  -2.222   0.000  0.00  0.00    +0.017 A 
ATOM      9  C   UNL     1      -0.854  -2.835   0.000  0.00  0.00    +0.077 A 
ATOM     32  C   UNL     1      -1.109  -3.619   0.000  0.00  0.00    +0.021 A 
BRANCH   5   2
ATOM      1  F   UNL     1      -2.426  -5.360   0.000  0.00  0.00    -0.166 F 
ATOM      2  C   UNL     1      -2.171  -4.575   0.000  0.00  0.00    +0.419 C 
ATOM      3  F   UNL     1      -1.387  -4.830   0.000  0.00  0.00    -0.166 F 
ATOM      4  F   UNL     1      -2.956  -4.321   0.000  0.00  0.00    -0.166 F 
ENDBRANCH   5   2
ENDBRANCH  10   9
ENDBRANCH  13  11
ENDBRANCH  14  13
TORSDOF 6
