MODEL 1
REMARK VINA RESULT:     -11.3      0.000      0.000
REMARK  Name = 
REMARK  5 active torsions:
REMARK  status: ('A' for Active; 'I' for Inactive)
REMARK    1  A    between atoms: C_4  and  C_15
REMARK    2  A    between atoms: C_6  and  C_8
REMARK    3  A    between atoms: C_22  and  C_23
REMARK    4  A    between atoms: C_23  and  N_24
REMARK    5  A    between atoms: C_25  and  C_27
REMARK                            x       y       z     vdW  Elec       q    Type
REMARK                         _______ _______ _______ _____ _____    ______ ____
ROOT
ATOM     15  C   UNL     1      -0.396  -0.428  24.167  0.00  0.00    +0.056 C 
ATOM     16  C   UNL     1       0.033  -1.011  23.882  0.00  0.00    +0.078 C 
ATOM     17  N   UNL     1       0.143  -0.207  23.732  0.00  0.00    -0.272 NA
ATOM     18  C   UNL     1      -0.598   0.311  24.263  0.00  0.00    +0.072 C 
ATOM     19  C   UNL     1      -0.884   0.871  24.439  0.00  0.00    +0.018 C 
ATOM     20  C   UNL     1      -0.282   0.359  24.015  0.00  0.00    +0.010 C 
ATOM     21  C   UNL     1       0.309   0.784  23.524  0.00  0.00    +0.018 C 
ATOM     22  C   UNL     1       0.754   0.241  23.224  0.00  0.00    +0.079 C 
ENDROOT
BRANCH  15   4
ATOM      1  C   UNL     1      -1.466  -0.709  26.803  0.00  0.00    +0.074 C 
ATOM      2  C   UNL     1      -1.557  -0.769  25.985  0.00  0.00    +0.139 A 
ATOM      3  N   UNL     1      -0.932  -0.569  25.485  0.00  0.00    -0.235 NA
ATOM      4  C   UNL     1      -1.022  -0.629  24.667  0.00  0.00    +0.063 A 
ATOM      5  C   UNL     1      -1.737  -0.889  24.349  0.00  0.00    +0.034 A 
ATOM      6  C   UNL     1      -2.362  -1.089  24.848  0.00  0.00    +0.084 A 
ATOM      7  N   UNL     1      -2.272  -1.030  25.666  0.00  0.00    -0.231 NA
BRANCH   6   8
ATOM      8  C   UNL     1      -3.077  -1.350  24.530  0.00  0.00    +0.024 A 
ATOM      9  C   UNL     1      -3.219  -2.158  24.440  0.00  0.00    +0.036 A 
ATOM     10 BR   UNL     1      -2.645  -2.704  24.668  0.00  0.00    -0.049 Br
ATOM     11  C   UNL     1      -3.934  -2.419  24.123  0.00  0.00    +0.007 A 
ATOM     12  C   UNL     1      -4.508  -1.871  23.895  0.00  0.00    +0.001 A 
ATOM     13  C   UNL     1      -4.367  -1.064  23.985  0.00  0.00    +0.000 A 
ATOM     14  C   UNL     1      -3.651  -0.803  24.303  0.00  0.00    +0.002 A 
ENDBRANCH   6   8
ENDBRANCH  15   4
BRANCH  22  23
ATOM     23  C   UNL     1       1.404   0.128  22.730  0.00  0.00    +0.131 C 
BRANCH  23  24
ATOM     24  N   UNL     1       2.169   0.180  23.036  0.00  0.00    -0.200 NA
ATOM     25  C   UNL     1       2.819   0.133  22.530  0.00  0.00    +0.265 C 
ATOM     26  O   UNL     1       2.705   0.033  21.719  0.00  0.00    -0.268 OA
BRANCH  25  27
ATOM     27  C   UNL     1       3.583   0.186  22.835  0.00  0.00    +0.055 A 
ATOM     28  C   UNL     1       3.920  -0.462  23.220  0.00  0.00    +0.005 A 
ATOM     29  C   UNL     1       4.684  -0.410  23.525  0.00  0.00    +0.000 A 
ATOM     30  C   UNL     1       5.113   0.291  23.446  0.00  0.00    +0.000 A 
ATOM     31  C   UNL     1       4.776   0.939  23.062  0.00  0.00    +0.000 A 
ATOM     32  C   UNL     1       4.012   0.887  22.757  0.00  0.00    +0.005 A 
ENDBRANCH  25  27
ENDBRANCH  23  24
ENDBRANCH  22  23
TORSDOF 5
ENDMDL
MODEL 2
REMARK VINA RESULT:     -11.1      2.079      2.974
REMARK  Name = 
REMARK  5 active torsions:
REMARK  status: ('A' for Active; 'I' for Inactive)
REMARK    1  A    between atoms: C_4  and  C_15
REMARK    2  A    between atoms: C_6  and  C_8
REMARK    3  A    between atoms: C_22  and  C_23
REMARK    4  A    between atoms: C_23  and  N_24
REMARK    5  A    between atoms: C_25  and  C_27
REMARK                            x       y       z     vdW  Elec       q    Type
REMARK                         _______ _______ _______ _____ _____    ______ ____
ROOT
ATOM     15  C   UNL     1      -1.105   0.723  23.932  0.00  0.00    +0.056 C 
ATOM     16  C   UNL     1      -0.964   0.939  23.198  0.00  0.00    +0.078 C 
ATOM     17  N   UNL     1      -0.470   0.479  23.674  0.00  0.00    -0.272 NA
ATOM     18  C   UNL     1      -0.948   0.370  24.601  0.00  0.00    +0.072 C 
ATOM     19  C   UNL     1      -0.960   0.133  25.209  0.00  0.00    +0.018 C 
ATOM     20  C   UNL     1      -0.616   0.271  24.393  0.00  0.00    +0.010 C 
ATOM     21  C   UNL     1       0.167  -0.094  24.238  0.00  0.00    +0.018 C 
ATOM     22  C   UNL     1       0.344   0.097  23.520  0.00  0.00    +0.079 C 
ENDROOT
BRANCH  15   4
ATOM      1  C   UNL     1      -3.761   0.155  24.824  0.00  0.00    +0.074 C 
ATOM      2  C   UNL     1      -3.142   0.691  24.716  0.00  0.00    +0.139 A 
ATOM      3  N   UNL     1      -2.433   0.439  24.378  0.00  0.00    -0.235 NA
ATOM      4  C   UNL     1      -1.815   0.975  24.270  0.00  0.00    +0.063 A 
ATOM      5  C   UNL     1      -1.905   1.761  24.500  0.00  0.00    +0.034 A 
ATOM      6  C   UNL     1      -2.614   2.013  24.838  0.00  0.00    +0.084 A 
ATOM      7  N   UNL     1      -3.233   1.478  24.946  0.00  0.00    -0.231 NA
BRANCH   6   8
ATOM      8  C   UNL     1      -2.706   2.800  25.068  0.00  0.00    +0.024 A 
ATOM      9  C   UNL     1      -3.186   3.305  24.626  0.00  0.00    +0.036 A 
ATOM     10 BR   UNL     1      -3.574   3.023  23.955  0.00  0.00    -0.049 Br
ATOM     11  C   UNL     1      -3.278   4.093  24.856  0.00  0.00    +0.007 A 
ATOM     12  C   UNL     1      -2.890   4.374  25.527  0.00  0.00    +0.001 A 
ATOM     13  C   UNL     1      -2.410   3.869  25.968  0.00  0.00    +0.000 A 
ATOM     14  C   UNL     1      -2.318   3.082  25.739  0.00  0.00    +0.002 A 
ENDBRANCH   6   8
ENDBRANCH  15   4
BRANCH  22  23
ATOM     23  C   UNL     1       0.927   0.009  22.944  0.00  0.00    +0.131 C 
BRANCH  23  24
ATOM     24  N   UNL     1       1.718   0.145  23.133  0.00  0.00    -0.200 NA
ATOM     25  C   UNL     1       2.300   0.070  22.553  0.00  0.00    +0.265 C 
ATOM     26  O   UNL     1       2.090  -0.142  21.784  0.00  0.00    -0.268 OA
BRANCH  25  27
ATOM     27  C   UNL     1       3.091   0.207  22.742  0.00  0.00    +0.055 A 
ATOM     28  C   UNL     1       3.551  -0.402  23.056  0.00  0.00    +0.005 A 
ATOM     29  C   UNL     1       4.343  -0.265  23.245  0.00  0.00    +0.000 A 
ATOM     30  C   UNL     1       4.674   0.480  23.121  0.00  0.00    +0.000 A 
ATOM     31  C   UNL     1       4.213   1.089  22.807  0.00  0.00    +0.000 A 
ATOM     32  C   UNL     1       3.423   0.952  22.618  0.00  0.00    +0.005 A 
ENDBRANCH  25  27
ENDBRANCH  23  24
ENDBRANCH  22  23
TORSDOF 5
ENDMDL
MODEL 3
REMARK VINA RESULT:     -10.9      2.543      3.971
REMARK  Name = 
REMARK  5 active torsions:
REMARK  status: ('A' for Active; 'I' for Inactive)
REMARK    1  A    between atoms: C_4  and  C_15
REMARK    2  A    between atoms: C_6  and  C_8
REMARK    3  A    between atoms: C_22  and  C_23
REMARK    4  A    between atoms: C_23  and  N_24
REMARK    5  A    between atoms: C_25  and  C_27
REMARK                            x       y       z     vdW  Elec       q    Type
REMARK                         _______ _______ _______ _____ _____    ______ ____
ROOT
ATOM     15  C   UNL     1      -0.734   0.076  24.906  0.00  0.00    +0.056 C 
ATOM     16  C   UNL     1      -0.877   0.503  25.541  0.00  0.00    +0.078 C 
ATOM     17  N   UNL     1      -0.466   0.751  24.869  0.00  0.00    -0.272 NA
ATOM     18  C   UNL     1      -0.448  -0.057  24.201  0.00  0.00    +0.072 C 
ATOM     19  C   UNL     1      -0.272  -0.316  23.628  0.00  0.00    +0.018 C 
ATOM     20  C   UNL     1      -0.329   0.327  24.251  0.00  0.00    +0.010 C 
ATOM     21  C   UNL     1       0.050   1.093  24.051  0.00  0.00    +0.018 C 
ATOM     22  C   UNL     1      -0.069   1.545  24.655  0.00  0.00    +0.079 C 
ENDROOT
BRANCH  15   4
ATOM      1  C   UNL     1      -0.294  -2.725  25.268  0.00  0.00    +0.074 C 
ATOM      2  C   UNL     1      -0.798  -2.099  25.081  0.00  0.00    +0.139 A 
ATOM      3  N   UNL     1      -0.514  -1.325  25.087  0.00  0.00    -0.235 NA
ATOM      4  C   UNL     1      -1.018  -0.699  24.900  0.00  0.00    +0.063 A 
ATOM      5  C   UNL     1      -1.806  -0.847  24.707  0.00  0.00    +0.034 A 
ATOM      6  C   UNL     1      -2.090  -1.621  24.701  0.00  0.00    +0.084 A 
ATOM      7  N   UNL     1      -1.587  -2.247  24.888  0.00  0.00    -0.231 NA
BRANCH   6   8
ATOM      8  C   UNL     1      -2.878  -1.770  24.508  0.00  0.00    +0.024 A 
ATOM      9  C   UNL     1      -3.456  -1.763  25.098  0.00  0.00    +0.036 A 
ATOM     10 BR   UNL     1      -3.244  -1.606  25.880  0.00  0.00    -0.049 Br
ATOM     11  C   UNL     1      -4.244  -1.912  24.906  0.00  0.00    +0.007 A 
ATOM     12  C   UNL     1      -4.455  -2.069  24.123  0.00  0.00    +0.001 A 
ATOM     13  C   UNL     1      -3.878  -2.077  23.535  0.00  0.00    +0.000 A 
ATOM     14  C   UNL     1      -3.090  -1.927  23.727  0.00  0.00    +0.002 A 
ENDBRANCH   6   8
ENDBRANCH  15   4
BRANCH  22  23
ATOM     23  C   UNL     1       0.076   2.303  24.942  0.00  0.00    +0.131 C 
BRANCH  23  24
ATOM     24  N   UNL     1      -0.516   2.878  24.909  0.00  0.00    -0.200 NA
ATOM     25  C   UNL     1      -0.428   3.584  25.326  0.00  0.00    +0.265 C 
ATOM     26  O   UNL     1       0.250   3.716  25.776  0.00  0.00    -0.268 OA
BRANCH  25  27
ATOM     27  C   UNL     1      -1.019   4.158  25.292  0.00  0.00    +0.055 A 
ATOM     28  C   UNL     1      -1.770   3.997  25.595  0.00  0.00    +0.005 A 
ATOM     29  C   UNL     1      -2.361   4.572  25.561  0.00  0.00    +0.000 A 
ATOM     30  C   UNL     1      -2.202   5.307  25.224  0.00  0.00    +0.000 A 
ATOM     31  C   UNL     1      -1.451   5.469  24.920  0.00  0.00    +0.000 A 
ATOM     32  C   UNL     1      -0.861   4.895  24.954  0.00  0.00    +0.005 A 
ENDBRANCH  25  27
ENDBRANCH  23  24
ENDBRANCH  22  23
TORSDOF 5
ENDMDL
MODEL 4
REMARK VINA RESULT:     -10.7      2.189      2.758
REMARK  Name = 
REMARK  5 active torsions:
REMARK  status: ('A' for Active; 'I' for Inactive)
REMARK    1  A    between atoms: C_4  and  C_15
REMARK    2  A    between atoms: C_6  and  C_8
REMARK    3  A    between atoms: C_22  and  C_23
REMARK    4  A    between atoms: C_23  and  N_24
REMARK    5  A    between atoms: C_25  and  C_27
REMARK                            x       y       z     vdW  Elec       q    Type
REMARK                         _______ _______ _______ _____ _____    ______ ____
ROOT
ATOM     15  C   UNL     1      -1.030   1.538  24.276  0.00  0.00    +0.056 C 
ATOM     16  C   UNL     1      -0.842   1.732  23.547  0.00  0.00    +0.078 C 
ATOM     17  N   UNL     1      -0.509   1.119  23.989  0.00  0.00    -0.272 NA
ATOM     18  C   UNL     1      -0.979   1.124  24.926  0.00  0.00    +0.072 C 
ATOM     19  C   UNL     1      -1.053   0.876  25.526  0.00  0.00    +0.018 C 
ATOM     20  C   UNL     1      -0.699   0.936  24.705  0.00  0.00    +0.010 C 
ATOM     21  C   UNL     1      -0.074   0.350  24.511  0.00  0.00    +0.018 C 
ATOM     22  C   UNL     1       0.140   0.508  23.795  0.00  0.00    +0.079 C 
ENDROOT
BRANCH  15   4
ATOM      1  C   UNL     1      -1.791   3.746  25.925  0.00  0.00    +0.074 C 
ATOM      2  C   UNL     1      -1.997   3.089  25.471  0.00  0.00    +0.139 A 
ATOM      3  N   UNL     1      -1.411   2.642  25.101  0.00  0.00    -0.235 NA
ATOM      4  C   UNL     1      -1.617   1.985  24.647  0.00  0.00    +0.063 A 
ATOM      5  C   UNL     1      -2.410   1.775  24.562  0.00  0.00    +0.034 A 
ATOM      6  C   UNL     1      -2.996   2.221  24.932  0.00  0.00    +0.084 A 
ATOM      7  N   UNL     1      -2.791   2.878  25.386  0.00  0.00    -0.231 NA
BRANCH   6   8
ATOM      8  C   UNL     1      -3.790   2.011  24.848  0.00  0.00    +0.024 A 
ATOM      9  C   UNL     1      -4.283   2.452  24.353  0.00  0.00    +0.036 A 
ATOM     10 BR   UNL     1      -3.982   3.101  23.944  0.00  0.00    -0.049 Br
ATOM     11  C   UNL     1      -5.076   2.242  24.269  0.00  0.00    +0.007 A 
ATOM     12  C   UNL     1      -5.377   1.592  24.679  0.00  0.00    +0.001 A 
ATOM     13  C   UNL     1      -4.885   1.153  25.173  0.00  0.00    +0.000 A 
ATOM     14  C   UNL     1      -4.091   1.362  25.257  0.00  0.00    +0.002 A 
ENDBRANCH   6   8
ENDBRANCH  15   4
BRANCH  22  23
ATOM     23  C   UNL     1       0.654   0.267  23.198  0.00  0.00    +0.131 C 
BRANCH  23  24
ATOM     24  N   UNL     1       1.468   0.366  23.289  0.00  0.00    -0.200 NA
ATOM     25  C   UNL     1       1.982   0.120  22.692  0.00  0.00    +0.265 C 
ATOM     26  O   UNL     1       1.683  -0.225  22.005  0.00  0.00    -0.268 OA
BRANCH  25  27
ATOM     27  C   UNL     1       2.796   0.219  22.784  0.00  0.00    +0.055 A 
ATOM     28  C   UNL     1       3.140   0.957  22.648  0.00  0.00    +0.005 A 
ATOM     29  C   UNL     1       3.954   1.056  22.739  0.00  0.00    +0.000 A 
ATOM     30  C   UNL     1       4.424   0.417  22.966  0.00  0.00    +0.000 A 
ATOM     31  C   UNL     1       4.080  -0.321  23.101  0.00  0.00    +0.000 A 
ATOM     32  C   UNL     1       3.267  -0.420  23.010  0.00  0.00    +0.005 A 
ENDBRANCH  25  27
ENDBRANCH  23  24
ENDBRANCH  22  23
TORSDOF 5
ENDMDL
MODEL 5
REMARK VINA RESULT:     -10.7      3.269      5.299
REMARK  Name = 
REMARK  5 active torsions:
REMARK  status: ('A' for Active; 'I' for Inactive)
REMARK    1  A    between atoms: C_4  and  C_15
REMARK    2  A    between atoms: C_6  and  C_8
REMARK    3  A    between atoms: C_22  and  C_23
REMARK    4  A    between atoms: C_23  and  N_24
REMARK    5  A    between atoms: C_25  and  C_27
REMARK                            x       y       z     vdW  Elec       q    Type
REMARK                         _______ _______ _______ _____ _____    ______ ____
ROOT
ATOM     15  C   UNL     1      -1.406   1.755  24.992  0.00  0.00    +0.056 C 
ATOM     16  C   UNL     1      -1.696   1.304  24.429  0.00  0.00    +0.078 C 
ATOM     17  N   UNL     1      -1.180   1.066  25.027  0.00  0.00    -0.272 NA
ATOM     18  C   UNL     1      -0.981   1.908  25.619  0.00  0.00    +0.072 C 
ATOM     19  C   UNL     1      -0.681   2.187  26.127  0.00  0.00    +0.018 C 
ATOM     20  C   UNL     1      -0.899   1.514  25.576  0.00  0.00    +0.010 C 
ATOM     21  C   UNL     1      -0.538   0.735  25.756  0.00  0.00    +0.018 C 
ATOM     22  C   UNL     1      -0.801   0.258  25.221  0.00  0.00    +0.079 C 
ENDROOT
BRANCH  15   4
ATOM      1  C   UNL     1      -0.746   4.521  24.694  0.00  0.00    +0.074 C 
ATOM      2  C   UNL     1      -1.304   3.932  24.846  0.00  0.00    +0.139 A 
ATOM      3  N   UNL     1      -1.076   3.139  24.843  0.00  0.00    -0.235 NA
ATOM      4  C   UNL     1      -1.634   2.550  24.995  0.00  0.00    +0.063 A 
ATOM      5  C   UNL     1      -2.417   2.753  25.149  0.00  0.00    +0.034 A 
ATOM      6  C   UNL     1      -2.645   3.545  25.152  0.00  0.00    +0.084 A 
ATOM      7  N   UNL     1      -2.088   4.135  25.001  0.00  0.00    -0.231 NA
BRANCH   6   8
ATOM      8  C   UNL     1      -3.429   3.750  25.307  0.00  0.00    +0.024 A 
ATOM      9  C   UNL     1      -3.974   3.790  24.688  0.00  0.00    +0.036 A 
ATOM     10 BR   UNL     1      -3.734   3.626  23.916  0.00  0.00    -0.049 Br
ATOM     11  C   UNL     1      -4.759   3.994  24.842  0.00  0.00    +0.007 A 
ATOM     12  C   UNL     1      -4.998   4.159  25.615  0.00  0.00    +0.001 A 
ATOM     13  C   UNL     1      -4.453   4.118  26.232  0.00  0.00    +0.000 A 
ATOM     14  C   UNL     1      -3.669   3.914  26.079  0.00  0.00    +0.002 A 
ENDBRANCH   6   8
ENDBRANCH  15   4
BRANCH  22  23
ATOM     23  C   UNL     1      -0.764  -0.525  24.968  0.00  0.00    +0.131 C 
BRANCH  23  24
ATOM     24  N   UNL     1      -1.458  -0.953  24.844  0.00  0.00    -0.200 NA
ATOM     25  C   UNL     1      -1.443  -1.777  24.860  0.00  0.00    +0.265 C 
ATOM     26  O   UNL     1      -0.734  -2.175  24.999  0.00  0.00    -0.268 OA
BRANCH  25  27
ATOM     27  C   UNL     1      -2.138  -2.205  24.736  0.00  0.00    +0.055 A 
ATOM     28  C   UNL     1      -2.179  -2.757  24.124  0.00  0.00    +0.005 A 
ATOM     29  C   UNL     1      -2.874  -3.185  24.000  0.00  0.00    +0.000 A 
ATOM     30  C   UNL     1      -3.527  -3.060  24.488  0.00  0.00    +0.000 A 
ATOM     31  C   UNL     1      -3.486  -2.507  25.100  0.00  0.00    +0.000 A 
ATOM     32  C   UNL     1      -2.792  -2.080  25.223  0.00  0.00    +0.005 A 
ENDBRANCH  25  27
ENDBRANCH  23  24
ENDBRANCH  22  23
TORSDOF 5
ENDMDL
MODEL 6
REMARK VINA RESULT:      -9.8      4.373      6.317
REMARK  Name = 
REMARK  5 active torsions:
REMARK  status: ('A' for Active; 'I' for Inactive)
REMARK    1  A    between atoms: C_4  and  C_15
REMARK    2  A    between atoms: C_6  and  C_8
REMARK    3  A    between atoms: C_22  and  C_23
REMARK    4  A    between atoms: C_23  and  N_24
REMARK    5  A    between atoms: C_25  and  C_27
REMARK                            x       y       z     vdW  Elec       q    Type
REMARK                         _______ _______ _______ _____ _____    ______ ____
ROOT
ATOM     15  C   UNL     1      -4.468   1.856  24.743  0.00  0.00    +0.056 C 
ATOM     16  C   UNL     1      -4.059   1.568  24.147  0.00  0.00    +0.078 C 
ATOM     17  N   UNL     1      -4.571   1.144  24.637  0.00  0.00    -0.272 NA
ATOM     18  C   UNL     1      -4.961   1.821  25.337  0.00  0.00    +0.072 C 
ATOM     19  C   UNL     1      -5.344   1.949  25.850  0.00  0.00    +0.018 C 
ATOM     20  C   UNL     1      -4.968   1.434  25.220  0.00  0.00    +0.010 C 
ATOM     21  C   UNL     1      -5.199   0.587  25.226  0.00  0.00    +0.018 C 
ATOM     22  C   UNL     1      -4.815   0.265  24.650  0.00  0.00    +0.079 C 
ENDROOT
BRANCH  15   4
ATOM      1  C   UNL     1      -5.640   4.394  25.344  0.00  0.00    +0.074 C 
ATOM      2  C   UNL     1      -4.971   3.930  25.205  0.00  0.00    +0.139 A 
ATOM      3  N   UNL     1      -5.054   3.126  25.044  0.00  0.00    -0.235 NA
ATOM      4  C   UNL     1      -4.385   2.662  24.904  0.00  0.00    +0.063 A 
ATOM      5  C   UNL     1      -3.635   3.003  24.925  0.00  0.00    +0.034 A 
ATOM      6  C   UNL     1      -3.553   3.808  25.086  0.00  0.00    +0.084 A 
ATOM      7  N   UNL     1      -4.220   4.271  25.226  0.00  0.00    -0.231 NA
BRANCH   6   8
ATOM      8  C   UNL     1      -2.802   4.150  25.108  0.00  0.00    +0.024 A 
ATOM      9  C   UNL     1      -2.426   4.274  25.832  0.00  0.00    +0.036 A 
ATOM     10 BR   UNL     1      -2.801   4.056  26.533  0.00  0.00    -0.049 Br
ATOM     11  C   UNL     1      -1.676   4.616  25.854  0.00  0.00    +0.007 A 
ATOM     12  C   UNL     1      -1.301   4.834  25.152  0.00  0.00    +0.001 A 
ATOM     13  C   UNL     1      -1.677   4.709  24.428  0.00  0.00    +0.000 A 
ATOM     14  C   UNL     1      -2.427   4.367  24.406  0.00  0.00    +0.002 A 
ENDBRANCH   6   8
ENDBRANCH  15   4
BRANCH  22  23
ATOM     23  C   UNL     1      -4.693  -0.454  24.265  0.00  0.00    +0.131 C 
BRANCH  23  24
ATOM     24  N   UNL     1      -4.044  -0.924  24.463  0.00  0.00    -0.200 NA
ATOM     25  C   UNL     1      -3.944  -1.659  24.105  0.00  0.00    +0.265 C 
ATOM     26  O   UNL     1      -4.491  -1.926  23.548  0.00  0.00    -0.268 OA
BRANCH  25  27
ATOM     27  C   UNL     1      -3.295  -2.129  24.303  0.00  0.00    +0.055 A 
ATOM     28  C   UNL     1      -2.531  -1.822  24.247  0.00  0.00    +0.005 A 
ATOM     29  C   UNL     1      -1.882  -2.292  24.445  0.00  0.00    +0.000 A 
ATOM     30  C   UNL     1      -1.997  -3.068  24.699  0.00  0.00    +0.000 A 
ATOM     31  C   UNL     1      -2.761  -3.375  24.754  0.00  0.00    +0.000 A 
ATOM     32  C   UNL     1      -3.409  -2.906  24.556  0.00  0.00    +0.005 A 
ENDBRANCH  25  27
ENDBRANCH  23  24
ENDBRANCH  22  23
TORSDOF 5
ENDMDL
