MODEL 1
REMARK VINA RESULT:     -10.3      0.000      0.000
REMARK  Name = 
REMARK  4 active torsions:
REMARK  status: ('A' for Active; 'I' for Inactive)
REMARK    1  A    between atoms: C_2  and  C_3
REMARK    2  A    between atoms: C_3  and  N_4
REMARK    3  A    between atoms: N_7  and  C_8
REMARK    4  A    between atoms: C_20  and  C_25
REMARK                            x       y       z     vdW  Elec       q    Type
REMARK                         _______ _______ _______ _____ _____    ______ ____
ROOT
ATOM      8  C   UNL     1       0.072   0.063  23.452  0.00  0.00    +0.101 C 
ATOM      9  C   UNL     1      -0.212   0.809  23.245  0.00  0.00    +0.043 C 
ATOM     10  C   UNL     1      -0.963   1.046  23.492  0.00  0.00    +0.096 C 
ATOM     11  N   UNL     1      -1.428   0.538  23.945  0.00  0.00    -0.269 N 
ATOM     12  C   UNL     1      -1.143  -0.208  24.151  0.00  0.00    +0.156 C 
ATOM     13  C   UNL     1      -0.393  -0.445  23.905  0.00  0.00    +0.051 C 
ATOM     14  C   UNL     1      -1.514  -0.795  24.596  0.00  0.00    +0.264 C 
ATOM     15  O   UNL     1      -1.080  -1.488  24.708  0.00  0.00    -0.271 OA
ATOM     16  N   UNL     1      -2.262  -0.782  24.944  0.00  0.00    -0.178 NA
ATOM     17  C   UNL     1      -2.824  -0.177  24.933  0.00  0.00    +0.078 A 
ATOM     18  C   UNL     1      -3.503  -0.390  25.351  0.00  0.00    +0.017 A 
ATOM     19  C   UNL     1      -4.134   0.139  25.408  0.00  0.00    +0.001 A 
ATOM     20  C   UNL     1      -4.086   0.878  25.046  0.00  0.00    +0.001 A 
ATOM     21  C   UNL     1      -3.407   1.091  24.628  0.00  0.00    +0.006 A 
ATOM     22  C   UNL     1      -2.777   0.562  24.571  0.00  0.00    +0.069 A 
ATOM     23  C   UNL     1      -2.155   0.881  24.131  0.00  0.00    +0.251 C 
ATOM     24  O   UNL     1      -2.277   1.643  23.840  0.00  0.00    -0.270 OA
ENDROOT
BRANCH  20  25
ATOM     25  C   UNL     1      -4.717   1.407  25.103  0.00  0.00    +0.007 A 
ATOM     26  C   UNL     1      -4.706   2.136  25.490  0.00  0.00    +0.035 A 
ATOM     27  S   UNL     1      -5.451   2.479  25.409  0.00  0.00    -0.086 S 
ATOM     28  C   UNL     1      -5.923   1.964  24.971  0.00  0.00    +0.035 A 
ATOM     29  C   UNL     1      -5.469   1.301  24.782  0.00  0.00    +0.007 A 
ENDBRANCH  20  25
BRANCH   8   7
ATOM      4  N   UNL     1       2.203   0.122  22.977  0.00  0.00    -0.182 NA
ATOM      5  C   UNL     1       1.451   0.360  23.224  0.00  0.00    +0.340 C 
ATOM      6  O   UNL     1       1.329   1.132  23.489  0.00  0.00    -0.249 OA
ATOM      7  N   UNL     1       0.824  -0.175  23.205  0.00  0.00    -0.189 NA
BRANCH   4   3
ATOM      3  C   UNL     1       2.831   0.657  22.996  0.00  0.00    +0.143 C 
BRANCH   3   2
ATOM      1  C   UNL     1       4.250   0.789  22.903  0.00  0.00    -0.003 C 
ATOM      2  C   UNL     1       3.543   0.469  22.624  0.00  0.00    -0.003 C 
ENDBRANCH   3   2
ENDBRANCH   4   3
ENDBRANCH   8   7
TORSDOF 4
ENDMDL
MODEL 2
REMARK VINA RESULT:     -10.1      1.554      2.321
REMARK  Name = 
REMARK  4 active torsions:
REMARK  status: ('A' for Active; 'I' for Inactive)
REMARK    1  A    between atoms: C_2  and  C_3
REMARK    2  A    between atoms: C_3  and  N_4
REMARK    3  A    between atoms: N_7  and  C_8
REMARK    4  A    between atoms: C_20  and  C_25
REMARK                            x       y       z     vdW  Elec       q    Type
REMARK                         _______ _______ _______ _____ _____    ______ ____
ROOT
ATOM      8  C   UNL     1       0.174   1.678  24.434  0.00  0.00    +0.101 C 
ATOM      9  C   UNL     1      -0.305   1.018  24.558  0.00  0.00    +0.043 C 
ATOM     10  C   UNL     1      -1.116   1.115  24.679  0.00  0.00    +0.096 C 
ATOM     11  N   UNL     1      -1.446   1.871  24.676  0.00  0.00    -0.269 N 
ATOM     12  C   UNL     1      -0.966   2.530  24.552  0.00  0.00    +0.156 C 
ATOM     13  C   UNL     1      -0.157   2.434  24.431  0.00  0.00    +0.051 C 
ATOM     14  C   UNL     1      -1.182   3.326  24.528  0.00  0.00    +0.264 C 
ATOM     15  O   UNL     1      -0.568   3.859  24.392  0.00  0.00    -0.271 OA
ATOM     16  N   UNL     1      -1.931   3.660  24.623  0.00  0.00    -0.178 NA
ATOM     17  C   UNL     1      -2.649   3.278  24.764  0.00  0.00    +0.078 A 
ATOM     18  C   UNL     1      -3.270   3.819  24.823  0.00  0.00    +0.017 A 
ATOM     19  C   UNL     1      -4.038   3.551  24.964  0.00  0.00    +0.001 A 
ATOM     20  C   UNL     1      -4.184   2.744  25.046  0.00  0.00    +0.001 A 
ATOM     21  C   UNL     1      -3.563   2.203  24.987  0.00  0.00    +0.006 A 
ATOM     22  C   UNL     1      -2.796   2.471  24.846  0.00  0.00    +0.069 A 
ATOM     23  C   UNL     1      -2.260   1.844  24.807  0.00  0.00    +0.251 C 
ATOM     24  O   UNL     1      -2.582   1.092  24.913  0.00  0.00    -0.270 OA
ENDROOT
BRANCH  20  25
ATOM     25  C   UNL     1      -4.952   2.476  25.187  0.00  0.00    +0.007 A 
ATOM     26  C   UNL     1      -5.400   2.622  25.864  0.00  0.00    +0.035 A 
ATOM     27  S   UNL     1      -6.130   2.251  25.771  0.00  0.00    -0.086 S 
ATOM     28  C   UNL     1      -6.135   1.876  25.037  0.00  0.00    +0.035 A 
ATOM     29  C   UNL     1      -5.406   2.015  24.676  0.00  0.00    +0.007 A 
ENDBRANCH  20  25
BRANCH   8   7
ATOM      4  N   UNL     1       2.066   1.045  23.548  0.00  0.00    -0.182 NA
ATOM      5  C   UNL     1       1.255   1.142  23.669  0.00  0.00    +0.340 C 
ATOM      6  O   UNL     1       0.716   0.800  23.147  0.00  0.00    -0.249 OA
ATOM      7  N   UNL     1       0.985   1.581  24.313  0.00  0.00    -0.189 NA
BRANCH   4   3
ATOM      3  C   UNL     1       2.337   0.606  22.904  0.00  0.00    +0.143 C 
BRANCH   3   2
ATOM      1  C   UNL     1       3.679   0.709  22.423  0.00  0.00    -0.003 C 
ATOM      2  C   UNL     1       3.115   0.330  22.892  0.00  0.00    -0.003 C 
ENDBRANCH   3   2
ENDBRANCH   4   3
ENDBRANCH   8   7
TORSDOF 4
ENDMDL
MODEL 3
REMARK VINA RESULT:      -8.3      3.261      4.919
REMARK  Name = 
REMARK  4 active torsions:
REMARK  status: ('A' for Active; 'I' for Inactive)
REMARK    1  A    between atoms: C_2  and  C_3
REMARK    2  A    between atoms: C_3  and  N_4
REMARK    3  A    between atoms: N_7  and  C_8
REMARK    4  A    between atoms: C_20  and  C_25
REMARK                            x       y       z     vdW  Elec       q    Type
REMARK                         _______ _______ _______ _____ _____    ______ ____
ROOT
ATOM      8  C   UNL     1      -3.949   0.173  24.054  0.00  0.00    +0.101 C 
ATOM      9  C   UNL     1      -3.240   0.352  23.672  0.00  0.00    +0.043 C 
ATOM     10  C   UNL     1      -2.867   1.074  23.814  0.00  0.00    +0.096 C 
ATOM     11  N   UNL     1      -3.202   1.616  24.337  0.00  0.00    -0.269 N 
ATOM     12  C   UNL     1      -3.910   1.437  24.719  0.00  0.00    +0.156 C 
ATOM     13  C   UNL     1      -4.284   0.716  24.578  0.00  0.00    +0.051 C 
ATOM     14  C   UNL     1      -4.335   1.896  25.257  0.00  0.00    +0.264 C 
ATOM     15  O   UNL     1      -5.031   1.558  25.544  0.00  0.00    -0.271 OA
ATOM     16  N   UNL     1      -4.156   2.647  25.547  0.00  0.00    -0.178 NA
ATOM     17  C   UNL     1      -3.507   3.125  25.369  0.00  0.00    +0.078 A 
ATOM     18  C   UNL     1      -3.538   3.840  25.781  0.00  0.00    +0.017 A 
ATOM     19  C   UNL     1      -2.939   4.399  25.681  0.00  0.00    +0.001 A 
ATOM     20  C   UNL     1      -2.311   4.244  25.171  0.00  0.00    +0.001 A 
ATOM     21  C   UNL     1      -2.280   3.529  24.759  0.00  0.00    +0.006 A 
ATOM     22  C   UNL     1      -2.878   2.971  24.858  0.00  0.00    +0.069 A 
ATOM     23  C   UNL     1      -2.742   2.298  24.399  0.00  0.00    +0.251 C 
ATOM     24  O   UNL     1      -2.056   2.311  23.941  0.00  0.00    -0.270 OA
ENDROOT
BRANCH  20  25
ATOM     25  C   UNL     1      -1.712   4.803  25.071  0.00  0.00    +0.007 A 
ATOM     26  C   UNL     1      -0.905   4.643  25.011  0.00  0.00    +0.035 A 
ATOM     27  S   UNL     1      -0.509   5.361  24.917  0.00  0.00    -0.086 S 
ATOM     28  C   UNL     1      -1.071   5.964  24.918  0.00  0.00    +0.035 A 
ATOM     29  C   UNL     1      -1.815   5.619  25.013  0.00  0.00    +0.007 A 
ENDBRANCH  20  25
BRANCH   8   7
ATOM      4  N   UNL     1      -4.338  -1.975  24.011  0.00  0.00    -0.182 NA
ATOM      5  C   UNL     1      -3.965  -1.252  24.153  0.00  0.00    +0.340 C 
ATOM      6  O   UNL     1      -3.233  -1.234  24.534  0.00  0.00    -0.249 OA
ATOM      7  N   UNL     1      -4.323  -0.549  23.912  0.00  0.00    -0.189 NA
BRANCH   4   3
ATOM      3  C   UNL     1      -3.980  -2.678  24.251  0.00  0.00    +0.143 C 
BRANCH   3   2
ATOM      1  C   UNL     1      -3.634  -4.010  23.866  0.00  0.00    -0.003 C 
ATOM      2  C   UNL     1      -4.177  -3.388  23.880  0.00  0.00    -0.003 C 
ENDBRANCH   3   2
ENDBRANCH   4   3
ENDBRANCH   8   7
TORSDOF 4
ENDMDL
MODEL 4
REMARK VINA RESULT:      -8.2      1.736      2.512
REMARK  Name = 
REMARK  4 active torsions:
REMARK  status: ('A' for Active; 'I' for Inactive)
REMARK    1  A    between atoms: C_2  and  C_3
REMARK    2  A    between atoms: C_3  and  N_4
REMARK    3  A    between atoms: N_7  and  C_8
REMARK    4  A    between atoms: C_20  and  C_25
REMARK                            x       y       z     vdW  Elec       q    Type
REMARK                         _______ _______ _______ _____ _____    ______ ____
ROOT
ATOM      8  C   UNL     1       1.780   0.667  23.144  0.00  0.00    +0.101 C 
ATOM      9  C   UNL     1       1.466  -0.051  22.888  0.00  0.00    +0.043 C 
ATOM     10  C   UNL     1       0.706  -0.274  23.120  0.00  0.00    +0.096 C 
ATOM     11  N   UNL     1       0.261   0.221  23.607  0.00  0.00    -0.269 N 
ATOM     12  C   UNL     1       0.575   0.939  23.862  0.00  0.00    +0.156 C 
ATOM     13  C   UNL     1       1.335   1.163  23.631  0.00  0.00    +0.051 C 
ATOM     14  C   UNL     1       0.228   1.510  24.346  0.00  0.00    +0.264 C 
ATOM     15  O   UNL     1       0.689   2.176  24.503  0.00  0.00    -0.271 OA
ATOM     16  N   UNL     1      -0.521   1.504  24.694  0.00  0.00    -0.178 NA
ATOM     17  C   UNL     1      -1.106   0.924  24.643  0.00  0.00    +0.078 A 
ATOM     18  C   UNL     1      -1.776   1.135  25.076  0.00  0.00    +0.017 A 
ATOM     19  C   UNL     1      -2.428   0.629  25.099  0.00  0.00    +0.001 A 
ATOM     20  C   UNL     1      -2.410  -0.086  24.689  0.00  0.00    +0.001 A 
ATOM     21  C   UNL     1      -1.739  -0.296  24.256  0.00  0.00    +0.006 A 
ATOM     22  C   UNL     1      -1.088   0.209  24.233  0.00  0.00    +0.069 A 
ATOM     23  C   UNL     1      -0.479  -0.104  23.772  0.00  0.00    +0.251 C 
ATOM     24  O   UNL     1      -0.631  -0.840  23.430  0.00  0.00    -0.270 OA
ENDROOT
BRANCH  20  25
ATOM     25  C   UNL     1      -3.061  -0.591  24.711  0.00  0.00    +0.007 A 
ATOM     26  C   UNL     1      -3.706  -0.574  24.196  0.00  0.00    +0.035 A 
ATOM     27  S   UNL     1      -4.226  -1.175  24.419  0.00  0.00    -0.086 S 
ATOM     28  C   UNL     1      -3.903  -1.563  25.070  0.00  0.00    +0.035 A 
ATOM     29  C   UNL     1      -3.183  -1.203  25.251  0.00  0.00    +0.007 A 
ENDBRANCH  20  25
BRANCH   8   7
ATOM      4  N   UNL     1       3.940   0.616  22.832  0.00  0.00    -0.182 NA
ATOM      5  C   UNL     1       3.180   0.392  23.064  0.00  0.00    +0.340 C 
ATOM      6  O   UNL     1       3.060  -0.329  23.447  0.00  0.00    -0.249 OA
ATOM      7  N   UNL     1       2.540   0.891  22.912  0.00  0.00    -0.189 NA
BRANCH   4   3
ATOM      3  C   UNL     1       4.580   0.117  22.984  0.00  0.00    +0.143 C 
BRANCH   3   2
ATOM      1  C   UNL     1       5.919  -0.060  23.448  0.00  0.00    -0.003 C 
ATOM      2  C   UNL     1       5.308   0.437  23.204  0.00  0.00    -0.003 C 
ENDBRANCH   3   2
ENDBRANCH   4   3
ENDBRANCH   8   7
TORSDOF 4
ENDMDL
MODEL 5
REMARK VINA RESULT:      -8.1      3.091      4.179
REMARK  Name = 
REMARK  4 active torsions:
REMARK  status: ('A' for Active; 'I' for Inactive)
REMARK    1  A    between atoms: C_2  and  C_3
REMARK    2  A    between atoms: C_3  and  N_4
REMARK    3  A    between atoms: N_7  and  C_8
REMARK    4  A    between atoms: C_20  and  C_25
REMARK                            x       y       z     vdW  Elec       q    Type
REMARK                         _______ _______ _______ _____ _____    ______ ____
ROOT
ATOM      8  C   UNL     1      -2.060   2.668  25.432  0.00  0.00    +0.101 C 
ATOM      9  C   UNL     1      -1.520   2.048  25.497  0.00  0.00    +0.043 C 
ATOM     10  C   UNL     1      -1.758   1.276  25.333  0.00  0.00    +0.096 C 
ATOM     11  N   UNL     1      -2.536   1.124  25.105  0.00  0.00    -0.269 N 
ATOM     12  C   UNL     1      -3.076   1.744  25.040  0.00  0.00    +0.156 C 
ATOM     13  C   UNL     1      -2.838   2.516  25.204  0.00  0.00    +0.051 C 
ATOM     14  C   UNL     1      -3.871   1.713  24.823  0.00  0.00    +0.264 C 
ATOM     15  O   UNL     1      -4.267   2.437  24.811  0.00  0.00    -0.271 OA
ATOM     16  N   UNL     1      -4.323   1.055  24.617  0.00  0.00    -0.178 NA
ATOM     17  C   UNL     1      -4.091   0.264  24.577  0.00  0.00    +0.078 A 
ATOM     18  C   UNL     1      -4.717  -0.222  24.346  0.00  0.00    +0.017 A 
ATOM     19  C   UNL     1      -4.601  -1.036  24.272  0.00  0.00    +0.001 A 
ATOM     20  C   UNL     1      -3.861  -1.363  24.429  0.00  0.00    +0.001 A 
ATOM     21  C   UNL     1      -3.235  -0.877  24.659  0.00  0.00    +0.006 A 
ATOM     22  C   UNL     1      -3.351  -0.064  24.733  0.00  0.00    +0.069 A 
ATOM     23  C   UNL     1      -2.658   0.320  24.968  0.00  0.00    +0.251 C 
ATOM     24  O   UNL     1      -2.001  -0.167  25.082  0.00  0.00    -0.270 OA
ENDROOT
BRANCH  20  25
ATOM     25  C   UNL     1      -3.745  -2.177  24.355  0.00  0.00    +0.007 A 
ATOM     26  C   UNL     1      -3.362  -2.663  24.900  0.00  0.00    +0.035 A 
ATOM     27  S   UNL     1      -3.371  -3.433  24.605  0.00  0.00    -0.086 S 
ATOM     28  C   UNL     1      -3.760  -3.424  23.878  0.00  0.00    +0.035 A 
ATOM     29  C   UNL     1      -3.991  -2.646  23.723  0.00  0.00    +0.007 A 
ENDBRANCH  20  25
BRANCH   8   7
ATOM      4  N   UNL     1      -1.131   4.632  25.210  0.00  0.00    -0.182 NA
ATOM      5  C   UNL     1      -1.369   3.858  25.046  0.00  0.00    +0.340 C 
ATOM      6  O   UNL     1      -1.156   3.503  24.333  0.00  0.00    -0.249 OA
ATOM      7  N   UNL     1      -1.821   3.442  25.596  0.00  0.00    -0.189 NA
BRANCH   4   3
ATOM      3  C   UNL     1      -0.679   5.048  24.660  0.00  0.00    +0.143 C 
BRANCH   3   2
ATOM      1  C   UNL     1      -1.359   6.298  24.787  0.00  0.00    -0.003 C 
ATOM      2  C   UNL     1      -0.660   5.874  24.682  0.00  0.00    -0.003 C 
ENDBRANCH   3   2
ENDBRANCH   4   3
ENDBRANCH   8   7
TORSDOF 4
ENDMDL
MODEL 6
REMARK VINA RESULT:      -8.0      2.746      4.730
REMARK  Name = 
REMARK  4 active torsions:
REMARK  status: ('A' for Active; 'I' for Inactive)
REMARK    1  A    between atoms: C_2  and  C_3
REMARK    2  A    between atoms: C_3  and  N_4
REMARK    3  A    between atoms: N_7  and  C_8
REMARK    4  A    between atoms: C_20  and  C_25
REMARK                            x       y       z     vdW  Elec       q    Type
REMARK                         _______ _______ _______ _____ _____    ______ ____
ROOT
ATOM      8  C   UNL     1      -3.050  -0.406  25.222  0.00  0.00    +0.101 C 
ATOM      9  C   UNL     1      -3.560   0.205  25.004  0.00  0.00    +0.043 C 
ATOM     10  C   UNL     1      -3.283   0.981  24.973  0.00  0.00    +0.096 C 
ATOM     11  N   UNL     1      -2.496   1.146  25.161  0.00  0.00    -0.269 N 
ATOM     12  C   UNL     1      -1.988   0.536  25.378  0.00  0.00    +0.156 C 
ATOM     13  C   UNL     1      -2.264  -0.240  25.409  0.00  0.00    +0.051 C 
ATOM     14  C   UNL     1      -1.190   0.580  25.585  0.00  0.00    +0.264 C 
ATOM     15  O   UNL     1      -0.830  -0.137  25.777  0.00  0.00    -0.271 OA
ATOM     16  N   UNL     1      -0.704   1.246  25.624  0.00  0.00    -0.178 NA
ATOM     17  C   UNL     1      -0.898   2.033  25.467  0.00  0.00    +0.078 A 
ATOM     18  C   UNL     1      -0.247   2.529  25.573  0.00  0.00    +0.017 A 
ATOM     19  C   UNL     1      -0.323   3.341  25.444  0.00  0.00    +0.001 A 
ATOM     20  C   UNL     1      -1.047   3.655  25.209  0.00  0.00    +0.001 A 
ATOM     21  C   UNL     1      -1.698   3.158  25.102  0.00  0.00    +0.006 A 
ATOM     22  C   UNL     1      -1.622   2.348  25.231  0.00  0.00    +0.069 A 
ATOM     23  C   UNL     1      -2.335   1.953  25.095  0.00  0.00    +0.251 C 
ATOM     24  O   UNL     1      -2.968   2.428  24.863  0.00  0.00    -0.270 OA
ENDROOT
BRANCH  20  25
ATOM     25  C   UNL     1      -1.123   4.467  25.079  0.00  0.00    +0.007 A 
ATOM     26  C   UNL     1      -0.604   4.939  24.645  0.00  0.00    +0.035 A 
ATOM     27  S   UNL     1      -0.891   5.712  24.658  0.00  0.00    -0.086 S 
ATOM     28  C   UNL     1      -1.587   5.718  25.100  0.00  0.00    +0.035 A 
ATOM     29  C   UNL     1      -1.730   4.948  25.361  0.00  0.00    +0.007 A 
ENDBRANCH  20  25
BRANCH   8   7
ATOM      4  N   UNL     1      -3.845  -2.339  24.592  0.00  0.00    -0.182 NA
ATOM      5  C   UNL     1      -3.568  -1.562  24.561  0.00  0.00    +0.340 C 
ATOM      6  O   UNL     1      -3.532  -1.165  23.839  0.00  0.00    -0.249 OA
ATOM      7  N   UNL     1      -3.328  -1.183  25.253  0.00  0.00    -0.189 NA
BRANCH   4   3
ATOM      3  C   UNL     1      -4.086  -2.718  23.900  0.00  0.00    +0.143 C 
BRANCH   3   2
ATOM      1  C   UNL     1      -4.490  -3.920  23.241  0.00  0.00    -0.003 C 
ATOM      2  C   UNL     1      -4.111  -3.543  23.869  0.00  0.00    -0.003 C 
ENDBRANCH   3   2
ENDBRANCH   4   3
ENDBRANCH   8   7
TORSDOF 4
ENDMDL
MODEL 7
REMARK VINA RESULT:      -7.9      2.259      5.685
REMARK  Name = 
REMARK  4 active torsions:
REMARK  status: ('A' for Active; 'I' for Inactive)
REMARK    1  A    between atoms: C_2  and  C_3
REMARK    2  A    between atoms: C_3  and  N_4
REMARK    3  A    between atoms: N_7  and  C_8
REMARK    4  A    between atoms: C_20  and  C_25
REMARK                            x       y       z     vdW  Elec       q    Type
REMARK                         _______ _______ _______ _____ _____    ______ ____
ROOT
ATOM      8  C   UNL     1      -3.516   1.706  24.282  0.00  0.00    +0.101 C 
ATOM      9  C   UNL     1      -3.076   2.148  23.742  0.00  0.00    +0.043 C 
ATOM     10  C   UNL     1      -2.320   1.899  23.526  0.00  0.00    +0.096 C 
ATOM     11  N   UNL     1      -2.005   1.208  23.849  0.00  0.00    -0.269 N 
ATOM     12  C   UNL     1      -2.445   0.767  24.389  0.00  0.00    +0.156 C 
ATOM     13  C   UNL     1      -3.201   1.016  24.605  0.00  0.00    +0.051 C 
ATOM     14  C   UNL     1      -2.237   0.068  24.773  0.00  0.00    +0.264 C 
ATOM     15  O   UNL     1      -2.804  -0.242  25.286  0.00  0.00    -0.271 OA
ATOM     16  N   UNL     1      -1.535  -0.363  24.713  0.00  0.00    -0.178 NA
ATOM     17  C   UNL     1      -0.870  -0.200  24.253  0.00  0.00    +0.078 A 
ATOM     18  C   UNL     1      -0.286  -0.775  24.355  0.00  0.00    +0.017 A 
ATOM     19  C   UNL     1       0.427  -0.715  23.943  0.00  0.00    +0.001 A 
ATOM     20  C   UNL     1       0.555  -0.083  23.430  0.00  0.00    +0.001 A 
ATOM     21  C   UNL     1      -0.029   0.492  23.328  0.00  0.00    +0.006 A 
ATOM     22  C   UNL     1      -0.741   0.432  23.740  0.00  0.00    +0.069 A 
ATOM     23  C   UNL     1      -1.247   1.060  23.560  0.00  0.00    +0.251 C 
ATOM     24  O   UNL     1      -0.955   1.611  23.020  0.00  0.00    -0.270 OA
ENDROOT
BRANCH  20  25
ATOM     25  C   UNL     1       1.268  -0.023  23.018  0.00  0.00    +0.007 A 
ATOM     26  C   UNL     1       1.957   0.338  23.292  0.00  0.00    +0.035 A 
ATOM     27  S   UNL     1       2.531   0.271  22.704  0.00  0.00    -0.086 S 
ATOM     28  C   UNL     1       2.197  -0.132  22.066  0.00  0.00    +0.035 A 
ATOM     29  C   UNL     1       1.416  -0.313  22.261  0.00  0.00    +0.007 A 
ENDBRANCH  20  25
BRANCH   8   7
ATOM      4  N   UNL     1      -5.127   2.913  25.128  0.00  0.00    -0.182 NA
ATOM      5  C   UNL     1      -4.371   2.664  24.911  0.00  0.00    +0.340 C 
ATOM      6  O   UNL     1      -3.713   3.122  25.107  0.00  0.00    -0.249 OA
ATOM      7  N   UNL     1      -4.273   1.956  24.499  0.00  0.00    -0.189 NA
BRANCH   4   3
ATOM      3  C   UNL     1      -5.225   3.621  25.541  0.00  0.00    +0.143 C 
BRANCH   3   2
ATOM      1  C   UNL     1      -6.101   4.742  25.675  0.00  0.00    -0.003 C 
ATOM      2  C   UNL     1      -5.983   3.925  25.662  0.00  0.00    -0.003 C 
ENDBRANCH   3   2
ENDBRANCH   4   3
ENDBRANCH   8   7
TORSDOF 4
ENDMDL
MODEL 8
REMARK VINA RESULT:      -6.3     18.425     19.542
REMARK  Name = 
REMARK  4 active torsions:
REMARK  status: ('A' for Active; 'I' for Inactive)
REMARK    1  A    between atoms: C_2  and  C_3
REMARK    2  A    between atoms: C_3  and  N_4
REMARK    3  A    between atoms: N_7  and  C_8
REMARK    4  A    between atoms: C_20  and  C_25
REMARK                            x       y       z     vdW  Elec       q    Type
REMARK                         _______ _______ _______ _____ _____    ______ ____
ROOT
ATOM      8  C   UNL     1      16.419  -2.759  31.808  0.00  0.00    +0.101 C 
ATOM      9  C   UNL     1      16.991  -3.028  31.278  0.00  0.00    +0.043 C 
ATOM     10  C   UNL     1      16.838  -3.687  30.807  0.00  0.00    +0.096 C 
ATOM     11  N   UNL     1      16.113  -4.077  30.865  0.00  0.00    -0.269 N 
ATOM     12  C   UNL     1      15.541  -3.808  31.394  0.00  0.00    +0.156 C 
ATOM     13  C   UNL     1      15.694  -3.149  31.866  0.00  0.00    +0.051 C 
ATOM     14  C   UNL     1      14.789  -4.114  31.538  0.00  0.00    +0.264 C 
ATOM     15  O   UNL     1      14.344  -3.717  32.108  0.00  0.00    -0.271 OA
ATOM     16  N   UNL     1      14.422  -4.764  31.187  0.00  0.00    -0.178 NA
ATOM     17  C   UNL     1      14.718  -5.270  30.606  0.00  0.00    +0.078 A 
ATOM     18  C   UNL     1      14.169  -5.854  30.407  0.00  0.00    +0.017 A 
ATOM     19  C   UNL     1      14.357  -6.418  29.834  0.00  0.00    +0.001 A 
ATOM     20  C   UNL     1      15.092  -6.397  29.461  0.00  0.00    +0.001 A 
ATOM     21  C   UNL     1      15.640  -5.813  29.660  0.00  0.00    +0.006 A 
ATOM     22  C   UNL     1      15.452  -5.250  30.232  0.00  0.00    +0.069 A 
ATOM     23  C   UNL     1      16.074  -4.718  30.347  0.00  0.00    +0.251 C 
ATOM     24  O   UNL     1      16.744  -4.846  29.883  0.00  0.00    -0.270 OA
ENDROOT
BRANCH  20  25
ATOM     25  C   UNL     1      15.280  -6.961  28.888  0.00  0.00    +0.007 A 
ATOM     26  C   UNL     1      15.556  -7.725  29.032  0.00  0.00    +0.035 A 
ATOM     27  S   UNL     1      15.672  -8.095  28.305  0.00  0.00    -0.086 S 
ATOM     28  C   UNL     1      15.466  -7.561  27.711  0.00  0.00    +0.035 A 
ATOM     29  C   UNL     1      15.224  -6.860  28.072  0.00  0.00    +0.007 A 
ENDBRANCH  20  25
BRANCH   8   7
ATOM      4  N   UNL     1      16.849  -0.703  32.403  0.00  0.00    -0.182 NA
ATOM      5  C   UNL     1      16.696  -1.363  31.931  0.00  0.00    +0.340 C 
ATOM      6  O   UNL     1      16.667  -1.285  31.110  0.00  0.00    -0.249 OA
ATOM      7  N   UNL     1      16.571  -2.099  32.280  0.00  0.00    -0.189 NA
BRANCH   4   3
ATOM      3  C   UNL     1      16.973   0.034  32.053  0.00  0.00    +0.143 C 
BRANCH   3   2
ATOM      1  C   UNL     1      17.183   1.441  32.189  0.00  0.00    -0.003 C 
ATOM      2  C   UNL     1      17.156   0.687  32.524  0.00  0.00    -0.003 C 
ENDBRANCH   3   2
ENDBRANCH   4   3
ENDBRANCH   8   7
TORSDOF 4
ENDMDL
