REMARK  Name = 
REMARK  6 active torsions:
REMARK  status: ('A' for Active; 'I' for Inactive)
REMARK    1  A    between atoms: S_2  and  C_3
REMARK    2  A    between atoms: C_6  and  C_9
REMARK    3  A    between atoms: C_17  and  C_19
REMARK    4  A    between atoms: C_19  and  S_20
REMARK    5  A    between atoms: S_20  and  C_21
REMARK    6  A    between atoms: C_21  and  C_22
REMARK                            x       y       z     vdW  Elec       q    Type
REMARK                         _______ _______ _______ _____ _____    ______ ____
ROOT
ATOM      9  C   UNL     1      -0.397  -0.039   0.000  0.00  0.00    +0.012 A 
ATOM     10  C   UNL     1       0.244  -0.558   0.000  0.00  0.00    +0.041 A 
ATOM     11  C   UNL     1       1.163  -0.557   0.000  0.00  0.00    +0.058 C 
ATOM     12  C   UNL     1       1.713  -0.121   0.000  0.00  0.00    +0.011 C 
ATOM     13  C   UNL     1       1.582  -0.925   0.000  0.00  0.00    +0.043 C 
ATOM     14  C   UNL     1       1.629  -1.912   0.000  0.00  0.00    +0.095 C 
ATOM     15  N   UNL     1       0.813  -2.091   0.000  0.00  0.00    -0.278 N 
ATOM     16  C   UNL     1       1.225  -1.510   0.000  0.00  0.00    +0.099 C 
ATOM     17  C   UNL     1       0.125  -2.547   0.000  0.00  0.00    +0.237 C 
ATOM     18  O   UNL     1      -0.614  -2.179   0.000  0.00  0.00    -0.274 OA
ATOM     25  C   UNL     1       0.622  -0.936   0.000  0.00  0.00    +0.110 C 
ATOM     26  N   UNL     1       0.115  -1.373   0.000  0.00  0.00    -0.299 N 
ATOM     27  C   UNL     1      -0.655  -1.669   0.000  0.00  0.00    +0.261 A 
ATOM     28  O   UNL     1      -1.029  -2.404   0.000  0.00  0.00    -0.267 OA
ATOM     29  C   UNL     1      -1.296  -1.150   0.000  0.00  0.00    +0.061 A 
ATOM     30  C   UNL     1      -1.167  -0.335   0.000  0.00  0.00    +0.006 A 
ENDROOT
BRANCH   9   6
ATOM      3  C   UNL     1      -0.010   2.406   0.000  0.00  0.00    +0.025 A 
ATOM      4  C   UNL     1       0.631   1.887   0.000  0.00  0.00    +0.006 A 
ATOM      5  C   UNL     1       0.502   1.072   0.000  0.00  0.00    +0.001 A 
ATOM      6  C   UNL     1      -0.268   0.776   0.000  0.00  0.00    +0.001 A 
ATOM      7  C   UNL     1      -0.909   1.295   0.000  0.00  0.00    +0.001 A 
ATOM      8  C   UNL     1      -0.780   2.110   0.000  0.00  0.00    +0.006 A 
BRANCH   3   2
ATOM      1  C   UNL     1      -0.522   3.740   0.000  0.00  0.00    +0.074 C 
ATOM      2  S   UNL     1       0.119   3.220   0.000  0.00  0.00    -0.113 S 
ENDBRANCH   3   2
ENDBRANCH   9   6
BRANCH  17  19
ATOM     19  C   UNL     1       0.176  -3.370   0.000  0.00  0.00    +0.143 C 
BRANCH  19  20
ATOM     20  S   UNL     1      -0.512  -3.826   0.000  0.00  0.00    -0.119 S 
BRANCH  20  21
ATOM     21  C   UNL     1      -0.461  -4.650   0.000  0.00  0.00    +0.172 C 
BRANCH  21  22
ATOM     22  C   UNL     1      -1.149  -5.105   0.000  0.00  0.00    +0.376 C 
ATOM     23  O   UNL     1      -1.098  -5.929   0.000  0.00  0.00    -0.245 OA
ATOM     24  O   UNL     1      -1.888  -4.737   0.000  0.00  0.00    -0.245 OA
ENDBRANCH  21  22
ENDBRANCH  20  21
ENDBRANCH  19  20
ENDBRANCH  17  19
TORSDOF 6
