MODEL 1
REMARK VINA RESULT:     -13.7      0.000      0.000
REMARK  Name = 
REMARK  4 active torsions:
REMARK  status: ('A' for Active; 'I' for Inactive)
REMARK    1  A    between atoms: C_2  and  C_5
REMARK    2  A    between atoms: C_12  and  C_14
REMARK    3  A    between atoms: N_17  and  C_18
REMARK    4  A    between atoms: C_18  and  C_19
REMARK                            x       y       z     vdW  Elec       q    Type
REMARK                         _______ _______ _______ _____ _____    ______ ____
ROOT
ATOM      5  C   UNL     1      -1.431   4.328  25.133  0.00  0.00    +0.073 A 
ATOM      6  C   UNL     1      -2.116   4.009  24.802  0.00  0.00    +0.025 A 
ATOM      7  C   UNL     1      -2.206   3.190  24.749  0.00  0.00    +0.100 A 
ATOM      8  C   UNL     1      -1.611   2.691  25.027  0.00  0.00    +0.100 A 
ATOM      9  C   UNL     1      -0.926   3.011  25.359  0.00  0.00    +0.021 A 
ATOM     10  C   UNL     1      -0.836   3.829  25.411  0.00  0.00    +0.005 A 
ATOM     11  N   UNL     1      -1.852   1.913  24.903  0.00  0.00    -0.229 NA
ATOM     12  C   UNL     1      -2.596   1.930  24.548  0.00  0.00    +0.140 A 
ATOM     13  N   UNL     1      -2.815   2.720  24.453  0.00  0.00    -0.229 NA
ENDROOT
BRANCH  12  14
ATOM     14  C   UNL     1      -3.044   1.273  24.326  0.00  0.00    +0.076 C 
ATOM     15  C   UNL     1      -3.152   0.997  23.556  0.00  0.00    +0.026 C 
ATOM     16  C   UNL     1      -3.636   0.331  23.589  0.00  0.00    +0.073 C 
ATOM     17  N   UNL     1      -3.828   0.194  24.380  0.00  0.00    -0.272 NA
ATOM     25  C   UNL     1      -3.462   0.777  24.835  0.00  0.00    +0.080 C 
BRANCH  17  18
ATOM     18  C   UNL     1      -4.303  -0.417  24.665  0.00  0.00    +0.072 C 
BRANCH  18  19
ATOM     19  C   UNL     1      -4.024  -1.194  24.660  0.00  0.00    +0.016 C 
ATOM     20  C   UNL     1      -3.582  -1.478  25.296  0.00  0.00    +0.001 C 
ATOM     21  C   UNL     1      -3.304  -2.255  25.290  0.00  0.00    +0.000 C 
ATOM     22  C   UNL     1      -3.466  -2.747  24.648  0.00  0.00    +0.000 C 
ATOM     23  C   UNL     1      -3.908  -2.462  24.011  0.00  0.00    +0.000 C 
ATOM     24  C   UNL     1      -4.187  -1.685  24.017  0.00  0.00    +0.001 C 
ENDBRANCH  18  19
ENDBRANCH  17  18
ENDBRANCH  12  14
BRANCH   5   2
ATOM      1  F   UNL     1      -1.251   5.965  25.239  0.00  0.00    -0.166 F 
ATOM      2  C   UNL     1      -1.341   5.146  25.186  0.00  0.00    +0.419 C 
ATOM      3  F   UNL     1      -1.988   5.185  25.697  0.00  0.00    -0.166 F 
ATOM      4  F   UNL     1      -0.695   5.108  24.675  0.00  0.00    -0.166 F 
ENDBRANCH   5   2
TORSDOF 4
ENDMDL
MODEL 2
REMARK VINA RESULT:     -13.2      3.213      5.617
REMARK  Name = 
REMARK  4 active torsions:
REMARK  status: ('A' for Active; 'I' for Inactive)
REMARK    1  A    between atoms: C_2  and  C_5
REMARK    2  A    between atoms: C_12  and  C_14
REMARK    3  A    between atoms: N_17  and  C_18
REMARK    4  A    between atoms: C_18  and  C_19
REMARK                            x       y       z     vdW  Elec       q    Type
REMARK                         _______ _______ _______ _____ _____    ______ ____
ROOT
ATOM      5  C   UNL     1      -3.678  -2.173  24.502  0.00  0.00    +0.073 A 
ATOM      6  C   UNL     1      -3.978  -1.521  24.097  0.00  0.00    +0.025 A 
ATOM      7  C   UNL     1      -4.040  -0.791  24.477  0.00  0.00    +0.100 A 
ATOM      8  C   UNL     1      -3.801  -0.715  25.263  0.00  0.00    +0.100 A 
ATOM      9  C   UNL     1      -3.501  -1.368  25.669  0.00  0.00    +0.021 A 
ATOM     10  C   UNL     1      -3.440  -2.097  25.288  0.00  0.00    +0.005 A 
ATOM     11  N   UNL     1      -3.926   0.067  25.493  0.00  0.00    -0.229 NA
ATOM     12  C   UNL     1      -4.241   0.475  24.849  0.00  0.00    +0.140 A 
ATOM     13  N   UNL     1      -4.311  -0.056  24.222  0.00  0.00    -0.229 NA
ENDROOT
BRANCH  12  14
ATOM     14  C   UNL     1      -4.450   1.273  24.835  0.00  0.00    +0.076 C 
ATOM     15  C   UNL     1      -5.189   1.584  25.024  0.00  0.00    +0.026 C 
ATOM     16  C   UNL     1      -5.153   2.404  24.936  0.00  0.00    +0.073 C 
ATOM     17  N   UNL     1      -4.389   2.599  24.691  0.00  0.00    -0.272 NA
ATOM     25  C   UNL     1      -3.955   1.900  24.628  0.00  0.00    +0.080 C 
BRANCH  17  18
ATOM     18  C   UNL     1      -4.109   3.359  24.535  0.00  0.00    +0.072 C 
BRANCH  18  19
ATOM     19  C   UNL     1      -3.483   3.667  24.976  0.00  0.00    +0.016 C 
ATOM     20  C   UNL     1      -3.614   3.944  25.742  0.00  0.00    +0.001 C 
ATOM     21  C   UNL     1      -2.988   4.251  26.182  0.00  0.00    +0.000 C 
ATOM     22  C   UNL     1      -2.231   4.282  25.857  0.00  0.00    +0.000 C 
ATOM     23  C   UNL     1      -2.099   4.005  25.090  0.00  0.00    +0.000 C 
ATOM     24  C   UNL     1      -2.726   3.697  24.650  0.00  0.00    +0.001 C 
ENDBRANCH  18  19
ENDBRANCH  17  18
ENDBRANCH  12  14
BRANCH   5   2
ATOM      1  F   UNL     1      -3.555  -3.632  23.741  0.00  0.00    -0.166 F 
ATOM      2  C   UNL     1      -3.617  -2.902  24.121  0.00  0.00    +0.419 C 
ATOM      3  F   UNL     1      -4.439  -2.943  24.066  0.00  0.00    -0.166 F 
ATOM      4  F   UNL     1      -2.795  -2.862  24.177  0.00  0.00    -0.166 F 
ENDBRANCH   5   2
TORSDOF 4
ENDMDL
MODEL 3
REMARK VINA RESULT:     -13.1      3.047      5.754
REMARK  Name = 
REMARK  4 active torsions:
REMARK  status: ('A' for Active; 'I' for Inactive)
REMARK    1  A    between atoms: C_2  and  C_5
REMARK    2  A    between atoms: C_12  and  C_14
REMARK    3  A    between atoms: N_17  and  C_18
REMARK    4  A    between atoms: C_18  and  C_19
REMARK                            x       y       z     vdW  Elec       q    Type
REMARK                         _______ _______ _______ _____ _____    ______ ____
ROOT
ATOM      5  C   UNL     1      -3.507  -1.809  24.554  0.00  0.00    +0.073 A 
ATOM      6  C   UNL     1      -2.757  -1.513  24.725  0.00  0.00    +0.025 A 
ATOM      7  C   UNL     1      -2.600  -0.707  24.639  0.00  0.00    +0.100 A 
ATOM      8  C   UNL     1      -3.195  -0.198  24.381  0.00  0.00    +0.100 A 
ATOM      9  C   UNL     1      -3.947  -0.493  24.209  0.00  0.00    +0.021 A 
ATOM     10  C   UNL     1      -4.102  -1.299  24.296  0.00  0.00    +0.005 A 
ATOM     11  N   UNL     1      -2.882   0.564  24.347  0.00  0.00    -0.229 NA
ATOM     12  C   UNL     1      -2.093   0.526  24.585  0.00  0.00    +0.140 A 
ATOM     13  N   UNL     1      -1.920  -0.260  24.765  0.00  0.00    -0.229 NA
ENDROOT
BRANCH  12  14
ATOM     14  C   UNL     1      -1.569   1.161  24.634  0.00  0.00    +0.076 C 
ATOM     15  C   UNL     1      -1.017   1.380  24.062  0.00  0.00    +0.026 C 
ATOM     16  C   UNL     1      -0.612   2.044  24.338  0.00  0.00    +0.073 C 
ATOM     17  N   UNL     1      -0.915   2.236  25.081  0.00  0.00    -0.272 NA
ATOM     25  C   UNL     1      -1.507   1.690  25.263  0.00  0.00    +0.080 C 
BRANCH  17  18
ATOM     18  C   UNL     1      -0.670   2.863  25.557  0.00  0.00    +0.072 C 
BRANCH  18  19
ATOM     19  C   UNL     1      -0.978   3.619  25.436  0.00  0.00    +0.016 C 
ATOM     20  C   UNL     1      -1.689   3.837  25.793  0.00  0.00    +0.001 C 
ATOM     21  C   UNL     1      -1.996   4.593  25.671  0.00  0.00    +0.000 C 
ATOM     22  C   UNL     1      -1.593   5.131  25.193  0.00  0.00    +0.000 C 
ATOM     23  C   UNL     1      -0.882   4.912  24.836  0.00  0.00    +0.000 C 
ATOM     24  C   UNL     1      -0.574   4.156  24.957  0.00  0.00    +0.001 C 
ENDBRANCH  18  19
ENDBRANCH  17  18
ENDBRANCH  12  14
BRANCH   5   2
ATOM      1  F   UNL     1      -3.819  -3.420  24.727  0.00  0.00    -0.166 F 
ATOM      2  C   UNL     1      -3.663  -2.613  24.640  0.00  0.00    +0.419 C 
ATOM      3  F   UNL     1      -3.646  -2.706  23.821  0.00  0.00    -0.166 F 
ATOM      4  F   UNL     1      -3.681  -2.523  25.460  0.00  0.00    -0.166 F 
ENDBRANCH   5   2
TORSDOF 4
ENDMDL
