MODEL 1
REMARK VINA RESULT:      -9.4      0.000      0.000
REMARK  Name = 
REMARK  7 active torsions:
REMARK  status: ('A' for Active; 'I' for Inactive)
REMARK    1  A    between atoms: O_2  and  C_3
REMARK    2  A    between atoms: C_6  and  N_7
REMARK    3  A    between atoms: C_8  and  O_10
REMARK    4  A    between atoms: O_10  and  C_11
REMARK    5  A    between atoms: C_15  and  N_19
REMARK    6  A    between atoms: C_20  and  C_22
REMARK    7  A    between atoms: C_25  and  C_28
REMARK                            x       y       z     vdW  Elec       q    Type
REMARK                         _______ _______ _______ _____ _____    ______ ____
ROOT
ATOM     11  C   UNL     1      -0.922   0.824  23.827  0.00  0.00    +0.229 C 
ATOM     12  C   UNL     1      -0.553   1.261  24.421  0.00  0.00    +0.188 C 
ATOM     13  O   UNL     1       0.260   1.141  24.357  0.00  0.00    -0.348 OA
ATOM     14  C   UNL     1       0.394   0.631  23.724  0.00  0.00    +0.168 C 
ATOM     15  C   UNL     1       0.979   0.240  23.292  0.00  0.00    +0.155 C 
ATOM     16  C   UNL     1       0.610  -0.197  22.698  0.00  0.00    +0.166 C 
ATOM     17  O   UNL     1      -0.204  -0.077  22.762  0.00  0.00    -0.348 OA
ATOM     18  C   UNL     1      -0.337   0.435  23.396  0.00  0.00    +0.186 C 
ENDROOT
BRANCH  15  19
ATOM     19  N   UNL     1       1.791   0.280  23.431  0.00  0.00    -0.198 NA
ATOM     20  C   UNL     1       2.322   0.132  22.817  0.00  0.00    +0.265 C 
ATOM     21  O   UNL     1       2.042  -0.055  22.064  0.00  0.00    -0.268 OA
BRANCH  20  22
ATOM     22  C   UNL     1       3.135   0.172  22.956  0.00  0.00    +0.055 A 
ATOM     23  C   UNL     1       3.532  -0.479  23.271  0.00  0.00    +0.005 A 
ATOM     24  C   UNL     1       4.344  -0.440  23.410  0.00  0.00    +0.004 A 
ATOM     25  C   UNL     1       4.759   0.252  23.233  0.00  0.00    +0.071 A 
ATOM     26  C   UNL     1       4.362   0.902  22.918  0.00  0.00    +0.004 A 
ATOM     27  C   UNL     1       3.550   0.863  22.779  0.00  0.00    +0.005 A 
BRANCH  25  28
ATOM     28  C   UNL     1       5.572   0.292  23.372  0.00  0.00    +0.419 C 
ATOM     29  F   UNL     1       6.383   0.332  23.511  0.00  0.00    -0.166 F 
ATOM     30  F   UNL     1       5.709  -0.162  22.697  0.00  0.00    -0.166 F 
ATOM     31  F   UNL     1       5.434   0.746  24.047  0.00  0.00    -0.166 F 
ENDBRANCH  25  28
ENDBRANCH  20  22
ENDBRANCH  15  19
BRANCH  11  10
ATOM     10  O   UNL     1      -1.735   0.785  23.688  0.00  0.00    -0.432 OA
BRANCH  10   8
ATOM      7  N   UNL     1      -2.796   1.741  23.660  0.00  0.00    -0.142 NA
ATOM      8  C   UNL     1      -2.247   1.296  24.085  0.00  0.00    +0.425 C 
ATOM      9  O   UNL     1      -2.209   1.361  24.907  0.00  0.00    -0.224 OA
BRANCH   7   6
ATOM      3  C   UNL     1      -4.332   3.276  24.849  0.00  0.00    +0.139 A 
ATOM      4  C   UNL     1      -3.643   3.569  24.501  0.00  0.00    +0.038 A 
ATOM      5  C   UNL     1      -3.132   3.057  24.105  0.00  0.00    +0.020 A 
ATOM      6  C   UNL     1      -3.308   2.252  24.057  0.00  0.00    +0.077 A 
ATOM     32  C   UNL     1      -3.996   1.960  24.405  0.00  0.00    +0.020 A 
ATOM     33  C   UNL     1      -4.508   2.471  24.801  0.00  0.00    +0.038 A 
BRANCH   3   2
ATOM      1  C   UNL     1      -5.490   3.485  25.659  0.00  0.00    +0.252 C 
ATOM      2  O   UNL     1      -4.843   3.787  25.245  0.00  0.00    -0.471 OA
ENDBRANCH   3   2
ENDBRANCH   7   6
ENDBRANCH  10   8
ENDBRANCH  11  10
TORSDOF 7
ENDMDL
MODEL 2
REMARK VINA RESULT:      -9.1      3.632      7.532
REMARK  Name = 
REMARK  7 active torsions:
REMARK  status: ('A' for Active; 'I' for Inactive)
REMARK    1  A    between atoms: O_2  and  C_3
REMARK    2  A    between atoms: C_6  and  N_7
REMARK    3  A    between atoms: C_8  and  O_10
REMARK    4  A    between atoms: O_10  and  C_11
REMARK    5  A    between atoms: C_15  and  N_19
REMARK    6  A    between atoms: C_20  and  C_22
REMARK    7  A    between atoms: C_25  and  C_28
REMARK                            x       y       z     vdW  Elec       q    Type
REMARK                         _______ _______ _______ _____ _____    ______ ____
ROOT
ATOM     11  C   UNL     1      -0.004   0.507  23.488  0.00  0.00    +0.229 C 
ATOM     12  C   UNL     1       0.071   1.327  23.544  0.00  0.00    +0.188 C 
ATOM     13  O   UNL     1      -0.628   1.625  23.864  0.00  0.00    -0.348 OA
ATOM     14  C   UNL     1      -1.135   0.991  24.006  0.00  0.00    +0.168 C 
ATOM     15  C   UNL     1      -1.880   0.782  24.292  0.00  0.00    +0.155 C 
ATOM     16  C   UNL     1      -1.955  -0.038  24.236  0.00  0.00    +0.166 C 
ATOM     17  O   UNL     1      -1.256  -0.336  23.916  0.00  0.00    -0.348 OA
ATOM     18  C   UNL     1      -0.749   0.300  23.774  0.00  0.00    +0.186 C 
ENDROOT
BRANCH  15  19
ATOM     19  N   UNL     1      -2.451   1.302  24.582  0.00  0.00    -0.198 NA
ATOM     20  C   UNL     1      -3.230   1.253  24.314  0.00  0.00    +0.265 C 
ATOM     21  O   UNL     1      -3.438   0.683  23.754  0.00  0.00    -0.268 OA
BRANCH  20  22
ATOM     22  C   UNL     1      -3.800   1.773  24.604  0.00  0.00    +0.055 A 
ATOM     23  C   UNL     1      -4.420   1.489  25.068  0.00  0.00    +0.005 A 
ATOM     24  C   UNL     1      -4.991   2.008  25.359  0.00  0.00    +0.004 A 
ATOM     25  C   UNL     1      -4.941   2.814  25.185  0.00  0.00    +0.071 A 
ATOM     26  C   UNL     1      -4.322   3.098  24.721  0.00  0.00    +0.004 A 
ATOM     27  C   UNL     1      -3.751   2.578  24.430  0.00  0.00    +0.005 A 
BRANCH  25  28
ATOM     28  C   UNL     1      -5.512   3.334  25.476  0.00  0.00    +0.419 C 
ATOM     29  F   UNL     1      -6.082   3.855  25.766  0.00  0.00    -0.166 F 
ATOM     30  F   UNL     1      -6.107   2.858  25.160  0.00  0.00    -0.166 F 
ATOM     31  F   UNL     1      -4.917   3.811  25.791  0.00  0.00    -0.166 F 
ENDBRANCH  25  28
ENDBRANCH  20  22
ENDBRANCH  15  19
BRANCH  11  10
ATOM     10  O   UNL     1       0.567  -0.013  23.198  0.00  0.00    -0.432 OA
BRANCH  10   8
ATOM      7  N   UNL     1       1.914  -0.141  22.740  0.00  0.00    -0.142 NA
ATOM      8  C   UNL     1       1.368   0.168  23.274  0.00  0.00    +0.425 C 
ATOM      9  O   UNL     1       1.622   0.660  23.886  0.00  0.00    -0.224 OA
BRANCH   7   6
ATOM      3  C   UNL     1       4.318   0.402  22.969  0.00  0.00    +0.139 A 
ATOM      4  C   UNL     1       4.020  -0.296  23.293  0.00  0.00    +0.038 A 
ATOM      5  C   UNL     1       3.219  -0.477  23.216  0.00  0.00    +0.020 A 
ATOM      6  C   UNL     1       2.715   0.040  22.816  0.00  0.00    +0.077 A 
ATOM     32  C   UNL     1       3.014   0.737  22.492  0.00  0.00    +0.020 A 
ATOM     33  C   UNL     1       3.815   0.919  22.569  0.00  0.00    +0.038 A 
BRANCH   3   2
ATOM      1  C   UNL     1       5.585   0.168  23.587  0.00  0.00    +0.252 C 
ATOM      2  O   UNL     1       5.119   0.582  23.046  0.00  0.00    -0.471 OA
ENDBRANCH   3   2
ENDBRANCH   7   6
ENDBRANCH  10   8
ENDBRANCH  11  10
TORSDOF 7
ENDMDL
MODEL 3
REMARK VINA RESULT:      -5.5     14.880     17.244
REMARK  Name = 
REMARK  7 active torsions:
REMARK  status: ('A' for Active; 'I' for Inactive)
REMARK    1  A    between atoms: O_2  and  C_3
REMARK    2  A    between atoms: C_6  and  N_7
REMARK    3  A    between atoms: C_8  and  O_10
REMARK    4  A    between atoms: O_10  and  C_11
REMARK    5  A    between atoms: C_15  and  N_19
REMARK    6  A    between atoms: C_20  and  C_22
REMARK    7  A    between atoms: C_25  and  C_28
REMARK                            x       y       z     vdW  Elec       q    Type
REMARK                         _______ _______ _______ _____ _____    ______ ____
ROOT
ATOM     11  C   UNL     1      12.648  -7.016  31.210  0.00  0.00    +0.229 C 
ATOM     12  C   UNL     1      12.180  -6.639  30.645  0.00  0.00    +0.188 C 
ATOM     13  O   UNL     1      11.390  -6.788  30.829  0.00  0.00    -0.348 OA
ATOM     14  C   UNL     1      11.369  -7.256  31.507  0.00  0.00    +0.168 C 
ATOM     15  C   UNL     1      10.869  -7.638  32.040  0.00  0.00    +0.155 C 
ATOM     16  C   UNL     1      11.337  -8.015  32.605  0.00  0.00    +0.166 C 
ATOM     17  O   UNL     1      12.127  -7.867  32.421  0.00  0.00    -0.348 OA
ATOM     18  C   UNL     1      12.147  -7.398  31.742  0.00  0.00    +0.186 C 
ENDROOT
BRANCH  15  19
ATOM     19  N   UNL     1      10.044  -7.642  32.013  0.00  0.00    -0.198 NA
ATOM     20  C   UNL     1       9.623  -8.267  32.349  0.00  0.00    +0.265 C 
ATOM     21  O   UNL     1      10.026  -8.888  32.713  0.00  0.00    -0.268 OA
BRANCH  20  22
ATOM     22  C   UNL     1       8.798  -8.270  32.322  0.00  0.00    +0.055 A 
ATOM     23  C   UNL     1       8.365  -7.836  32.873  0.00  0.00    +0.005 A 
ATOM     24  C   UNL     1       7.541  -7.839  32.847  0.00  0.00    +0.004 A 
ATOM     25  C   UNL     1       7.149  -8.278  32.267  0.00  0.00    +0.071 A 
ATOM     26  C   UNL     1       7.583  -8.712  31.716  0.00  0.00    +0.004 A 
ATOM     27  C   UNL     1       8.407  -8.709  31.743  0.00  0.00    +0.005 A 
BRANCH  25  28
ATOM     28  C   UNL     1       6.325  -8.281  32.240  0.00  0.00    +0.419 C 
ATOM     29  F   UNL     1       5.501  -8.285  32.212  0.00  0.00    -0.166 F 
ATOM     30  F   UNL     1       6.307  -8.816  32.867  0.00  0.00    -0.166 F 
ATOM     31  F   UNL     1       6.343  -7.746  31.612  0.00  0.00    -0.166 F 
ENDBRANCH  25  28
ENDBRANCH  20  22
ENDBRANCH  15  19
BRANCH  11  10
ATOM     10  O   UNL     1      13.473  -7.013  31.237  0.00  0.00    -0.432 OA
BRANCH  10   8
ATOM      7  N   UNL     1      14.482  -6.024  31.452  0.00  0.00    -0.142 NA
ATOM      8  C   UNL     1      13.892  -6.351  30.978  0.00  0.00    +0.425 C 
ATOM      9  O   UNL     1      13.719  -6.015  30.244  0.00  0.00    -0.224 OA
BRANCH   7   6
ATOM      3  C   UNL     1      15.739  -4.038  30.675  0.00  0.00    +0.139 A 
ATOM      4  C   UNL     1      15.933  -4.788  30.389  0.00  0.00    +0.038 A 
ATOM      5  C   UNL     1      15.514  -5.449  30.649  0.00  0.00    +0.020 A 
ATOM      6  C   UNL     1      14.901  -5.362  31.193  0.00  0.00    +0.077 A 
ATOM     32  C   UNL     1      14.707  -4.613  31.479  0.00  0.00    +0.020 A 
ATOM     33  C   UNL     1      15.126  -3.951  31.220  0.00  0.00    +0.038 A 
BRANCH   3   2
ATOM      1  C   UNL     1      16.537  -2.889  30.963  0.00  0.00    +0.252 C 
ATOM      2  O   UNL     1      16.158  -3.377  30.416  0.00  0.00    -0.471 OA
ENDBRANCH   3   2
ENDBRANCH   7   6
ENDBRANCH  10   8
ENDBRANCH  11  10
TORSDOF 7
ENDMDL
