MODEL 1
REMARK VINA RESULT:     -10.5      0.000      0.000
REMARK  Name = 
REMARK  6 active torsions:
REMARK  status: ('A' for Active; 'I' for Inactive)
REMARK    1  A    between atoms: C_2  and  C_4
REMARK    2  A    between atoms: C_6  and  C_7
REMARK    3  A    between atoms: C_7  and  C_8
REMARK    4  A    between atoms: N_10  and  C_11
REMARK    5  A    between atoms: C_11  and  C_12
REMARK    6  A    between atoms: C_21  and  C_22
REMARK                            x       y       z     vdW  Elec       q    Type
REMARK                         _______ _______ _______ _____ _____    ______ ____
ROOT
ATOM      4  C   UNL     1      -1.813   2.923  25.024  0.00  0.00    +0.007 C 
ATOM      5  C   UNL     1      -2.376   2.383  24.754  0.00  0.00    +0.005 C 
ATOM      6  C   UNL     1      -3.113   2.651  24.498  0.00  0.00    +0.027 C 
ATOM     18  C   UNL     1      -3.288   3.457  24.512  0.00  0.00    -0.048 C 
ATOM     19  C   UNL     1      -4.025   3.724  24.257  0.00  0.00    +0.026 C 
ATOM     20  C   UNL     1      -2.725   3.996  24.782  0.00  0.00    -0.032 C 
ATOM     21  C   UNL     1      -1.987   3.730  25.038  0.00  0.00    +0.054 C 
ENDROOT
BRANCH   4   2
ATOM      1  C   UNL     1      -0.481   2.497  24.730  0.00  0.00    +0.000 C 
ATOM      2  C   UNL     1      -1.075   2.656  25.280  0.00  0.00    +0.000 C 
ATOM      3  C   UNL     1      -0.932   2.548  26.084  0.00  0.00    +0.000 C 
ENDBRANCH   4   2
BRANCH  21  22
ATOM     22  C   UNL     1      -1.425   4.268  25.308  0.00  0.00    +0.186 C 
ATOM     23  O   UNL     1      -1.582   5.078  25.280  0.00  0.00    -0.220 OA
ENDBRANCH  21  22
BRANCH   6   7
ATOM      7  C   UNL     1      -3.675   2.111  24.229  0.00  0.00    +0.091 C 
BRANCH   7   8
ATOM      8  C   UNL     1      -3.940   1.508  24.727  0.00  0.00    +0.242 C 
ATOM      9  O   UNL     1      -4.315   1.694  25.438  0.00  0.00    -0.273 OA
ATOM     10  N   UNL     1      -3.829   0.718  24.513  0.00  0.00    -0.200 NA
BRANCH  10  11
ATOM     11  C   UNL     1      -4.093   0.116  25.011  0.00  0.00    +0.143 C 
BRANCH  11  12
ATOM     12  C   UNL     1      -3.948  -0.672  24.815  0.00  0.00    +0.019 A 
ATOM     13  C   UNL     1      -3.447  -1.128  25.284  0.00  0.00    +0.001 A 
ATOM     14  C   UNL     1      -3.302  -1.917  25.088  0.00  0.00    +0.020 A 
ATOM     15  C   UNL     1      -3.660  -2.248  24.423  0.00  0.00    +0.099 A 
ATOM     16  N   UNL     1      -4.162  -1.793  23.954  0.00  0.00    -0.243 NA
ATOM     17  C   UNL     1      -4.307  -1.004  24.150  0.00  0.00    +0.096 A 
ENDBRANCH  11  12
ENDBRANCH  10  11
ENDBRANCH   7   8
ENDBRANCH   6   7
TORSDOF 6
ENDMDL
MODEL 2
REMARK VINA RESULT:     -10.5      2.102      4.519
REMARK  Name = 
REMARK  6 active torsions:
REMARK  status: ('A' for Active; 'I' for Inactive)
REMARK    1  A    between atoms: C_2  and  C_4
REMARK    2  A    between atoms: C_6  and  C_7
REMARK    3  A    between atoms: C_7  and  C_8
REMARK    4  A    between atoms: N_10  and  C_11
REMARK    5  A    between atoms: C_11  and  C_12
REMARK    6  A    between atoms: C_21  and  C_22
REMARK                            x       y       z     vdW  Elec       q    Type
REMARK                         _______ _______ _______ _____ _____    ______ ____
ROOT
ATOM      4  C   UNL     1      -2.194  -1.041  24.990  0.00  0.00    +0.007 C 
ATOM      5  C   UNL     1      -2.859  -0.554  24.943  0.00  0.00    +0.005 C 
ATOM      6  C   UNL     1      -3.556  -0.840  24.606  0.00  0.00    +0.027 C 
ATOM     18  C   UNL     1      -3.588  -1.612  24.317  0.00  0.00    -0.048 C 
ATOM     19  C   UNL     1      -4.285  -1.897  23.981  0.00  0.00    +0.026 C 
ATOM     20  C   UNL     1      -2.924  -2.098  24.364  0.00  0.00    -0.032 C 
ATOM     21  C   UNL     1      -2.227  -1.813  24.701  0.00  0.00    +0.054 C 
ENDROOT
BRANCH   4   2
ATOM      1  C   UNL     1      -1.400  -0.769  26.147  0.00  0.00    +0.000 C 
ATOM      2  C   UNL     1      -1.497  -0.756  25.327  0.00  0.00    +0.000 C 
ATOM      3  C   UNL     1      -0.899  -0.457  24.846  0.00  0.00    +0.000 C 
ENDBRANCH   4   2
BRANCH  21  22
ATOM     22  C   UNL     1      -1.562  -2.300  24.748  0.00  0.00    +0.186 C 
ATOM     23  O   UNL     1      -1.564  -3.037  24.378  0.00  0.00    -0.220 OA
ENDBRANCH  21  22
BRANCH   6   7
ATOM      7  C   UNL     1      -4.220  -0.353  24.559  0.00  0.00    +0.091 C 
BRANCH   7   8
ATOM      8  C   UNL     1      -4.147   0.415  24.265  0.00  0.00    +0.242 C 
ATOM      9  O   UNL     1      -3.812   0.542  23.522  0.00  0.00    -0.273 OA
ATOM     10  N   UNL     1      -4.411   1.056  24.714  0.00  0.00    -0.200 NA
BRANCH  10  11
ATOM     11  C   UNL     1      -4.338   1.823  24.419  0.00  0.00    +0.143 C 
BRANCH  11  12
ATOM     12  C   UNL     1      -4.552   2.466  24.890  0.00  0.00    +0.019 A 
ATOM     13  C   UNL     1      -3.976   2.993  25.153  0.00  0.00    +0.001 A 
ATOM     14  C   UNL     1      -4.190   3.637  25.624  0.00  0.00    +0.020 A 
ATOM     15  C   UNL     1      -4.980   3.751  25.831  0.00  0.00    +0.099 A 
ATOM     16  N   UNL     1      -5.556   3.224  25.568  0.00  0.00    -0.243 NA
ATOM     17  C   UNL     1      -5.343   2.580  25.097  0.00  0.00    +0.096 A 
ENDBRANCH  11  12
ENDBRANCH  10  11
ENDBRANCH   7   8
ENDBRANCH   6   7
TORSDOF 6
ENDMDL
MODEL 3
REMARK VINA RESULT:     -10.1      1.243      2.182
REMARK  Name = 
REMARK  6 active torsions:
REMARK  status: ('A' for Active; 'I' for Inactive)
REMARK    1  A    between atoms: C_2  and  C_4
REMARK    2  A    between atoms: C_6  and  C_7
REMARK    3  A    between atoms: C_7  and  C_8
REMARK    4  A    between atoms: N_10  and  C_11
REMARK    5  A    between atoms: C_11  and  C_12
REMARK    6  A    between atoms: C_21  and  C_22
REMARK                            x       y       z     vdW  Elec       q    Type
REMARK                         _______ _______ _______ _____ _____    ______ ____
ROOT
ATOM      4  C   UNL     1      -2.409   3.260  25.189  0.00  0.00    +0.007 C 
ATOM      5  C   UNL     1      -2.215   2.458  25.229  0.00  0.00    +0.005 C 
ATOM      6  C   UNL     1      -1.445   2.230  25.415  0.00  0.00    +0.027 C 
ATOM     18  C   UNL     1      -0.868   2.802  25.562  0.00  0.00    -0.048 C 
ATOM     19  C   UNL     1      -0.099   2.573  25.748  0.00  0.00    +0.026 C 
ATOM     20  C   UNL     1      -1.063   3.602  25.522  0.00  0.00    -0.032 C 
ATOM     21  C   UNL     1      -1.833   3.832  25.335  0.00  0.00    +0.054 C 
ENDROOT
BRANCH   4   2
ATOM      1  C   UNL     1      -3.733   3.601  25.604  0.00  0.00    +0.000 C 
ATOM      2  C   UNL     1      -3.180   3.488  25.002  0.00  0.00    +0.000 C 
ATOM      3  C   UNL     1      -3.397   3.602  24.216  0.00  0.00    +0.000 C 
ENDBRANCH   4   2
BRANCH  21  22
ATOM     22  C   UNL     1      -2.027   4.632  25.295  0.00  0.00    +0.186 C 
ATOM     23  O   UNL     1      -1.431   5.202  25.311  0.00  0.00    -0.220 OA
ENDBRANCH  21  22
BRANCH   6   7
ATOM      7  C   UNL     1      -1.251   1.429  25.455  0.00  0.00    +0.091 C 
BRANCH   7   8
ATOM      8  C   UNL     1      -1.464   0.923  24.839  0.00  0.00    +0.242 C 
ATOM      9  O   UNL     1      -1.181   1.059  24.076  0.00  0.00    -0.273 OA
ATOM     10  N   UNL     1      -1.959   0.279  24.987  0.00  0.00    -0.200 NA
BRANCH  10  11
ATOM     11  C   UNL     1      -2.171  -0.227  24.371  0.00  0.00    +0.143 C 
BRANCH  11  12
ATOM     12  C   UNL     1      -2.645  -0.885  24.523  0.00  0.00    +0.019 A 
ATOM     13  C   UNL     1      -3.462  -0.836  24.426  0.00  0.00    +0.001 A 
ATOM     14  C   UNL     1      -3.936  -1.494  24.579  0.00  0.00    +0.020 A 
ATOM     15  C   UNL     1      -3.591  -2.201  24.829  0.00  0.00    +0.099 A 
ATOM     16  N   UNL     1      -2.775  -2.250  24.925  0.00  0.00    -0.243 NA
ATOM     17  C   UNL     1      -2.300  -1.592  24.773  0.00  0.00    +0.096 A 
ENDBRANCH  11  12
ENDBRANCH  10  11
ENDBRANCH   7   8
ENDBRANCH   6   7
TORSDOF 6
ENDMDL
MODEL 4
REMARK VINA RESULT:     -10.1      2.025      5.101
REMARK  Name = 
REMARK  6 active torsions:
REMARK  status: ('A' for Active; 'I' for Inactive)
REMARK    1  A    between atoms: C_2  and  C_4
REMARK    2  A    between atoms: C_6  and  C_7
REMARK    3  A    between atoms: C_7  and  C_8
REMARK    4  A    between atoms: N_10  and  C_11
REMARK    5  A    between atoms: C_11  and  C_12
REMARK    6  A    between atoms: C_21  and  C_22
REMARK                            x       y       z     vdW  Elec       q    Type
REMARK                         _______ _______ _______ _____ _____    ______ ____
ROOT
ATOM      4  C   UNL     1      -3.166  -0.648  24.922  0.00  0.00    +0.007 C 
ATOM      5  C   UNL     1      -2.598  -0.054  25.004  0.00  0.00    +0.005 C 
ATOM      6  C   UNL     1      -1.818  -0.253  25.185  0.00  0.00    +0.027 C 
ATOM     18  C   UNL     1      -1.606  -1.044  25.285  0.00  0.00    -0.048 C 
ATOM     19  C   UNL     1      -0.826  -1.241  25.466  0.00  0.00    +0.026 C 
ATOM     20  C   UNL     1      -2.173  -1.636  25.203  0.00  0.00    -0.032 C 
ATOM     21  C   UNL     1      -2.953  -1.439  25.022  0.00  0.00    +0.054 C 
ENDROOT
BRANCH   4   2
ATOM      1  C   UNL     1      -4.436  -0.131  25.324  0.00  0.00    +0.000 C 
ATOM      2  C   UNL     1      -3.946  -0.449  24.741  0.00  0.00    +0.000 C 
ATOM      3  C   UNL     1      -4.235  -0.569  23.979  0.00  0.00    +0.000 C 
ENDBRANCH   4   2
BRANCH  21  22
ATOM     22  C   UNL     1      -3.521  -2.031  24.940  0.00  0.00    +0.186 C 
ATOM     23  O   UNL     1      -3.335  -2.810  25.139  0.00  0.00    -0.220 OA
ENDBRANCH  21  22
BRANCH   6   7
ATOM      7  C   UNL     1      -1.251   0.341  25.266  0.00  0.00    +0.091 C 
BRANCH   7   8
ATOM      8  C   UNL     1      -1.240   0.975  24.738  0.00  0.00    +0.242 C 
ATOM      9  O   UNL     1      -1.115   0.841  23.934  0.00  0.00    -0.273 OA
ATOM     10  N   UNL     1      -1.353   1.745  25.015  0.00  0.00    -0.200 NA
BRANCH  10  11
ATOM     11  C   UNL     1      -1.342   2.379  24.488  0.00  0.00    +0.143 C 
BRANCH  11  12
ATOM     12  C   UNL     1      -1.426   3.149  24.769  0.00  0.00    +0.019 A 
ATOM     13  C   UNL     1      -2.157   3.410  25.044  0.00  0.00    +0.001 A 
ATOM     14  C   UNL     1      -2.241   4.182  25.326  0.00  0.00    +0.020 A 
ATOM     15  C   UNL     1      -1.592   4.691  25.330  0.00  0.00    +0.099 A 
ATOM     16  N   UNL     1      -0.861   4.430  25.055  0.00  0.00    -0.243 NA
ATOM     17  C   UNL     1      -0.777   3.660  24.774  0.00  0.00    +0.096 A 
ENDBRANCH  11  12
ENDBRANCH  10  11
ENDBRANCH   7   8
ENDBRANCH   6   7
TORSDOF 6
ENDMDL
MODEL 5
REMARK VINA RESULT:     -10.0      1.635      2.702
REMARK  Name = 
REMARK  6 active torsions:
REMARK  status: ('A' for Active; 'I' for Inactive)
REMARK    1  A    between atoms: C_2  and  C_4
REMARK    2  A    between atoms: C_6  and  C_7
REMARK    3  A    between atoms: C_7  and  C_8
REMARK    4  A    between atoms: N_10  and  C_11
REMARK    5  A    between atoms: C_11  and  C_12
REMARK    6  A    between atoms: C_21  and  C_22
REMARK                            x       y       z     vdW  Elec       q    Type
REMARK                         _______ _______ _______ _____ _____    ______ ____
ROOT
ATOM      4  C   UNL     1      -5.045   2.180  25.088  0.00  0.00    +0.007 C 
ATOM      5  C   UNL     1      -4.486   1.648  24.796  0.00  0.00    +0.005 C 
ATOM      6  C   UNL     1      -3.773   1.926  24.489  0.00  0.00    +0.027 C 
ATOM     18  C   UNL     1      -3.618   2.737  24.474  0.00  0.00    -0.048 C 
ATOM     19  C   UNL     1      -2.906   3.014  24.167  0.00  0.00    +0.026 C 
ATOM     20  C   UNL     1      -4.177   3.268  24.766  0.00  0.00    -0.032 C 
ATOM     21  C   UNL     1      -4.890   2.990  25.074  0.00  0.00    +0.054 C 
ENDROOT
BRANCH   4   2
ATOM      1  C   UNL     1      -6.377   1.704  24.886  0.00  0.00    +0.000 C 
ATOM      2  C   UNL     1      -5.758   1.901  25.395  0.00  0.00    +0.000 C 
ATOM      3  C   UNL     1      -5.853   1.820  26.210  0.00  0.00    +0.000 C 
ENDBRANCH   4   2
BRANCH  21  22
ATOM     22  C   UNL     1      -5.449   3.522  25.366  0.00  0.00    +0.186 C 
ATOM     23  O   UNL     1      -5.276   4.328  25.393  0.00  0.00    -0.220 OA
ENDBRANCH  21  22
BRANCH   6   7
ATOM      7  C   UNL     1      -3.215   1.394  24.196  0.00  0.00    +0.091 C 
BRANCH   7   8
ATOM      8  C   UNL     1      -2.903   0.811  24.691  0.00  0.00    +0.242 C 
ATOM      9  O   UNL     1      -2.467   1.025  25.357  0.00  0.00    -0.273 OA
ATOM     10  N   UNL     1      -3.028   0.013  24.518  0.00  0.00    -0.200 NA
BRANCH  10  11
ATOM     11  C   UNL     1      -2.716  -0.569  25.012  0.00  0.00    +0.143 C 
BRANCH  11  12
ATOM     12  C   UNL     1      -2.810  -1.365  24.820  0.00  0.00    +0.019 A 
ATOM     13  C   UNL     1      -3.543  -1.730  24.916  0.00  0.00    +0.001 A 
ATOM     14  C   UNL     1      -3.636  -2.527  24.723  0.00  0.00    +0.020 A 
ATOM     15  C   UNL     1      -2.995  -2.959  24.434  0.00  0.00    +0.099 A 
ATOM     16  N   UNL     1      -2.262  -2.594  24.337  0.00  0.00    -0.243 NA
ATOM     17  C   UNL     1      -2.169  -1.798  24.530  0.00  0.00    +0.096 A 
ENDBRANCH  11  12
ENDBRANCH  10  11
ENDBRANCH   7   8
ENDBRANCH   6   7
TORSDOF 6
ENDMDL
