MODEL 1
REMARK VINA RESULT:     -12.0      0.000      0.000
REMARK  Name = 
REMARK  7 active torsions:
REMARK  status: ('A' for Active; 'I' for Inactive)
REMARK    1  A    between atoms: O_2  and  C_3
REMARK    2  A    between atoms: C_6  and  C_9
REMARK    3  A    between atoms: N_11  and  C_12
REMARK    4  A    between atoms: C_19  and  C_20
REMARK    5  A    between atoms: C_20  and  C_22
REMARK    6  A    between atoms: N_24  and  C_25
REMARK    7  A    between atoms: C_25  and  C_26
REMARK                            x       y       z     vdW  Elec       q    Type
REMARK                         _______ _______ _______ _____ _____    ______ ____
ROOT
ATOM     12  C   UNL     1      -4.598   0.702  24.704  0.00  0.00    +0.096 C 
ATOM     13  C   UNL     1      -5.244   0.832  25.202  0.00  0.00    +0.022 C 
ATOM     14  C   UNL     1      -5.410   1.594  25.470  0.00  0.00    +0.002 C 
ATOM     15  C   UNL     1      -4.932   2.225  25.240  0.00  0.00    +0.002 C 
ATOM     16  C   UNL     1      -5.577   2.356  25.737  0.00  0.00    +0.000 C 
ATOM     17  C   UNL     1      -5.098   2.988  25.508  0.00  0.00    +0.000 C 
ATOM     18  C   UNL     1      -4.620   3.619  25.279  0.00  0.00    +0.003 C 
ATOM     19  C   UNL     1      -3.975   3.489  24.781  0.00  0.00    +0.039 C 
ATOM     32  C   UNL     1      -3.808   2.727  24.513  0.00  0.00    +0.152 C 
ATOM     33  O   UNL     1      -3.163   2.596  24.016  0.00  0.00    -0.223 OA
ATOM     34  C   UNL     1      -4.286   2.095  24.742  0.00  0.00    +0.032 C 
ATOM     35  C   UNL     1      -4.120   1.333  24.475  0.00  0.00    +0.022 C 
ATOM     36  C   UNL     1      -3.475   1.202  23.977  0.00  0.00    +0.002 C 
ENDROOT
BRANCH  12  11
ATOM      9  C   UNL     1      -4.196  -0.645  24.970  0.00  0.00    +0.265 C 
ATOM     10  O   UNL     1      -4.126  -0.465  25.773  0.00  0.00    -0.268 OA
ATOM     11  N   UNL     1      -4.432  -0.061  24.436  0.00  0.00    -0.203 NA
BRANCH   9   6
ATOM      3  C   UNL     1      -3.698  -2.931  24.166  0.00  0.00    +0.139 A 
ATOM      4  C   UNL     1      -4.205  -2.444  23.735  0.00  0.00    +0.037 A 
ATOM      5  C   UNL     1      -4.370  -1.681  24.003  0.00  0.00    +0.008 A 
ATOM      6  C   UNL     1      -4.030  -1.407  24.702  0.00  0.00    +0.055 A 
ATOM      7  C   UNL     1      -3.524  -1.894  25.134  0.00  0.00    +0.008 A 
ATOM      8  C   UNL     1      -3.357  -2.657  24.866  0.00  0.00    +0.037 A 
BRANCH   3   2
ATOM      1  C   UNL     1      -2.795  -3.865  23.572  0.00  0.00    +0.252 C 
ATOM      2  O   UNL     1      -3.532  -3.694  23.899  0.00  0.00    -0.471 OA
ENDBRANCH   3   2
ENDBRANCH   9   6
ENDBRANCH  12  11
BRANCH  19  20
ATOM     20  C   UNL     1      -3.496   4.121  24.552  0.00  0.00    +0.081 C 
ATOM     21  C   UNL     1      -3.677   4.547  23.869  0.00  0.00    +0.010 C 
BRANCH  20  22
ATOM     22  C   UNL     1      -2.839   4.327  25.004  0.00  0.00    +0.241 C 
ATOM     23  O   UNL     1      -2.897   4.930  25.566  0.00  0.00    -0.273 OA
ATOM     24  N   UNL     1      -2.123   3.931  24.897  0.00  0.00    -0.199 NA
BRANCH  24  25
ATOM     25  C   UNL     1      -1.465   4.137  25.350  0.00  0.00    +0.160 C 
BRANCH  25  26
ATOM     26  C   UNL     1      -0.860   3.590  25.471  0.00  0.00    +0.081 A 
ATOM     27  N   UNL     1      -0.326   3.423  24.865  0.00  0.00    -0.246 NA
ATOM     28  C   UNL     1       0.280   2.876  24.986  0.00  0.00    +0.099 A 
ATOM     29  C   UNL     1       0.352   2.496  25.715  0.00  0.00    +0.021 A 
ATOM     30  C   UNL     1      -0.182   2.663  26.322  0.00  0.00    +0.003 A 
ATOM     31  C   UNL     1      -0.787   3.210  26.200  0.00  0.00    +0.017 A 
ENDBRANCH  25  26
ENDBRANCH  24  25
ENDBRANCH  20  22
ENDBRANCH  19  20
TORSDOF 7
ENDMDL
MODEL 2
REMARK VINA RESULT:     -11.6      3.123      5.247
REMARK  Name = 
REMARK  7 active torsions:
REMARK  status: ('A' for Active; 'I' for Inactive)
REMARK    1  A    between atoms: O_2  and  C_3
REMARK    2  A    between atoms: C_6  and  C_9
REMARK    3  A    between atoms: N_11  and  C_12
REMARK    4  A    between atoms: C_19  and  C_20
REMARK    5  A    between atoms: C_20  and  C_22
REMARK    6  A    between atoms: N_24  and  C_25
REMARK    7  A    between atoms: C_25  and  C_26
REMARK                            x       y       z     vdW  Elec       q    Type
REMARK                         _______ _______ _______ _____ _____    ______ ____
ROOT
ATOM     12  C   UNL     1      -2.048   1.901  24.797  0.00  0.00    +0.096 C 
ATOM     13  C   UNL     1      -1.638   2.617  24.843  0.00  0.00    +0.022 C 
ATOM     14  C   UNL     1      -0.846   2.653  24.616  0.00  0.00    +0.002 C 
ATOM     15  C   UNL     1      -0.464   1.976  24.343  0.00  0.00    +0.002 C 
ATOM     16  C   UNL     1      -0.055   2.689  24.389  0.00  0.00    +0.000 C 
ATOM     17  C   UNL     1       0.328   2.012  24.115  0.00  0.00    +0.000 C 
ATOM     18  C   UNL     1       0.711   1.334  23.842  0.00  0.00    +0.003 C 
ATOM     19  C   UNL     1       0.300   0.619  23.796  0.00  0.00    +0.039 C 
ATOM     32  C   UNL     1      -0.491   0.583  24.023  0.00  0.00    +0.152 C 
ATOM     33  O   UNL     1      -0.901  -0.132  23.977  0.00  0.00    -0.223 OA
ATOM     34  C   UNL     1      -0.874   1.260  24.296  0.00  0.00    +0.032 C 
ATOM     35  C   UNL     1      -1.666   1.224  24.524  0.00  0.00    +0.022 C 
ATOM     36  C   UNL     1      -2.076   0.509  24.478  0.00  0.00    +0.002 C 
ENDROOT
BRANCH  12  11
ATOM      9  C   UNL     1      -3.369   2.450  24.778  0.00  0.00    +0.265 C 
ATOM     10  O   UNL     1      -3.104   3.071  24.303  0.00  0.00    -0.268 OA
ATOM     11  N   UNL     1      -2.841   1.865  25.025  0.00  0.00    -0.203 NA
BRANCH   9   6
ATOM      3  C   UNL     1      -5.744   2.341  25.462  0.00  0.00    +0.139 A 
ATOM      4  C   UNL     1      -5.439   1.778  24.942  0.00  0.00    +0.037 A 
ATOM      5  C   UNL     1      -4.646   1.814  24.715  0.00  0.00    +0.008 A 
ATOM      6  C   UNL     1      -4.160   2.413  25.006  0.00  0.00    +0.055 A 
ATOM      7  C   UNL     1      -4.466   2.976  25.525  0.00  0.00    +0.008 A 
ATOM      8  C   UNL     1      -5.258   2.941  25.754  0.00  0.00    +0.037 A 
BRANCH   3   2
ATOM      1  C   UNL     1      -6.753   1.886  26.365  0.00  0.00    +0.252 C 
ATOM      2  O   UNL     1      -6.536   2.305  25.690  0.00  0.00    -0.471 OA
ENDBRANCH   3   2
ENDBRANCH   9   6
ENDBRANCH  12  11
BRANCH  19  20
ATOM     20  C   UNL     1       0.683  -0.059  23.522  0.00  0.00    +0.081 C 
ATOM     21  C   UNL     1       0.476  -0.799  23.823  0.00  0.00    +0.010 C 
BRANCH  20  22
ATOM     22  C   UNL     1       1.272   0.003  22.949  0.00  0.00    +0.241 C 
ATOM     23  O   UNL     1       1.067   0.059  22.150  0.00  0.00    -0.273 OA
ATOM     24  N   UNL     1       2.067   0.009  23.171  0.00  0.00    -0.199 NA
BRANCH  24  25
ATOM     25  C   UNL     1       2.656   0.071  22.598  0.00  0.00    +0.160 C 
BRANCH  25  26
ATOM     26  C   UNL     1       3.448   0.130  22.823  0.00  0.00    +0.081 A 
ATOM     27  N   UNL     1       3.829  -0.515  23.167  0.00  0.00    -0.246 NA
ATOM     28  C   UNL     1       4.620  -0.456  23.392  0.00  0.00    +0.099 A 
ATOM     29  C   UNL     1       5.031   0.250  23.273  0.00  0.00    +0.021 A 
ATOM     30  C   UNL     1       4.649   0.896  22.929  0.00  0.00    +0.003 A 
ATOM     31  C   UNL     1       3.858   0.836  22.704  0.00  0.00    +0.017 A 
ENDBRANCH  25  26
ENDBRANCH  24  25
ENDBRANCH  20  22
ENDBRANCH  19  20
TORSDOF 7
ENDMDL
MODEL 3
REMARK VINA RESULT:     -11.3      2.785      5.041
REMARK  Name = 
REMARK  7 active torsions:
REMARK  status: ('A' for Active; 'I' for Inactive)
REMARK    1  A    between atoms: O_2  and  C_3
REMARK    2  A    between atoms: C_6  and  C_9
REMARK    3  A    between atoms: N_11  and  C_12
REMARK    4  A    between atoms: C_19  and  C_20
REMARK    5  A    between atoms: C_20  and  C_22
REMARK    6  A    between atoms: N_24  and  C_25
REMARK    7  A    between atoms: C_25  and  C_26
REMARK                            x       y       z     vdW  Elec       q    Type
REMARK                         _______ _______ _______ _____ _____    ______ ____
ROOT
ATOM     12  C   UNL     1      -0.671  -0.111  24.372  0.00  0.00    +0.096 C 
ATOM     13  C   UNL     1      -0.580  -0.664  24.979  0.00  0.00    +0.022 C 
ATOM     14  C   UNL     1      -1.240  -0.939  25.388  0.00  0.00    +0.002 C 
ATOM     15  C   UNL     1      -1.992  -0.662  25.193  0.00  0.00    +0.002 C 
ATOM     16  C   UNL     1      -1.901  -1.214  25.798  0.00  0.00    +0.000 C 
ATOM     17  C   UNL     1      -2.653  -0.937  25.602  0.00  0.00    +0.000 C 
ATOM     18  C   UNL     1      -3.405  -0.661  25.407  0.00  0.00    +0.003 C 
ATOM     19  C   UNL     1      -3.496  -0.108  24.800  0.00  0.00    +0.039 C 
ATOM     32  C   UNL     1      -2.836   0.167  24.390  0.00  0.00    +0.152 C 
ATOM     33  O   UNL     1      -2.927   0.720  23.785  0.00  0.00    -0.223 OA
ATOM     34  C   UNL     1      -2.083  -0.109  24.586  0.00  0.00    +0.032 C 
ATOM     35  C   UNL     1      -1.423   0.166  24.176  0.00  0.00    +0.022 C 
ATOM     36  C   UNL     1      -1.514   0.719  23.570  0.00  0.00    +0.002 C 
ENDROOT
BRANCH  12  11
ATOM      9  C   UNL     1       0.563  -0.367  23.698  0.00  0.00    +0.265 C 
ATOM     10  O   UNL     1       0.475  -1.175  23.843  0.00  0.00    -0.268 OA
ATOM     11  N   UNL     1      -0.010   0.165  23.962  0.00  0.00    -0.203 NA
BRANCH   9   6
ATOM      3  C   UNL     1       2.546   0.460  22.469  0.00  0.00    +0.139 A 
ATOM      4  C   UNL     1       2.352   0.781  23.204  0.00  0.00    +0.037 A 
ATOM      5  C   UNL     1       1.691   0.505  23.613  0.00  0.00    +0.008 A 
ATOM      6  C   UNL     1       1.224  -0.091  23.288  0.00  0.00    +0.055 A 
ATOM      7  C   UNL     1       1.417  -0.413  22.554  0.00  0.00    +0.008 A 
ATOM      8  C   UNL     1       2.078  -0.138  22.143  0.00  0.00    +0.037 A 
BRANCH   3   2
ATOM      1  C   UNL     1       3.943   0.753  22.428  0.00  0.00    +0.252 C 
ATOM      2  O   UNL     1       3.207   0.735  22.059  0.00  0.00    -0.471 OA
ENDBRANCH   3   2
ENDBRANCH   9   6
ENDBRANCH  12  11
BRANCH  19  20
ATOM     20  C   UNL     1      -4.249   0.169  24.605  0.00  0.00    +0.081 C 
ATOM     21  C   UNL     1      -4.579  -0.018  23.872  0.00  0.00    +0.010 C 
BRANCH  20  22
ATOM     22  C   UNL     1      -4.671   0.632  25.141  0.00  0.00    +0.241 C 
ATOM     23  O   UNL     1      -5.071   0.274  25.769  0.00  0.00    -0.273 OA
ATOM     24  N   UNL     1      -4.694   1.451  25.051  0.00  0.00    -0.199 NA
BRANCH  24  25
ATOM     25  C   UNL     1      -5.116   1.914  25.587  0.00  0.00    +0.160 C 
BRANCH  25  26
ATOM     26  C   UNL     1      -5.036   2.735  25.576  0.00  0.00    +0.081 A 
ATOM     27  N   UNL     1      -4.299   3.081  25.702  0.00  0.00    -0.246 NA
ATOM     28  C   UNL     1      -4.219   3.902  25.691  0.00  0.00    +0.099 A 
ATOM     29  C   UNL     1      -4.879   4.378  25.555  0.00  0.00    +0.021 A 
ATOM     30  C   UNL     1      -5.619   4.032  25.429  0.00  0.00    +0.003 A 
ATOM     31  C   UNL     1      -5.696   3.211  25.439  0.00  0.00    +0.017 A 
ENDBRANCH  25  26
ENDBRANCH  24  25
ENDBRANCH  20  22
ENDBRANCH  19  20
TORSDOF 7
ENDMDL
MODEL 4
REMARK VINA RESULT:     -11.1      3.244      5.601
REMARK  Name = 
REMARK  7 active torsions:
REMARK  status: ('A' for Active; 'I' for Inactive)
REMARK    1  A    between atoms: O_2  and  C_3
REMARK    2  A    between atoms: C_6  and  C_9
REMARK    3  A    between atoms: N_11  and  C_12
REMARK    4  A    between atoms: C_19  and  C_20
REMARK    5  A    between atoms: C_20  and  C_22
REMARK    6  A    between atoms: N_24  and  C_25
REMARK    7  A    between atoms: C_25  and  C_26
REMARK                            x       y       z     vdW  Elec       q    Type
REMARK                         _______ _______ _______ _____ _____    ______ ____
ROOT
ATOM     12  C   UNL     1       0.630   0.748  23.903  0.00  0.00    +0.096 C 
ATOM     13  C   UNL     1       0.205   0.056  23.750  0.00  0.00    +0.022 C 
ATOM     14  C   UNL     1      -0.610   0.038  23.874  0.00  0.00    +0.002 C 
ATOM     15  C   UNL     1      -1.000   0.709  24.151  0.00  0.00    +0.002 C 
ATOM     16  C   UNL     1      -1.424   0.020  23.999  0.00  0.00    +0.000 C 
ATOM     17  C   UNL     1      -1.816   0.691  24.276  0.00  0.00    +0.000 C 
ATOM     18  C   UNL     1      -2.206   1.362  24.553  0.00  0.00    +0.003 C 
ATOM     19  C   UNL     1      -1.780   2.054  24.706  0.00  0.00    +0.039 C 
ATOM     32  C   UNL     1      -0.966   2.072  24.581  0.00  0.00    +0.152 C 
ATOM     33  O   UNL     1      -0.541   2.763  24.734  0.00  0.00    -0.223 OA
ATOM     34  C   UNL     1      -0.575   1.400  24.304  0.00  0.00    +0.032 C 
ATOM     35  C   UNL     1       0.240   1.419  24.180  0.00  0.00    +0.022 C 
ATOM     36  C   UNL     1       0.665   2.109  24.333  0.00  0.00    +0.002 C 
ENDROOT
BRANCH  12  11
ATOM      9  C   UNL     1       1.783   0.310  23.179  0.00  0.00    +0.265 C 
ATOM     10  O   UNL     1       1.304  -0.165  22.702  0.00  0.00    -0.268 OA
ATOM     11  N   UNL     1       1.446   0.765  23.778  0.00  0.00    -0.203 NA
BRANCH   9   6
ATOM      3  C   UNL     1       4.229   0.364  22.806  0.00  0.00    +0.139 A 
ATOM      4  C   UNL     1       3.773   1.034  22.651  0.00  0.00    +0.037 A 
ATOM      5  C   UNL     1       2.957   1.015  22.776  0.00  0.00    +0.008 A 
ATOM      6  C   UNL     1       2.598   0.328  23.055  0.00  0.00    +0.055 A 
ATOM      7  C   UNL     1       3.054  -0.342  23.209  0.00  0.00    +0.008 A 
ATOM      8  C   UNL     1       3.869  -0.325  23.086  0.00  0.00    +0.037 A 
BRANCH   3   2
ATOM      1  C   UNL     1       5.555   0.079  23.254  0.00  0.00    +0.252 C 
ATOM      2  O   UNL     1       5.044   0.381  22.682  0.00  0.00    -0.471 OA
ENDBRANCH   3   2
ENDBRANCH   9   6
ENDBRANCH  12  11
BRANCH  19  20
ATOM     20  C   UNL     1      -2.172   2.725  24.983  0.00  0.00    +0.081 C 
ATOM     21  C   UNL     1      -1.828   3.187  25.574  0.00  0.00    +0.010 C 
BRANCH  20  22
ATOM     22  C   UNL     1      -2.905   2.935  24.669  0.00  0.00    +0.241 C 
ATOM     23  O   UNL     1      -2.947   3.315  23.937  0.00  0.00    -0.273 OA
ATOM     24  N   UNL     1      -3.596   2.767  25.087  0.00  0.00    -0.199 NA
BRANCH  24  25
ATOM     25  C   UNL     1      -4.329   2.976  24.773  0.00  0.00    +0.160 C 
BRANCH  25  26
ATOM     26  C   UNL     1      -5.022   2.678  25.108  0.00  0.00    +0.081 A 
ATOM     27  N   UNL     1      -5.291   2.970  25.830  0.00  0.00    -0.246 NA
ATOM     28  C   UNL     1      -5.984   2.672  26.165  0.00  0.00    +0.099 A 
ATOM     29  C   UNL     1      -6.408   2.082  25.775  0.00  0.00    +0.021 A 
ATOM     30  C   UNL     1      -6.140   1.790  25.051  0.00  0.00    +0.003 A 
ATOM     31  C   UNL     1      -5.447   2.088  24.718  0.00  0.00    +0.017 A 
ENDBRANCH  25  26
ENDBRANCH  24  25
ENDBRANCH  20  22
ENDBRANCH  19  20
TORSDOF 7
ENDMDL
MODEL 5
REMARK VINA RESULT:     -11.0      2.507      5.007
REMARK  Name = 
REMARK  7 active torsions:
REMARK  status: ('A' for Active; 'I' for Inactive)
REMARK    1  A    between atoms: O_2  and  C_3
REMARK    2  A    between atoms: C_6  and  C_9
REMARK    3  A    between atoms: N_11  and  C_12
REMARK    4  A    between atoms: C_19  and  C_20
REMARK    5  A    between atoms: C_20  and  C_22
REMARK    6  A    between atoms: N_24  and  C_25
REMARK    7  A    between atoms: C_25  and  C_26
REMARK                            x       y       z     vdW  Elec       q    Type
REMARK                         _______ _______ _______ _____ _____    ______ ____
ROOT
ATOM     12  C   UNL     1      -3.799   0.313  25.165  0.00  0.00    +0.096 C 
ATOM     13  C   UNL     1      -4.278  -0.337  24.995  0.00  0.00    +0.022 C 
ATOM     14  C   UNL     1      -3.937  -1.055  24.776  0.00  0.00    +0.002 C 
ATOM     15  C   UNL     1      -3.116  -1.123  24.727  0.00  0.00    +0.002 C 
ATOM     16  C   UNL     1      -3.595  -1.772  24.557  0.00  0.00    +0.000 C 
ATOM     17  C   UNL     1      -2.774  -1.841  24.508  0.00  0.00    +0.000 C 
ATOM     18  C   UNL     1      -1.954  -1.909  24.458  0.00  0.00    +0.003 C 
ATOM     19  C   UNL     1      -1.474  -1.258  24.629  0.00  0.00    +0.039 C 
ATOM     32  C   UNL     1      -1.816  -0.541  24.848  0.00  0.00    +0.152 C 
ATOM     33  O   UNL     1      -1.338   0.109  25.017  0.00  0.00    -0.223 OA
ATOM     34  C   UNL     1      -2.637  -0.472  24.897  0.00  0.00    +0.032 C 
ATOM     35  C   UNL     1      -2.979   0.245  25.116  0.00  0.00    +0.022 C 
ATOM     36  C   UNL     1      -2.500   0.895  25.286  0.00  0.00    +0.002 C 
ENDROOT
BRANCH  12  11
ATOM      9  C   UNL     1      -4.785   1.329  24.962  0.00  0.00    +0.265 C 
ATOM     10  O   UNL     1      -5.087   0.907  24.319  0.00  0.00    -0.268 OA
ATOM     11  N   UNL     1      -4.142   1.031  25.385  0.00  0.00    -0.203 NA
BRANCH   9   6
ATOM      3  C   UNL     1      -5.812   3.482  25.621  0.00  0.00    +0.139 A 
ATOM      4  C   UNL     1      -5.155   3.474  25.121  0.00  0.00    +0.037 A 
ATOM      5  C   UNL     1      -4.813   2.755  24.902  0.00  0.00    +0.008 A 
ATOM      6  C   UNL     1      -5.127   2.046  25.182  0.00  0.00    +0.055 A 
ATOM      7  C   UNL     1      -5.784   2.054  25.681  0.00  0.00    +0.008 A 
ATOM      8  C   UNL     1      -6.126   2.772  25.901  0.00  0.00    +0.037 A 
BRANCH   3   2
ATOM      1  C   UNL     1      -5.920   4.898  25.473  0.00  0.00    +0.252 C 
ATOM      2  O   UNL     1      -6.155   4.199  25.841  0.00  0.00    -0.471 OA
ENDBRANCH   3   2
ENDBRANCH   9   6
ENDBRANCH  12  11
BRANCH  19  20
ATOM     20  C   UNL     1      -0.654  -1.327  24.579  0.00  0.00    +0.081 C 
ATOM     21  C   UNL     1      -0.214  -1.506  25.254  0.00  0.00    +0.010 C 
BRANCH  20  22
ATOM     22  C   UNL     1      -0.273  -1.217  23.856  0.00  0.00    +0.241 C 
ATOM     23  O   UNL     1      -0.480  -1.681  23.205  0.00  0.00    -0.273 OA
ATOM     24  N   UNL     1       0.316  -0.643  23.782  0.00  0.00    -0.199 NA
BRANCH  24  25
ATOM     25  C   UNL     1       0.696  -0.533  23.060  0.00  0.00    +0.160 C 
BRANCH  25  26
ATOM     26  C   UNL     1       1.376  -0.066  23.017  0.00  0.00    +0.081 A 
ATOM     27  N   UNL     1       2.052  -0.353  22.643  0.00  0.00    -0.246 NA
ATOM     28  C   UNL     1       2.731   0.113  22.601  0.00  0.00    +0.099 A 
ATOM     29  C   UNL     1       2.733   0.869  22.933  0.00  0.00    +0.021 A 
ATOM     30  C   UNL     1       2.056   1.157  23.307  0.00  0.00    +0.003 A 
ATOM     31  C   UNL     1       1.378   0.689  23.349  0.00  0.00    +0.017 A 
ENDBRANCH  25  26
ENDBRANCH  24  25
ENDBRANCH  20  22
ENDBRANCH  19  20
TORSDOF 7
ENDMDL
MODEL 6
REMARK VINA RESULT:     -10.7      2.397      4.986
REMARK  Name = 
REMARK  7 active torsions:
REMARK  status: ('A' for Active; 'I' for Inactive)
REMARK    1  A    between atoms: O_2  and  C_3
REMARK    2  A    between atoms: C_6  and  C_9
REMARK    3  A    between atoms: N_11  and  C_12
REMARK    4  A    between atoms: C_19  and  C_20
REMARK    5  A    between atoms: C_20  and  C_22
REMARK    6  A    between atoms: N_24  and  C_25
REMARK    7  A    between atoms: C_25  and  C_26
REMARK                            x       y       z     vdW  Elec       q    Type
REMARK                         _______ _______ _______ _____ _____    ______ ____
ROOT
ATOM     12  C   UNL     1      -0.313   2.218  24.180  0.00  0.00    +0.096 C 
ATOM     13  C   UNL     1      -0.147   2.629  24.877  0.00  0.00    +0.022 C 
ATOM     14  C   UNL     1      -0.764   2.922  25.339  0.00  0.00    +0.002 C 
ATOM     15  C   UNL     1      -1.546   2.805  25.106  0.00  0.00    +0.002 C 
ATOM     16  C   UNL     1      -1.381   3.215  25.801  0.00  0.00    +0.000 C 
ATOM     17  C   UNL     1      -2.164   3.098  25.568  0.00  0.00    +0.000 C 
ATOM     18  C   UNL     1      -2.945   2.980  25.335  0.00  0.00    +0.003 C 
ATOM     19  C   UNL     1      -3.111   2.569  24.638  0.00  0.00    +0.039 C 
ATOM     32  C   UNL     1      -2.495   2.276  24.176  0.00  0.00    +0.152 C 
ATOM     33  O   UNL     1      -2.660   1.865  23.480  0.00  0.00    -0.223 OA
ATOM     34  C   UNL     1      -1.712   2.393  24.409  0.00  0.00    +0.032 C 
ATOM     35  C   UNL     1      -1.095   2.100  23.947  0.00  0.00    +0.022 C 
ATOM     36  C   UNL     1      -1.261   1.689  23.251  0.00  0.00    +0.002 C 
ENDROOT
BRANCH  12  11
ATOM      9  C   UNL     1       0.784   1.318  24.005  0.00  0.00    +0.265 C 
ATOM     10  O   UNL     1       0.646   1.003  24.756  0.00  0.00    -0.268 OA
ATOM     11  N   UNL     1       0.304   1.925  23.718  0.00  0.00    -0.203 NA
BRANCH   9   6
ATOM      3  C   UNL     1       2.636   0.440  22.617  0.00  0.00    +0.139 A 
ATOM      4  C   UNL     1       2.731   1.146  23.033  0.00  0.00    +0.037 A 
ATOM      5  C   UNL     1       2.113   1.439  23.495  0.00  0.00    +0.008 A 
ATOM      6  C   UNL     1       1.401   1.026  23.543  0.00  0.00    +0.055 A 
ATOM      7  C   UNL     1       1.306   0.319  23.127  0.00  0.00    +0.008 A 
ATOM      8  C   UNL     1       1.923   0.026  22.664  0.00  0.00    +0.037 A 
BRANCH   3   2
ATOM      1  C   UNL     1       4.018   0.434  22.257  0.00  0.00    +0.252 C 
ATOM      2  O   UNL     1       3.252   0.147  22.155  0.00  0.00    -0.471 OA
ENDBRANCH   3   2
ENDBRANCH   9   6
ENDBRANCH  12  11
BRANCH  19  20
ATOM     20  C   UNL     1      -3.894   2.451  24.405  0.00  0.00    +0.081 C 
ATOM     21  C   UNL     1      -4.233   2.943  23.837  0.00  0.00    +0.010 C 
BRANCH  20  22
ATOM     22  C   UNL     1      -4.338   1.842  24.741  0.00  0.00    +0.241 C 
ATOM     23  O   UNL     1      -4.938   2.018  25.280  0.00  0.00    -0.273 OA
ATOM     24  N   UNL     1      -4.183   1.058  24.537  0.00  0.00    -0.199 NA
BRANCH  24  25
ATOM     25  C   UNL     1      -4.626   0.449  24.872  0.00  0.00    +0.160 C 
BRANCH  25  26
ATOM     26  C   UNL     1      -4.371  -0.333  24.807  0.00  0.00    +0.081 A 
ATOM     27  N   UNL     1      -4.524  -0.761  24.119  0.00  0.00    -0.246 NA
ATOM     28  C   UNL     1      -4.268  -1.543  24.053  0.00  0.00    +0.099 A 
ATOM     29  C   UNL     1      -3.860  -1.897  24.676  0.00  0.00    +0.021 A 
ATOM     30  C   UNL     1      -3.706  -1.468  25.365  0.00  0.00    +0.003 A 
ATOM     31  C   UNL     1      -3.962  -0.687  25.430  0.00  0.00    +0.017 A 
ENDBRANCH  25  26
ENDBRANCH  24  25
ENDBRANCH  20  22
ENDBRANCH  19  20
TORSDOF 7
ENDMDL
MODEL 7
REMARK VINA RESULT:     -10.1      1.445      3.184
REMARK  Name = 
REMARK  7 active torsions:
REMARK  status: ('A' for Active; 'I' for Inactive)
REMARK    1  A    between atoms: O_2  and  C_3
REMARK    2  A    between atoms: C_6  and  C_9
REMARK    3  A    between atoms: N_11  and  C_12
REMARK    4  A    between atoms: C_19  and  C_20
REMARK    5  A    between atoms: C_20  and  C_22
REMARK    6  A    between atoms: N_24  and  C_25
REMARK    7  A    between atoms: C_25  and  C_26
REMARK                            x       y       z     vdW  Elec       q    Type
REMARK                         _______ _______ _______ _____ _____    ______ ____
ROOT
ATOM     12  C   UNL     1      -1.325   0.421  25.110  0.00  0.00    +0.096 C 
ATOM     13  C   UNL     1      -0.810   0.356  25.752  0.00  0.00    +0.022 C 
ATOM     14  C   UNL     1      -0.449   1.030  26.060  0.00  0.00    +0.002 C 
ATOM     15  C   UNL     1      -0.602   1.769  25.728  0.00  0.00    +0.002 C 
ATOM     16  C   UNL     1      -0.088   1.704  26.369  0.00  0.00    +0.000 C 
ATOM     17  C   UNL     1      -0.240   2.443  26.036  0.00  0.00    +0.000 C 
ATOM     18  C   UNL     1      -0.393   3.182  25.703  0.00  0.00    +0.003 C 
ATOM     19  C   UNL     1      -0.908   3.247  25.061  0.00  0.00    +0.039 C 
ATOM     32  C   UNL     1      -1.269   2.573  24.753  0.00  0.00    +0.152 C 
ATOM     33  O   UNL     1      -1.784   2.638  24.111  0.00  0.00    -0.223 OA
ATOM     34  C   UNL     1      -1.117   1.833  25.085  0.00  0.00    +0.032 C 
ATOM     35  C   UNL     1      -1.478   1.159  24.777  0.00  0.00    +0.022 C 
ATOM     36  C   UNL     1      -1.992   1.224  24.135  0.00  0.00    +0.002 C 
ENDROOT
BRANCH  12  11
ATOM      9  C   UNL     1      -2.068  -0.785  25.304  0.00  0.00    +0.265 C 
ATOM     10  O   UNL     1      -2.089  -0.641  26.117  0.00  0.00    -0.268 OA
ATOM     11  N   UNL     1      -1.686  -0.254  24.801  0.00  0.00    -0.203 NA
BRANCH   9   6
ATOM      3  C   UNL     1      -3.151  -2.809  24.378  0.00  0.00    +0.139 A 
ATOM      4  C   UNL     1      -2.328  -2.746  24.383  0.00  0.00    +0.037 A 
ATOM      5  C   UNL     1      -1.967  -2.071  24.692  0.00  0.00    +0.008 A 
ATOM      6  C   UNL     1      -2.429  -1.459  24.996  0.00  0.00    +0.055 A 
ATOM      7  C   UNL     1      -3.251  -1.522  24.991  0.00  0.00    +0.008 A 
ATOM      8  C   UNL     1      -3.613  -2.196  24.683  0.00  0.00    +0.037 A 
BRANCH   3   2
ATOM      1  C   UNL     1      -4.226  -3.419  23.663  0.00  0.00    +0.252 C 
ATOM      2  O   UNL     1      -3.512  -3.483  24.070  0.00  0.00    -0.471 OA
ENDBRANCH   3   2
ENDBRANCH   9   6
ENDBRANCH  12  11
BRANCH  19  20
ATOM     20  C   UNL     1      -1.061   3.986  24.728  0.00  0.00    +0.081 C 
ATOM     21  C   UNL     1      -0.602   4.258  24.099  0.00  0.00    +0.010 C 
BRANCH  20  22
ATOM     22  C   UNL     1      -1.673   4.454  25.024  0.00  0.00    +0.241 C 
ATOM     23  O   UNL     1      -1.507   5.200  25.337  0.00  0.00    -0.273 OA
ATOM     24  N   UNL     1      -2.450   4.177  25.008  0.00  0.00    -0.199 NA
BRANCH  24  25
ATOM     25  C   UNL     1      -3.061   4.644  25.303  0.00  0.00    +0.160 C 
BRANCH  25  26
ATOM     26  C   UNL     1      -3.813   4.322  25.410  0.00  0.00    +0.081 A 
ATOM     27  N   UNL     1      -4.343   4.294  24.779  0.00  0.00    -0.246 NA
ATOM     28  C   UNL     1      -5.096   3.972  24.885  0.00  0.00    +0.099 A 
ATOM     29  C   UNL     1      -5.317   3.678  25.624  0.00  0.00    +0.021 A 
ATOM     30  C   UNL     1      -4.786   3.706  26.256  0.00  0.00    +0.003 A 
ATOM     31  C   UNL     1      -4.035   4.029  26.148  0.00  0.00    +0.017 A 
ENDBRANCH  25  26
ENDBRANCH  24  25
ENDBRANCH  20  22
ENDBRANCH  19  20
TORSDOF 7
ENDMDL
