MODEL 1
REMARK VINA RESULT:     -11.7      0.000      0.000
REMARK  Name = 
REMARK  8 active torsions:
REMARK  status: ('A' for Active; 'I' for Inactive)
REMARK    1  A    between atoms: C_2  and  C_3
REMARK    2  A    between atoms: N_5  and  S_21
REMARK    3  A    between atoms: C_8  and  C_9
REMARK    4  A    between atoms: C_9  and  C_10
REMARK    5  A    between atoms: N_12  and  C_13
REMARK    6  A    between atoms: C_13  and  C_14
REMARK    7  A    between atoms: S_21  and  C_24
REMARK    8  A    between atoms: C_27  and  O_28
REMARK                            x       y       z     vdW  Elec       q    Type
REMARK                         _______ _______ _______ _____ _____    ______ ____
ROOT
ATOM      3  C   UNL     1      -5.018   1.840  24.998  0.00  0.00    +0.018 C 
ATOM      4  C   UNL     1      -4.923   1.029  24.889  0.00  0.00    +0.096 C 
ATOM      5  N   UNL     1      -4.166   0.703  24.856  0.00  0.00    -0.156 NA
ATOM      6  C   UNL     1      -3.503   1.189  24.932  0.00  0.00    +0.096 C 
ATOM      7  C   UNL     1      -3.599   2.002  25.042  0.00  0.00    +0.020 C 
ATOM      8  C   UNL     1      -4.356   2.327  25.075  0.00  0.00    +0.012 C 
ENDROOT
BRANCH   5  21
ATOM     21  S   UNL     1      -4.070  -0.109  24.746  0.00  0.00    +0.063 S 
ATOM     22  O   UNL     1      -4.215  -0.235  25.548  0.00  0.00    -0.153 OA
ATOM     23  O   UNL     1      -3.924   0.017  23.943  0.00  0.00    -0.153 OA
BRANCH  21  24
ATOM     24  C   UNL     1      -3.973  -0.921  24.635  0.00  0.00    +0.122 A 
ATOM     25  C   UNL     1      -3.570  -1.369  25.197  0.00  0.00    +0.023 A 
ATOM     26  C   UNL     1      -3.474  -2.181  25.087  0.00  0.00    +0.038 A 
ATOM     27  C   UNL     1      -3.782  -2.545  24.413  0.00  0.00    +0.139 A 
ATOM     30  C   UNL     1      -4.185  -2.096  23.850  0.00  0.00    +0.038 A 
ATOM     31  C   UNL     1      -4.281  -1.284  23.962  0.00  0.00    +0.023 A 
BRANCH  27  28
ATOM     28  O   UNL     1      -3.686  -3.356  24.301  0.00  0.00    -0.471 OA
ATOM     29  C   UNL     1      -2.967  -3.652  24.024  0.00  0.00    +0.252 C 
ENDBRANCH  27  28
ENDBRANCH  21  24
ENDBRANCH   5  21
BRANCH   3   2
ATOM      1  C   UNL     1      -6.438   1.679  24.953  0.00  0.00    +0.000 C 
ATOM      2  C   UNL     1      -5.776   2.166  25.031  0.00  0.00    +0.001 C 
ENDBRANCH   3   2
BRANCH   8   9
ATOM      9  C   UNL     1      -4.451   3.140  25.184  0.00  0.00    +0.087 C 
BRANCH   9  10
ATOM     10  C   UNL     1      -3.915   3.559  25.649  0.00  0.00    +0.242 C 
ATOM     11  O   UNL     1      -4.030   3.615  26.464  0.00  0.00    -0.273 OA
ATOM     12  N   UNL     1      -3.262   3.923  25.299  0.00  0.00    -0.201 NA
BRANCH  12  13
ATOM     13  C   UNL     1      -2.725   4.343  25.764  0.00  0.00    +0.141 C 
BRANCH  13  14
ATOM     14  C   UNL     1      -2.029   4.633  25.431  0.00  0.00    -0.000 A 
ATOM     15  C   UNL     1      -1.371   4.141  25.354  0.00  0.00    -0.000 A 
ATOM     16  C   UNL     1      -0.676   4.431  25.020  0.00  0.00    +0.029 A 
ATOM     17  C   UNL     1      -0.636   5.215  24.763  0.00  0.00    +0.140 A 
ATOM     18  F   UNL     1       0.060   5.505  24.430  0.00  0.00    -0.204 F 
ATOM     19  C   UNL     1      -1.293   5.707  24.840  0.00  0.00    +0.029 A 
ATOM     20  C   UNL     1      -1.990   5.417  25.174  0.00  0.00    -0.000 A 
ENDBRANCH  13  14
ENDBRANCH  12  13
ENDBRANCH   9  10
ENDBRANCH   8   9
TORSDOF 8
ENDMDL
MODEL 2
REMARK VINA RESULT:     -10.7      3.099      6.558
REMARK  Name = 
REMARK  8 active torsions:
REMARK  status: ('A' for Active; 'I' for Inactive)
REMARK    1  A    between atoms: C_2  and  C_3
REMARK    2  A    between atoms: N_5  and  S_21
REMARK    3  A    between atoms: C_8  and  C_9
REMARK    4  A    between atoms: C_9  and  C_10
REMARK    5  A    between atoms: N_12  and  C_13
REMARK    6  A    between atoms: C_13  and  C_14
REMARK    7  A    between atoms: S_21  and  C_24
REMARK    8  A    between atoms: C_27  and  O_28
REMARK                            x       y       z     vdW  Elec       q    Type
REMARK                         _______ _______ _______ _____ _____    ______ ____
ROOT
ATOM      3  C   UNL     1      -0.246   0.496  24.189  0.00  0.00    +0.018 C 
ATOM      4  C   UNL     1      -0.350   1.312  24.230  0.00  0.00    +0.096 C 
ATOM      5  N   UNL     1      -0.727   1.647  24.883  0.00  0.00    -0.156 NA
ATOM      6  C   UNL     1      -1.001   1.165  25.494  0.00  0.00    +0.096 C 
ATOM      7  C   UNL     1      -0.896   0.347  25.452  0.00  0.00    +0.020 C 
ATOM      8  C   UNL     1      -0.519   0.012  24.799  0.00  0.00    +0.012 C 
ENDROOT
BRANCH   5  21
ATOM     21  S   UNL     1      -0.832   2.464  24.926  0.00  0.00    +0.063 S 
ATOM     22  O   UNL     1      -0.176   2.523  25.422  0.00  0.00    -0.153 OA
ATOM     23  O   UNL     1      -1.489   2.406  24.429  0.00  0.00    -0.153 OA
BRANCH  21  24
ATOM     24  C   UNL     1      -0.937   3.282  24.968  0.00  0.00    +0.122 A 
ATOM     25  C   UNL     1      -0.392   3.787  24.612  0.00  0.00    +0.023 A 
ATOM     26  C   UNL     1      -0.497   4.604  24.654  0.00  0.00    +0.038 A 
ATOM     27  C   UNL     1      -1.149   4.916  25.052  0.00  0.00    +0.139 A 
ATOM     30  C   UNL     1      -1.696   4.410  25.409  0.00  0.00    +0.038 A 
ATOM     31  C   UNL     1      -1.589   3.593  25.366  0.00  0.00    +0.023 A 
BRANCH  27  28
ATOM     28  O   UNL     1      -1.256   5.733  25.095  0.00  0.00    -0.471 OA
ATOM     29  C   UNL     1      -2.017   6.052  25.052  0.00  0.00    +0.252 C 
ENDBRANCH  27  28
ENDBRANCH  21  24
ENDBRANCH   5  21
BRANCH   3   2
ATOM      1  C   UNL     1       0.805   0.519  23.219  0.00  0.00    +0.000 C 
ATOM      2  C   UNL     1       0.132   0.161  23.535  0.00  0.00    +0.001 C 
ENDBRANCH   3   2
BRANCH   8   9
ATOM      9  C   UNL     1      -0.415  -0.805  24.758  0.00  0.00    +0.087 C 
BRANCH   9  10
ATOM     10  C   UNL     1      -0.970  -1.310  25.099  0.00  0.00    +0.242 C 
ATOM     11  O   UNL     1      -0.855  -1.591  25.866  0.00  0.00    -0.273 OA
ATOM     12  N   UNL     1      -1.640  -1.534  24.674  0.00  0.00    -0.201 NA
BRANCH  12  13
ATOM     13  C   UNL     1      -2.196  -2.039  25.016  0.00  0.00    +0.141 C 
BRANCH  13  14
ATOM     14  C   UNL     1      -2.915  -2.179  24.637  0.00  0.00    -0.000 A 
ATOM     15  C   UNL     1      -3.462  -1.567  24.551  0.00  0.00    -0.000 A 
ATOM     16  C   UNL     1      -4.181  -1.707  24.172  0.00  0.00    +0.029 A 
ATOM     17  C   UNL     1      -4.354  -2.459  23.878  0.00  0.00    +0.140 A 
ATOM     18  F   UNL     1      -5.073  -2.598  23.499  0.00  0.00    -0.204 F 
ATOM     19  C   UNL     1      -3.807  -3.070  23.964  0.00  0.00    +0.029 A 
ATOM     20  C   UNL     1      -3.088  -2.931  24.343  0.00  0.00    -0.000 A 
ENDBRANCH  13  14
ENDBRANCH  12  13
ENDBRANCH   9  10
ENDBRANCH   8   9
TORSDOF 8
ENDMDL
MODEL 3
REMARK VINA RESULT:     -10.2      4.186      5.666
REMARK  Name = 
REMARK  8 active torsions:
REMARK  status: ('A' for Active; 'I' for Inactive)
REMARK    1  A    between atoms: C_2  and  C_3
REMARK    2  A    between atoms: N_5  and  S_21
REMARK    3  A    between atoms: C_8  and  C_9
REMARK    4  A    between atoms: C_9  and  C_10
REMARK    5  A    between atoms: N_12  and  C_13
REMARK    6  A    between atoms: C_13  and  C_14
REMARK    7  A    between atoms: S_21  and  C_24
REMARK    8  A    between atoms: C_27  and  O_28
REMARK                            x       y       z     vdW  Elec       q    Type
REMARK                         _______ _______ _______ _____ _____    ______ ____
ROOT
ATOM      3  C   UNL     1      -0.781  -0.248  24.422  0.00  0.00    +0.018 C 
ATOM      4  C   UNL     1      -1.450   0.204  24.587  0.00  0.00    +0.096 C 
ATOM      5  N   UNL     1      -1.555   0.934  24.217  0.00  0.00    -0.156 NA
ATOM      6  C   UNL     1      -0.991   1.212  23.683  0.00  0.00    +0.096 C 
ATOM      7  C   UNL     1      -0.321   0.758  23.518  0.00  0.00    +0.020 C 
ATOM      8  C   UNL     1      -0.216   0.028  23.887  0.00  0.00    +0.012 C 
ENDROOT
BRANCH   5  21
ATOM     21  S   UNL     1      -2.224   1.388  24.382  0.00  0.00    +0.063 S 
ATOM     22  O   UNL     1      -2.545   1.180  23.651  0.00  0.00    -0.153 OA
ATOM     23  O   UNL     1      -1.902   1.597  25.113  0.00  0.00    -0.153 OA
BRANCH  21  24
ATOM     24  C   UNL     1      -2.892   1.842  24.547  0.00  0.00    +0.122 A 
ATOM     25  C   UNL     1      -2.809   2.612  24.831  0.00  0.00    +0.023 A 
ATOM     26  C   UNL     1      -3.477   3.066  24.997  0.00  0.00    +0.038 A 
ATOM     27  C   UNL     1      -4.230   2.750  24.878  0.00  0.00    +0.139 A 
ATOM     30  C   UNL     1      -4.314   1.979  24.594  0.00  0.00    +0.038 A 
ATOM     31  C   UNL     1      -3.645   1.526  24.429  0.00  0.00    +0.023 A 
BRANCH  27  28
ATOM     28  O   UNL     1      -4.899   3.203  25.044  0.00  0.00    -0.471 OA
ATOM     29  C   UNL     1      -5.357   3.034  25.710  0.00  0.00    +0.252 C 
ENDBRANCH  27  28
ENDBRANCH  21  24
ENDBRANCH   5  21
BRANCH   3   2
ATOM      1  C   UNL     1      -1.332  -1.439  24.990  0.00  0.00    +0.000 C 
ATOM      2  C   UNL     1      -0.676  -0.979  24.792  0.00  0.00    +0.001 C 
ENDBRANCH   3   2
BRANCH   8   9
ATOM      9  C   UNL     1       0.454  -0.425  23.722  0.00  0.00    +0.087 C 
BRANCH   9  10
ATOM     10  C   UNL     1       0.961  -0.204  23.111  0.00  0.00    +0.242 C 
ATOM     11  O   UNL     1       0.667  -0.104  22.346  0.00  0.00    -0.273 OA
ATOM     12  N   UNL     1       1.762  -0.083  23.264  0.00  0.00    -0.201 NA
BRANCH  12  13
ATOM     13  C   UNL     1       2.271   0.139  22.653  0.00  0.00    +0.141 C 
BRANCH  13  14
ATOM     14  C   UNL     1       3.075   0.242  22.802  0.00  0.00    -0.000 A 
ATOM     15  C   UNL     1       3.522  -0.381  23.106  0.00  0.00    -0.000 A 
ATOM     16  C   UNL     1       4.326  -0.278  23.255  0.00  0.00    +0.029 A 
ATOM     17  C   UNL     1       4.685   0.449  23.099  0.00  0.00    +0.140 A 
ATOM     18  F   UNL     1       5.490   0.552  23.249  0.00  0.00    -0.204 F 
ATOM     19  C   UNL     1       4.238   1.072  22.795  0.00  0.00    +0.029 A 
ATOM     20  C   UNL     1       3.433   0.969  22.646  0.00  0.00    -0.000 A 
ENDBRANCH  13  14
ENDBRANCH  12  13
ENDBRANCH   9  10
ENDBRANCH   8   9
TORSDOF 8
ENDMDL
MODEL 4
REMARK VINA RESULT:     -10.2      3.722      5.158
REMARK  Name = 
REMARK  8 active torsions:
REMARK  status: ('A' for Active; 'I' for Inactive)
REMARK    1  A    between atoms: C_2  and  C_3
REMARK    2  A    between atoms: N_5  and  S_21
REMARK    3  A    between atoms: C_8  and  C_9
REMARK    4  A    between atoms: C_9  and  C_10
REMARK    5  A    between atoms: N_12  and  C_13
REMARK    6  A    between atoms: C_13  and  C_14
REMARK    7  A    between atoms: S_21  and  C_24
REMARK    8  A    between atoms: C_27  and  O_28
REMARK                            x       y       z     vdW  Elec       q    Type
REMARK                         _______ _______ _______ _____ _____    ______ ____
ROOT
ATOM      3  C   UNL     1      -1.286  -0.269  24.920  0.00  0.00    +0.018 C 
ATOM      4  C   UNL     1      -0.532  -0.223  24.588  0.00  0.00    +0.096 C 
ATOM      5  N   UNL     1      -0.399   0.261  23.933  0.00  0.00    -0.156 NA
ATOM      6  C   UNL     1      -1.018   0.699  23.610  0.00  0.00    +0.096 C 
ATOM      7  C   UNL     1      -1.773   0.653  23.943  0.00  0.00    +0.020 C 
ATOM      8  C   UNL     1      -1.906   0.169  24.597  0.00  0.00    +0.012 C 
ENDROOT
BRANCH   5  21
ATOM     21  S   UNL     1       0.355   0.307  23.601  0.00  0.00    +0.063 S 
ATOM     22  O   UNL     1       0.227  -0.408  23.210  0.00  0.00    -0.153 OA
ATOM     23  O   UNL     1       0.483   1.023  23.992  0.00  0.00    -0.153 OA
BRANCH  21  24
ATOM     24  C   UNL     1       1.109   0.354  23.269  0.00  0.00    +0.122 A 
ATOM     25  C   UNL     1       1.636   0.934  23.523  0.00  0.00    +0.023 A 
ATOM     26  C   UNL     1       2.390   0.982  23.191  0.00  0.00    +0.038 A 
ATOM     27  C   UNL     1       2.616   0.448  22.604  0.00  0.00    +0.139 A 
ATOM     30  C   UNL     1       2.088  -0.133  22.349  0.00  0.00    +0.038 A 
ATOM     31  C   UNL     1       1.335  -0.179  22.682  0.00  0.00    +0.023 A 
BRANCH  27  28
ATOM     28  O   UNL     1       3.370   0.494  22.272  0.00  0.00    -0.471 OA
ATOM     29  C   UNL     1       4.016   0.700  22.742  0.00  0.00    +0.252 C 
ENDBRANCH  27  28
ENDBRANCH  21  24
ENDBRANCH   5  21
BRANCH   3   2
ATOM      1  C   UNL     1      -0.913  -1.386  25.730  0.00  0.00    +0.000 C 
ATOM      2  C   UNL     1      -1.420  -0.753  25.575  0.00  0.00    +0.001 C 
ENDBRANCH   3   2
BRANCH   8   9
ATOM      9  C   UNL     1      -2.661   0.124  24.929  0.00  0.00    +0.087 C 
BRANCH   9  10
ATOM     10  C   UNL     1      -3.303   0.468  24.543  0.00  0.00    +0.242 C 
ATOM     11  O   UNL     1      -3.554   0.170  23.816  0.00  0.00    -0.273 OA
ATOM     12  N   UNL     1      -3.694   1.109  24.883  0.00  0.00    -0.201 NA
BRANCH  12  13
ATOM     13  C   UNL     1      -4.337   1.453  24.497  0.00  0.00    +0.141 C 
BRANCH  13  14
ATOM     14  C   UNL     1      -4.717   2.105  24.829  0.00  0.00    -0.000 A 
ATOM     15  C   UNL     1      -4.404   2.862  24.725  0.00  0.00    -0.000 A 
ATOM     16  C   UNL     1      -4.784   3.514  25.056  0.00  0.00    +0.029 A 
ATOM     17  C   UNL     1      -5.478   3.411  25.493  0.00  0.00    +0.140 A 
ATOM     18  F   UNL     1      -5.857   4.064  25.824  0.00  0.00    -0.204 F 
ATOM     19  C   UNL     1      -5.790   2.655  25.597  0.00  0.00    +0.029 A 
ATOM     20  C   UNL     1      -5.410   2.002  25.265  0.00  0.00    -0.000 A 
ENDBRANCH  13  14
ENDBRANCH  12  13
ENDBRANCH   9  10
ENDBRANCH   8   9
TORSDOF 8
ENDMDL
MODEL 5
REMARK VINA RESULT:      -9.9      2.261      3.077
REMARK  Name = 
REMARK  8 active torsions:
REMARK  status: ('A' for Active; 'I' for Inactive)
REMARK    1  A    between atoms: C_2  and  C_3
REMARK    2  A    between atoms: N_5  and  S_21
REMARK    3  A    between atoms: C_8  and  C_9
REMARK    4  A    between atoms: C_9  and  C_10
REMARK    5  A    between atoms: N_12  and  C_13
REMARK    6  A    between atoms: C_13  and  C_14
REMARK    7  A    between atoms: S_21  and  C_24
REMARK    8  A    between atoms: C_27  and  O_28
REMARK                            x       y       z     vdW  Elec       q    Type
REMARK                         _______ _______ _______ _____ _____    ______ ____
ROOT
ATOM      3  C   UNL     1      -0.382   0.531  24.268  0.00  0.00    +0.018 C 
ATOM      4  C   UNL     1      -0.926  -0.079  24.166  0.00  0.00    +0.096 C 
ATOM      5  N   UNL     1      -1.482  -0.239  24.754  0.00  0.00    -0.156 NA
ATOM      6  C   UNL     1      -1.494   0.213  25.445  0.00  0.00    +0.096 C 
ATOM      7  C   UNL     1      -0.948   0.824  25.546  0.00  0.00    +0.020 C 
ATOM      8  C   UNL     1      -0.392   0.983  24.958  0.00  0.00    +0.012 C 
ENDROOT
BRANCH   5  21
ATOM     21  S   UNL     1      -2.028  -0.849  24.653  0.00  0.00    +0.063 S 
ATOM     22  O   UNL     1      -1.515  -1.371  25.034  0.00  0.00    -0.153 OA
ATOM     23  O   UNL     1      -2.541  -0.327  24.271  0.00  0.00    -0.153 OA
BRANCH  21  24
ATOM     24  C   UNL     1      -2.574  -1.459  24.551  0.00  0.00    +0.122 A 
ATOM     25  C   UNL     1      -3.355  -1.285  24.354  0.00  0.00    +0.023 A 
ATOM     26  C   UNL     1      -3.901  -1.895  24.252  0.00  0.00    +0.038 A 
ATOM     27  C   UNL     1      -3.665  -2.680  24.348  0.00  0.00    +0.139 A 
ATOM     30  C   UNL     1      -2.883  -2.855  24.545  0.00  0.00    +0.038 A 
ATOM     31  C   UNL     1      -2.338  -2.244  24.647  0.00  0.00    +0.023 A 
BRANCH  27  28
ATOM     28  O   UNL     1      -4.210  -3.291  24.246  0.00  0.00    -0.471 OA
ATOM     29  C   UNL     1      -4.640  -3.347  23.544  0.00  0.00    +0.252 C 
ENDBRANCH  27  28
ENDBRANCH  21  24
ENDBRANCH   5  21
BRANCH   3   2
ATOM      1  C   UNL     1       0.521   0.069  23.260  0.00  0.00    +0.000 C 
ATOM      2  C   UNL     1       0.175   0.691  23.679  0.00  0.00    +0.001 C 
ENDBRANCH   3   2
BRANCH   8   9
ATOM      9  C   UNL     1       0.153   1.595  25.060  0.00  0.00    +0.087 C 
BRANCH   9  10
ATOM     10  C   UNL     1      -0.024   2.226  25.560  0.00  0.00    +0.242 C 
ATOM     11  O   UNL     1       0.164   2.182  26.362  0.00  0.00    -0.273 OA
ATOM     12  N   UNL     1      -0.389   2.901  25.259  0.00  0.00    -0.201 NA
BRANCH  12  13
ATOM     13  C   UNL     1      -0.566   3.533  25.759  0.00  0.00    +0.141 C 
BRANCH  13  14
ATOM     14  C   UNL     1      -0.960   4.195  25.464  0.00  0.00    -0.000 A 
ATOM     15  C   UNL     1      -0.557   4.741  24.995  0.00  0.00    -0.000 A 
ATOM     16  C   UNL     1      -0.951   5.402  24.701  0.00  0.00    +0.029 A 
ATOM     17  C   UNL     1      -1.750   5.519  24.875  0.00  0.00    +0.140 A 
ATOM     18  F   UNL     1      -2.144   6.181  24.580  0.00  0.00    -0.204 F 
ATOM     19  C   UNL     1      -2.153   4.973  25.344  0.00  0.00    +0.029 A 
ATOM     20  C   UNL     1      -1.759   4.311  25.639  0.00  0.00    -0.000 A 
ENDBRANCH  13  14
ENDBRANCH  12  13
ENDBRANCH   9  10
ENDBRANCH   8   9
TORSDOF 8
ENDMDL
MODEL 6
REMARK VINA RESULT:      -9.5      3.591      4.974
REMARK  Name = 
REMARK  8 active torsions:
REMARK  status: ('A' for Active; 'I' for Inactive)
REMARK    1  A    between atoms: C_2  and  C_3
REMARK    2  A    between atoms: N_5  and  S_21
REMARK    3  A    between atoms: C_8  and  C_9
REMARK    4  A    between atoms: C_9  and  C_10
REMARK    5  A    between atoms: N_12  and  C_13
REMARK    6  A    between atoms: C_13  and  C_14
REMARK    7  A    between atoms: S_21  and  C_24
REMARK    8  A    between atoms: C_27  and  O_28
REMARK                            x       y       z     vdW  Elec       q    Type
REMARK                         _______ _______ _______ _____ _____    ______ ____
ROOT
ATOM      3  C   UNL     1      -0.662   2.568  25.693  0.00  0.00    +0.018 C 
ATOM      4  C   UNL     1      -0.134   2.090  25.278  0.00  0.00    +0.096 C 
ATOM      5  N   UNL     1      -0.195   2.026  24.457  0.00  0.00    -0.156 NA
ATOM      6  C   UNL     1      -0.782   2.440  24.053  0.00  0.00    +0.096 C 
ATOM      7  C   UNL     1      -1.310   2.919  24.469  0.00  0.00    +0.020 C 
ATOM      8  C   UNL     1      -1.250   2.983  25.290  0.00  0.00    +0.012 C 
ENDROOT
BRANCH   5  21
ATOM     21  S   UNL     1       0.333   1.547  24.041  0.00  0.00    +0.063 S 
ATOM     22  O   UNL     1      -0.236   0.951  24.004  0.00  0.00    -0.153 OA
ATOM     23  O   UNL     1       0.902   2.144  24.077  0.00  0.00    -0.153 OA
BRANCH  21  24
ATOM     24  C   UNL     1       0.861   1.070  23.624  0.00  0.00    +0.122 A 
ATOM     25  C   UNL     1       1.649   1.298  23.544  0.00  0.00    +0.023 A 
ATOM     26  C   UNL     1       2.177   0.820  23.127  0.00  0.00    +0.038 A 
ATOM     27  C   UNL     1       1.917   0.114  22.790  0.00  0.00    +0.139 A 
ATOM     30  C   UNL     1       1.127  -0.115  22.870  0.00  0.00    +0.038 A 
ATOM     31  C   UNL     1       0.600   0.363  23.287  0.00  0.00    +0.023 A 
BRANCH  27  28
ATOM     28  O   UNL     1       2.444  -0.364  22.373  0.00  0.00    -0.471 OA
ATOM     29  C   UNL     1       3.119  -0.033  22.032  0.00  0.00    +0.252 C 
ENDBRANCH  27  28
ENDBRANCH  21  24
ENDBRANCH   5  21
BRANCH   3   2
ATOM      1  C   UNL     1       0.110   2.449  26.891  0.00  0.00    +0.000 C 
ATOM      2  C   UNL     1      -0.601   2.632  26.515  0.00  0.00    +0.001 C 
ENDBRANCH   3   2
BRANCH   8   9
ATOM      9  C   UNL     1      -1.778   3.462  25.705  0.00  0.00    +0.087 C 
BRANCH   9  10
ATOM     10  C   UNL     1      -2.480   3.707  25.350  0.00  0.00    +0.242 C 
ATOM     11  O   UNL     1      -2.484   4.371  24.860  0.00  0.00    -0.273 OA
ATOM     12  N   UNL     1      -3.178   3.291  25.485  0.00  0.00    -0.201 NA
BRANCH  12  13
ATOM     13  C   UNL     1      -3.881   3.536  25.129  0.00  0.00    +0.141 C 
BRANCH  13  14
ATOM     14  C   UNL     1      -4.559   3.070  25.188  0.00  0.00    -0.000 A 
ATOM     15  C   UNL     1      -5.081   3.176  25.818  0.00  0.00    -0.000 A 
ATOM     16  C   UNL     1      -5.758   2.710  25.876  0.00  0.00    +0.029 A 
ATOM     17  C   UNL     1      -5.914   2.135  25.304  0.00  0.00    +0.140 A 
ATOM     18  F   UNL     1      -6.592   1.669  25.363  0.00  0.00    -0.204 F 
ATOM     19  C   UNL     1      -5.393   2.029  24.674  0.00  0.00    +0.029 A 
ATOM     20  C   UNL     1      -4.715   2.495  24.615  0.00  0.00    -0.000 A 
ENDBRANCH  13  14
ENDBRANCH  12  13
ENDBRANCH   9  10
ENDBRANCH   8   9
TORSDOF 8
ENDMDL
MODEL 7
REMARK VINA RESULT:      -9.2      2.154      5.864
REMARK  Name = 
REMARK  8 active torsions:
REMARK  status: ('A' for Active; 'I' for Inactive)
REMARK    1  A    between atoms: C_2  and  C_3
REMARK    2  A    between atoms: N_5  and  S_21
REMARK    3  A    between atoms: C_8  and  C_9
REMARK    4  A    between atoms: C_9  and  C_10
REMARK    5  A    between atoms: N_12  and  C_13
REMARK    6  A    between atoms: C_13  and  C_14
REMARK    7  A    between atoms: S_21  and  C_24
REMARK    8  A    between atoms: C_27  and  O_28
REMARK                            x       y       z     vdW  Elec       q    Type
REMARK                         _______ _______ _______ _____ _____    ______ ____
ROOT
ATOM      3  C   UNL     1      -4.485   1.800  24.927  0.00  0.00    +0.018 C 
ATOM      4  C   UNL     1      -4.015   2.477  24.951  0.00  0.00    +0.096 C 
ATOM      5  N   UNL     1      -3.193   2.407  24.967  0.00  0.00    -0.156 NA
ATOM      6  C   UNL     1      -2.842   1.661  24.959  0.00  0.00    +0.096 C 
ATOM      7  C   UNL     1      -3.313   0.984  24.935  0.00  0.00    +0.020 C 
ATOM      8  C   UNL     1      -4.135   1.053  24.919  0.00  0.00    +0.012 C 
ENDROOT
BRANCH   5  21
ATOM     21  S   UNL     1      -2.722   3.084  24.991  0.00  0.00    +0.063 S 
ATOM     22  O   UNL     1      -2.641   3.000  25.808  0.00  0.00    -0.153 OA
ATOM     23  O   UNL     1      -2.802   3.169  24.174  0.00  0.00    -0.153 OA
BRANCH  21  24
ATOM     24  C   UNL     1      -2.250   3.761  25.014  0.00  0.00    +0.122 A 
ATOM     25  C   UNL     1      -2.590   4.495  25.171  0.00  0.00    +0.023 A 
ATOM     26  C   UNL     1      -2.118   5.172  25.194  0.00  0.00    +0.038 A 
ATOM     27  C   UNL     1      -1.306   5.113  25.060  0.00  0.00    +0.139 A 
ATOM     30  C   UNL     1      -0.966   4.378  24.903  0.00  0.00    +0.038 A 
ATOM     31  C   UNL     1      -1.438   3.702  24.880  0.00  0.00    +0.023 A 
BRANCH  27  28
ATOM     28  O   UNL     1      -0.834   5.789  25.083  0.00  0.00    -0.471 OA
ATOM     29  C   UNL     1      -0.280   5.925  24.485  0.00  0.00    +0.252 C 
ENDBRANCH  27  28
ENDBRANCH  21  24
ENDBRANCH   5  21
BRANCH   3   2
ATOM      1  C   UNL     1      -5.670   2.549  25.210  0.00  0.00    +0.000 C 
ATOM      2  C   UNL     1      -5.308   1.870  24.911  0.00  0.00    +0.001 C 
ENDBRANCH   3   2
BRANCH   8   9
ATOM      9  C   UNL     1      -4.605   0.376  24.894  0.00  0.00    +0.087 C 
BRANCH   9  10
ATOM     10  C   UNL     1      -4.349  -0.318  25.257  0.00  0.00    +0.242 C 
ATOM     11  O   UNL     1      -4.393  -0.395  26.078  0.00  0.00    -0.273 OA
ATOM     12  N   UNL     1      -4.048  -0.936  24.801  0.00  0.00    -0.201 NA
BRANCH  12  13
ATOM     13  C   UNL     1      -3.791  -1.631  25.164  0.00  0.00    +0.141 C 
BRANCH  13  14
ATOM     14  C   UNL     1      -3.289  -2.146  24.761  0.00  0.00    -0.000 A 
ATOM     15  C   UNL     1      -3.602  -2.715  24.252  0.00  0.00    -0.000 A 
ATOM     16  C   UNL     1      -3.100  -3.229  23.849  0.00  0.00    +0.029 A 
ATOM     17  C   UNL     1      -2.283  -3.176  23.955  0.00  0.00    +0.140 A 
ATOM     18  F   UNL     1      -1.781  -3.692  23.552  0.00  0.00    -0.204 F 
ATOM     19  C   UNL     1      -1.969  -2.608  24.464  0.00  0.00    +0.029 A 
ATOM     20  C   UNL     1      -2.472  -2.092  24.867  0.00  0.00    -0.000 A 
ENDBRANCH  13  14
ENDBRANCH  12  13
ENDBRANCH   9  10
ENDBRANCH   8   9
TORSDOF 8
ENDMDL
MODEL 8
REMARK VINA RESULT:      -9.0      4.081      6.021
REMARK  Name = 
REMARK  8 active torsions:
REMARK  status: ('A' for Active; 'I' for Inactive)
REMARK    1  A    between atoms: C_2  and  C_3
REMARK    2  A    between atoms: N_5  and  S_21
REMARK    3  A    between atoms: C_8  and  C_9
REMARK    4  A    between atoms: C_9  and  C_10
REMARK    5  A    between atoms: N_12  and  C_13
REMARK    6  A    between atoms: C_13  and  C_14
REMARK    7  A    between atoms: S_21  and  C_24
REMARK    8  A    between atoms: C_27  and  O_28
REMARK                            x       y       z     vdW  Elec       q    Type
REMARK                         _______ _______ _______ _____ _____    ______ ____
ROOT
ATOM      3  C   UNL     1      -0.840   1.393  25.027  0.00  0.00    +0.018 C 
ATOM      4  C   UNL     1      -0.094   1.253  24.705  0.00  0.00    +0.096 C 
ATOM      5  N   UNL     1      -0.023   1.017  23.918  0.00  0.00    -0.156 NA
ATOM      6  C   UNL     1      -0.698   0.921  23.453  0.00  0.00    +0.096 C 
ATOM      7  C   UNL     1      -1.444   1.062  23.776  0.00  0.00    +0.020 C 
ATOM      8  C   UNL     1      -1.516   1.298  24.563  0.00  0.00    +0.012 C 
ENDROOT
BRANCH   5  21
ATOM     21  S   UNL     1       0.723   0.876  23.595  0.00  0.00    +0.063 S 
ATOM     22  O   UNL     1       0.900   1.679  23.653  0.00  0.00    -0.153 OA
ATOM     23  O   UNL     1       0.545   0.071  23.537  0.00  0.00    -0.153 OA
BRANCH  21  24
ATOM     24  C   UNL     1       1.468   0.734  23.272  0.00  0.00    +0.122 A 
ATOM     25  C   UNL     1       1.593   0.072  22.797  0.00  0.00    +0.023 A 
ATOM     26  C   UNL     1       2.339  -0.071  22.473  0.00  0.00    +0.038 A 
ATOM     27  C   UNL     1       2.960   0.450  22.626  0.00  0.00    +0.139 A 
ATOM     30  C   UNL     1       2.836   1.113  23.102  0.00  0.00    +0.038 A 
ATOM     31  C   UNL     1       2.090   1.254  23.424  0.00  0.00    +0.023 A 
BRANCH  27  28
ATOM     28  O   UNL     1       3.706   0.309  22.303  0.00  0.00    -0.471 OA
ATOM     29  C   UNL     1       4.384   0.461  22.750  0.00  0.00    +0.252 C 
ENDBRANCH  27  28
ENDBRANCH  21  24
ENDBRANCH   5  21
BRANCH   3   2
ATOM      1  C   UNL     1      -0.353   2.141  26.144  0.00  0.00    +0.000 C 
ATOM      2  C   UNL     1      -0.911   1.630  25.816  0.00  0.00    +0.001 C 
ENDBRANCH   3   2
BRANCH   8   9
ATOM      9  C   UNL     1      -2.262   1.439  24.885  0.00  0.00    +0.087 C 
BRANCH   9  10
ATOM     10  C   UNL     1      -2.922   1.047  24.584  0.00  0.00    +0.242 C 
ATOM     11  O   UNL     1      -3.385   1.406  24.003  0.00  0.00    -0.273 OA
ATOM     12  N   UNL     1      -3.120   0.297  24.864  0.00  0.00    -0.201 NA
BRANCH  12  13
ATOM     13  C   UNL     1      -3.781  -0.095  24.563  0.00  0.00    +0.141 C 
BRANCH  13  14
ATOM     14  C   UNL     1      -3.805  -0.919  24.558  0.00  0.00    -0.000 A 
ATOM     15  C   UNL     1      -3.539  -1.344  25.214  0.00  0.00    -0.000 A 
ATOM     16  C   UNL     1      -3.563  -2.168  25.210  0.00  0.00    +0.029 A 
ATOM     17  C   UNL     1      -3.855  -2.569  24.549  0.00  0.00    +0.140 A 
ATOM     18  F   UNL     1      -3.879  -3.394  24.545  0.00  0.00    -0.204 F 
ATOM     19  C   UNL     1      -4.120  -2.145  23.894  0.00  0.00    +0.029 A 
ATOM     20  C   UNL     1      -4.096  -1.320  23.898  0.00  0.00    -0.000 A 
ENDBRANCH  13  14
ENDBRANCH  12  13
ENDBRANCH   9  10
ENDBRANCH   8   9
TORSDOF 8
ENDMDL
MODEL 9
REMARK VINA RESULT:      -7.8     17.981     18.689
REMARK  Name = 
REMARK  8 active torsions:
REMARK  status: ('A' for Active; 'I' for Inactive)
REMARK    1  A    between atoms: C_2  and  C_3
REMARK    2  A    between atoms: N_5  and  S_21
REMARK    3  A    between atoms: C_8  and  C_9
REMARK    4  A    between atoms: C_9  and  C_10
REMARK    5  A    between atoms: N_12  and  C_13
REMARK    6  A    between atoms: C_13  and  C_14
REMARK    7  A    between atoms: S_21  and  C_24
REMARK    8  A    between atoms: C_27  and  O_28
REMARK                            x       y       z     vdW  Elec       q    Type
REMARK                         _______ _______ _______ _____ _____    ______ ____
ROOT
ATOM      3  C   UNL     1      -7.316  -9.014  10.446  0.00  0.00    +0.018 C 
ATOM      4  C   UNL     1      -6.533  -9.186  10.641  0.00  0.00    +0.096 C 
ATOM      5  N   UNL     1      -5.929  -9.025  10.103  0.00  0.00    -0.156 NA
ATOM      6  C   UNL     1      -6.108  -8.692   9.370  0.00  0.00    +0.096 C 
ATOM      7  C   UNL     1      -6.891  -8.520   9.175  0.00  0.00    +0.020 C 
ATOM      8  C   UNL     1      -7.495  -8.681   9.713  0.00  0.00    +0.012 C 
ENDROOT
BRANCH   5  21
ATOM     21  S   UNL     1      -5.146  -9.197  10.297  0.00  0.00    +0.063 S 
ATOM     22  O   UNL     1      -5.213  -9.929   9.923  0.00  0.00    -0.153 OA
ATOM     23  O   UNL     1      -5.079  -8.465  10.672  0.00  0.00    -0.153 OA
BRANCH  21  24
ATOM     24  C   UNL     1      -4.363  -9.368  10.492  0.00  0.00    +0.122 A 
ATOM     25  C   UNL     1      -4.195  -9.883  11.113  0.00  0.00    +0.023 A 
ATOM     26  C   UNL     1      -3.411 -10.054  11.308  0.00  0.00    +0.038 A 
ATOM     27  C   UNL     1      -2.796  -9.709  10.881  0.00  0.00    +0.139 A 
ATOM     30  C   UNL     1      -2.964  -9.193  10.258  0.00  0.00    +0.038 A 
ATOM     31  C   UNL     1      -3.747  -9.023  10.064  0.00  0.00    +0.023 A 
BRANCH  27  28
ATOM     28  O   UNL     1      -2.012  -9.879  11.075  0.00  0.00    -0.471 OA
ATOM     29  C   UNL     1      -1.826 -10.157  11.829  0.00  0.00    +0.252 C 
ENDBRANCH  27  28
ENDBRANCH  21  24
ENDBRANCH   5  21
BRANCH   3   2
ATOM      1  C   UNL     1      -7.838  -9.795  11.524  0.00  0.00    +0.000 C 
ATOM      2  C   UNL     1      -7.920  -9.175  10.985  0.00  0.00    +0.001 C 
ENDBRANCH   3   2
BRANCH   8   9
ATOM      9  C   UNL     1      -8.278  -8.508   9.518  0.00  0.00    +0.087 C 
BRANCH   9  10
ATOM     10  C   UNL     1      -8.445  -7.998   8.892  0.00  0.00    +0.242 C 
ATOM     11  O   UNL     1      -8.225  -8.202   8.124  0.00  0.00    -0.273 OA
ATOM     12  N   UNL     1      -8.831  -7.284   9.034  0.00  0.00    -0.201 NA
BRANCH  12  13
ATOM     13  C   UNL     1      -8.998  -6.773   8.408  0.00  0.00    +0.141 C 
BRANCH  13  14
ATOM     14  C   UNL     1      -9.365  -6.049   8.552  0.00  0.00    -0.000 A 
ATOM     15  C   UNL     1     -10.159  -6.025   8.777  0.00  0.00    -0.000 A 
ATOM     16  C   UNL     1     -10.526  -5.301   8.921  0.00  0.00    +0.029 A 
ATOM     17  C   UNL     1     -10.099  -4.599   8.841  0.00  0.00    +0.140 A 
ATOM     18  F   UNL     1     -10.467  -3.874   8.986  0.00  0.00    -0.204 F 
ATOM     19  C   UNL     1      -9.306  -4.622   8.617  0.00  0.00    +0.029 A 
ATOM     20  C   UNL     1      -8.938  -5.346   8.472  0.00  0.00    -0.000 A 
ENDBRANCH  13  14
ENDBRANCH  12  13
ENDBRANCH   9  10
ENDBRANCH   8   9
TORSDOF 8
ENDMDL
