MODEL 1
REMARK VINA RESULT:     -11.8      0.000      0.000
REMARK  Name = 
REMARK  5 active torsions:
REMARK  status: ('A' for Active; 'I' for Inactive)
REMARK    1  A    between atoms: N_4  and  C_5
REMARK    2  A    between atoms: C_8  and  C_11
REMARK    3  A    between atoms: N_16  and  C_17
REMARK    4  A    between atoms: C_17  and  C_18
REMARK    5  A    between atoms: C_24  and  C_25
REMARK                            x       y       z     vdW  Elec       q    Type
REMARK                         _______ _______ _______ _____ _____    ______ ____
ROOT
ATOM     11  C   UNL     1      -4.234   1.026  24.857  0.00  0.00    +0.159 C 
ATOM     12  O   UNL     1      -4.909   1.338  25.215  0.00  0.00    -0.341 OA
ATOM     13  C   UNL     1      -5.015   2.155  25.254  0.00  0.00    +0.227 C 
ATOM     14  C   UNL     1      -4.447   2.661  24.935  0.00  0.00    +0.256 C 
ATOM     15  O   UNL     1      -4.554   3.478  24.974  0.00  0.00    -0.272 OA
ATOM     16  N   UNL     1      -3.772   2.349  24.577  0.00  0.00    -0.270 N 
ATOM     24  C   UNL     1      -3.665   1.532  24.538  0.00  0.00    +0.140 C 
ENDROOT
BRANCH  11   8
ATOM      5  C   UNL     1      -3.915  -1.425  24.741  0.00  0.00    +0.073 A 
ATOM      6  C   UNL     1      -4.284  -1.028  24.120  0.00  0.00    +0.016 A 
ATOM      7  C   UNL     1      -4.390  -0.210  24.159  0.00  0.00    -0.001 A 
ATOM      8  C   UNL     1      -4.128   0.209  24.819  0.00  0.00    +0.006 A 
ATOM      9  C   UNL     1      -3.758  -0.188  25.440  0.00  0.00    -0.001 A 
ATOM     10  C   UNL     1      -3.652  -1.006  25.402  0.00  0.00    +0.016 A 
BRANCH   5   4
ATOM      1  C   UNL     1      -2.968  -3.370  24.448  0.00  0.00    +0.097 C 
ATOM      2  C   UNL     1      -3.074  -2.554  24.487  0.00  0.00    +0.246 C 
ATOM      3  O   UNL     1      -2.448  -2.047  24.310  0.00  0.00    -0.273 OA
ATOM      4  N   UNL     1      -3.808  -2.243  24.702  0.00  0.00    -0.179 NA
ENDBRANCH   5   4
ENDBRANCH  11   8
BRANCH  24  25
ATOM     25  C   UNL     1      -2.991   1.220  24.180  0.00  0.00    +0.205 C 
ATOM     26  O   UNL     1      -2.892   1.278  23.363  0.00  0.00    -0.218 OA
ENDBRANCH  24  25
BRANCH  16  17
ATOM     17  C   UNL     1      -3.204   2.855  24.257  0.00  0.00    +0.120 C 
BRANCH  17  18
ATOM     18  C   UNL     1      -2.707   3.284  24.758  0.00  0.00    -0.002 A 
ATOM     19  C   UNL     1      -2.808   4.099  24.839  0.00  0.00    -0.003 A 
ATOM     20  C   UNL     1      -2.312   4.527  25.339  0.00  0.00    -0.000 A 
ATOM     21  C   UNL     1      -1.715   4.142  25.757  0.00  0.00    -0.000 A 
ATOM     22  C   UNL     1      -1.613   3.328  25.675  0.00  0.00    -0.000 A 
ATOM     23  C   UNL     1      -2.110   2.899  25.175  0.00  0.00    -0.003 A 
ENDBRANCH  17  18
ENDBRANCH  16  17
TORSDOF 5
ENDMDL
MODEL 2
REMARK VINA RESULT:     -11.1      1.946      5.228
REMARK  Name = 
REMARK  5 active torsions:
REMARK  status: ('A' for Active; 'I' for Inactive)
REMARK    1  A    between atoms: N_4  and  C_5
REMARK    2  A    between atoms: C_8  and  C_11
REMARK    3  A    between atoms: N_16  and  C_17
REMARK    4  A    between atoms: C_17  and  C_18
REMARK    5  A    between atoms: C_24  and  C_25
REMARK                            x       y       z     vdW  Elec       q    Type
REMARK                         _______ _______ _______ _____ _____    ______ ____
ROOT
ATOM     11  C   UNL     1      -1.053   0.212  24.620  0.00  0.00    +0.159 C 
ATOM     12  O   UNL     1      -0.471  -0.293  24.325  0.00  0.00    -0.341 OA
ATOM     13  C   UNL     1      -0.581  -1.109  24.355  0.00  0.00    +0.227 C 
ATOM     14  C   UNL     1      -1.272  -1.422  24.678  0.00  0.00    +0.256 C 
ATOM     15  O   UNL     1      -1.381  -2.239  24.708  0.00  0.00    -0.272 OA
ATOM     16  N   UNL     1      -1.854  -0.916  24.973  0.00  0.00    -0.270 N 
ATOM     24  C   UNL     1      -1.745  -0.100  24.944  0.00  0.00    +0.140 C 
ENDROOT
BRANCH  11   8
ATOM      5  C   UNL     1      -0.724   2.664  24.531  0.00  0.00    +0.073 A 
ATOM      6  C   UNL     1      -1.198   2.291  23.969  0.00  0.00    +0.016 A 
ATOM      7  C   UNL     1      -1.308   1.473  23.999  0.00  0.00    -0.001 A 
ATOM      8  C   UNL     1      -0.943   1.029  24.590  0.00  0.00    +0.006 A 
ATOM      9  C   UNL     1      -0.468   1.402  25.153  0.00  0.00    -0.001 A 
ATOM     10  C   UNL     1      -0.358   2.220  25.123  0.00  0.00    +0.016 A 
BRANCH   5   4
ATOM      1  C   UNL     1      -0.960   4.792  24.952  0.00  0.00    +0.097 C 
ATOM      2  C   UNL     1      -1.069   3.976  24.981  0.00  0.00    +0.246 C 
ATOM      3  O   UNL     1      -1.633   3.653  25.489  0.00  0.00    -0.273 OA
ATOM      4  N   UNL     1      -0.614   3.481  24.502  0.00  0.00    -0.179 NA
ENDBRANCH   5   4
ENDBRANCH  11   8
BRANCH  24  25
ATOM     25  C   UNL     1      -2.326   0.405  25.238  0.00  0.00    +0.205 C 
ATOM     26  O   UNL     1      -2.489   0.421  26.047  0.00  0.00    -0.218 OA
ENDBRANCH  24  25
BRANCH  16  17
ATOM     17  C   UNL     1      -2.545  -1.229  25.297  0.00  0.00    +0.120 C 
BRANCH  17  18
ATOM     18  C   UNL     1      -3.108  -1.582  24.806  0.00  0.00    -0.002 A 
ATOM     19  C   UNL     1      -3.194  -2.402  24.801  0.00  0.00    -0.003 A 
ATOM     20  C   UNL     1      -3.756  -2.754  24.310  0.00  0.00    -0.000 A 
ATOM     21  C   UNL     1      -4.231  -2.286  23.826  0.00  0.00    -0.000 A 
ATOM     22  C   UNL     1      -4.145  -1.466  23.831  0.00  0.00    -0.000 A 
ATOM     23  C   UNL     1      -3.583  -1.114  24.321  0.00  0.00    -0.003 A 
ENDBRANCH  17  18
ENDBRANCH  16  17
TORSDOF 5
ENDMDL
MODEL 3
REMARK VINA RESULT:     -11.1      1.239      4.610
REMARK  Name = 
REMARK  5 active torsions:
REMARK  status: ('A' for Active; 'I' for Inactive)
REMARK    1  A    between atoms: N_4  and  C_5
REMARK    2  A    between atoms: C_8  and  C_11
REMARK    3  A    between atoms: N_16  and  C_17
REMARK    4  A    between atoms: C_17  and  C_18
REMARK    5  A    between atoms: C_24  and  C_25
REMARK                            x       y       z     vdW  Elec       q    Type
REMARK                         _______ _______ _______ _____ _____    ______ ____
ROOT
ATOM     11  C   UNL     1      -3.814   2.006  24.882  0.00  0.00    +0.159 C 
ATOM     12  O   UNL     1      -4.553   1.985  25.247  0.00  0.00    -0.341 OA
ATOM     13  C   UNL     1      -5.034   1.321  25.168  0.00  0.00    +0.227 C 
ATOM     14  C   UNL     1      -4.777   0.676  24.723  0.00  0.00    +0.256 C 
ATOM     15  O   UNL     1      -5.258   0.010  24.644  0.00  0.00    -0.272 OA
ATOM     16  N   UNL     1      -4.037   0.696  24.357  0.00  0.00    -0.270 N 
ATOM     24  C   UNL     1      -3.556   1.361  24.436  0.00  0.00    +0.140 C 
ENDROOT
BRANCH  11   8
ATOM      5  C   UNL     1      -2.370   4.002  25.120  0.00  0.00    +0.073 A 
ATOM      6  C   UNL     1      -2.256   3.350  25.611  0.00  0.00    +0.016 A 
ATOM      7  C   UNL     1      -2.738   2.684  25.532  0.00  0.00    -0.001 A 
ATOM      8  C   UNL     1      -3.333   2.672  24.961  0.00  0.00    +0.006 A 
ATOM      9  C   UNL     1      -3.447   3.324  24.469  0.00  0.00    -0.001 A 
ATOM     10  C   UNL     1      -2.965   3.990  24.548  0.00  0.00    +0.016 A 
BRANCH   5   4
ATOM      1  C   UNL     1      -0.647   5.332  24.957  0.00  0.00    +0.097 C 
ATOM      2  C   UNL     1      -1.128   4.667  24.878  0.00  0.00    +0.246 C 
ATOM      3  O   UNL     1      -0.850   4.002  24.478  0.00  0.00    -0.273 OA
ATOM      4  N   UNL     1      -1.889   4.667  25.199  0.00  0.00    -0.179 NA
ENDBRANCH   5   4
ENDBRANCH  11   8
BRANCH  24  25
ATOM     25  C   UNL     1      -2.817   1.382  24.071  0.00  0.00    +0.205 C 
ATOM     26  O   UNL     1      -2.764   1.404  23.248  0.00  0.00    -0.218 OA
ENDBRANCH  24  25
BRANCH  16  17
ATOM     17  C   UNL     1      -3.780   0.051  23.912  0.00  0.00    +0.120 C 
BRANCH  17  18
ATOM     18  C   UNL     1      -3.639  -0.674  24.281  0.00  0.00    -0.002 A 
ATOM     19  C   UNL     1      -4.044  -1.348  24.032  0.00  0.00    -0.003 A 
ATOM     20  C   UNL     1      -3.903  -2.073  24.401  0.00  0.00    -0.000 A 
ATOM     21  C   UNL     1      -3.358  -2.123  25.017  0.00  0.00    -0.000 A 
ATOM     22  C   UNL     1      -2.954  -1.448  25.266  0.00  0.00    -0.000 A 
ATOM     23  C   UNL     1      -3.095  -0.724  24.897  0.00  0.00    -0.003 A 
ENDBRANCH  17  18
ENDBRANCH  16  17
TORSDOF 5
ENDMDL
MODEL 4
REMARK VINA RESULT:     -10.8      1.734      2.375
REMARK  Name = 
REMARK  5 active torsions:
REMARK  status: ('A' for Active; 'I' for Inactive)
REMARK    1  A    between atoms: N_4  and  C_5
REMARK    2  A    between atoms: C_8  and  C_11
REMARK    3  A    between atoms: N_16  and  C_17
REMARK    4  A    between atoms: C_17  and  C_18
REMARK    5  A    between atoms: C_24  and  C_25
REMARK                            x       y       z     vdW  Elec       q    Type
REMARK                         _______ _______ _______ _____ _____    ______ ____
ROOT
ATOM     11  C   UNL     1      -1.408   0.784  25.248  0.00  0.00    +0.159 C 
ATOM     12  O   UNL     1      -0.857   0.773  25.862  0.00  0.00    -0.341 OA
ATOM     13  C   UNL     1      -0.378   1.429  25.998  0.00  0.00    +0.227 C 
ATOM     14  C   UNL     1      -0.449   2.098  25.522  0.00  0.00    +0.256 C 
ATOM     15  O   UNL     1       0.031   2.755  25.659  0.00  0.00    -0.272 OA
ATOM     16  N   UNL     1      -1.000   2.111  24.907  0.00  0.00    -0.270 N 
ATOM     24  C   UNL     1      -1.479   1.454  24.771  0.00  0.00    +0.140 C 
ENDROOT
BRANCH  11   8
ATOM      5  C   UNL     1      -2.847  -1.187  24.837  0.00  0.00    +0.073 A 
ATOM      6  C   UNL     1      -3.135  -0.551  25.276  0.00  0.00    +0.016 A 
ATOM      7  C   UNL     1      -2.655   0.107  25.413  0.00  0.00    -0.001 A 
ATOM      8  C   UNL     1      -1.888   0.127  25.111  0.00  0.00    +0.006 A 
ATOM      9  C   UNL     1      -1.600  -0.509  24.672  0.00  0.00    -0.001 A 
ATOM     10  C   UNL     1      -2.080  -1.167  24.535  0.00  0.00    +0.016 A 
BRANCH   5   4
ATOM      1  C   UNL     1      -4.352  -2.492  23.944  0.00  0.00    +0.097 C 
ATOM      2  C   UNL     1      -3.872  -1.835  24.080  0.00  0.00    +0.246 C 
ATOM      3  O   UNL     1      -3.937  -1.169  23.598  0.00  0.00    -0.273 OA
ATOM      4  N   UNL     1      -3.327  -1.844  24.700  0.00  0.00    -0.179 NA
ENDBRANCH   5   4
ENDBRANCH  11   8
BRANCH  24  25
ATOM     25  C   UNL     1      -2.031   1.466  24.157  0.00  0.00    +0.205 C 
ATOM     26  O   UNL     1      -1.775   1.484  23.373  0.00  0.00    -0.218 OA
ENDBRANCH  24  25
BRANCH  16  17
ATOM     17  C   UNL     1      -1.071   2.780  24.431  0.00  0.00    +0.120 C 
BRANCH  17  18
ATOM     18  C   UNL     1      -1.350   3.487  24.753  0.00  0.00    -0.002 A 
ATOM     19  C   UNL     1      -0.864   4.154  24.766  0.00  0.00    -0.003 A 
ATOM     20  C   UNL     1      -1.143   4.860  25.088  0.00  0.00    -0.000 A 
ATOM     21  C   UNL     1      -1.907   4.900  25.395  0.00  0.00    -0.000 A 
ATOM     22  C   UNL     1      -2.393   4.234  25.382  0.00  0.00    -0.000 A 
ATOM     23  C   UNL     1      -2.113   3.527  25.060  0.00  0.00    -0.003 A 
ENDBRANCH  17  18
ENDBRANCH  16  17
TORSDOF 5
ENDMDL
MODEL 5
REMARK VINA RESULT:     -10.1      1.266      4.934
REMARK  Name = 
REMARK  5 active torsions:
REMARK  status: ('A' for Active; 'I' for Inactive)
REMARK    1  A    between atoms: N_4  and  C_5
REMARK    2  A    between atoms: C_8  and  C_11
REMARK    3  A    between atoms: N_16  and  C_17
REMARK    4  A    between atoms: C_17  and  C_18
REMARK    5  A    between atoms: C_24  and  C_25
REMARK                            x       y       z     vdW  Elec       q    Type
REMARK                         _______ _______ _______ _____ _____    ______ ____
ROOT
ATOM     11  C   UNL     1      -3.012   0.895  24.699  0.00  0.00    +0.159 C 
ATOM     12  O   UNL     1      -2.261   0.876  24.358  0.00  0.00    -0.341 OA
ATOM     13  C   UNL     1      -1.843   0.167  24.318  0.00  0.00    +0.227 C 
ATOM     14  C   UNL     1      -2.175  -0.525  24.620  0.00  0.00    +0.256 C 
ATOM     15  O   UNL     1      -1.757  -1.235  24.580  0.00  0.00    -0.272 OA
ATOM     16  N   UNL     1      -2.927  -0.507  24.961  0.00  0.00    -0.270 N 
ATOM     24  C   UNL     1      -3.345   0.202  25.001  0.00  0.00    +0.140 C 
ENDROOT
BRANCH  11   8
ATOM      5  C   UNL     1      -4.266   3.025  24.817  0.00  0.00    +0.073 A 
ATOM      6  C   UNL     1      -3.639   2.887  25.334  0.00  0.00    +0.016 A 
ATOM      7  C   UNL     1      -3.220   2.176  25.294  0.00  0.00    -0.001 A 
ATOM      8  C   UNL     1      -3.430   1.605  24.738  0.00  0.00    +0.006 A 
ATOM      9  C   UNL     1      -4.057   1.743  24.221  0.00  0.00    -0.001 A 
ATOM     10  C   UNL     1      -4.476   2.454  24.260  0.00  0.00    +0.016 A 
BRANCH   5   4
ATOM      1  C   UNL     1      -5.729   4.526  25.427  0.00  0.00    +0.097 C 
ATOM      2  C   UNL     1      -5.311   3.816  25.387  0.00  0.00    +0.246 C 
ATOM      3  O   UNL     1      -5.520   3.187  25.878  0.00  0.00    -0.273 OA
ATOM      4  N   UNL     1      -4.684   3.735  24.857  0.00  0.00    -0.179 NA
ENDBRANCH   5   4
ENDBRANCH  11   8
BRANCH  24  25
ATOM     25  C   UNL     1      -4.095   0.221  25.342  0.00  0.00    +0.205 C 
ATOM     26  O   UNL     1      -4.191   0.036  26.140  0.00  0.00    -0.218 OA
ENDBRANCH  24  25
BRANCH  16  17
ATOM     17  C   UNL     1      -3.259  -1.199  25.263  0.00  0.00    +0.120 C 
BRANCH  17  18
ATOM     18  C   UNL     1      -3.518  -1.790  24.748  0.00  0.00    -0.002 A 
ATOM     19  C   UNL     1      -3.195  -2.548  24.795  0.00  0.00    -0.003 A 
ATOM     20  C   UNL     1      -3.454  -3.138  24.280  0.00  0.00    -0.000 A 
ATOM     21  C   UNL     1      -4.034  -2.971  23.719  0.00  0.00    -0.000 A 
ATOM     22  C   UNL     1      -4.357  -2.214  23.672  0.00  0.00    -0.000 A 
ATOM     23  C   UNL     1      -4.098  -1.623  24.187  0.00  0.00    -0.003 A 
ENDBRANCH  17  18
ENDBRANCH  16  17
TORSDOF 5
ENDMDL
