MODEL 1
REMARK VINA RESULT:     -11.8      0.000      0.000
REMARK  Name = 
REMARK  4 active torsions:
REMARK  status: ('A' for Active; 'I' for Inactive)
REMARK    1  A    between atoms: O_2  and  C_3
REMARK    2  A    between atoms: C_7  and  C_8
REMARK    3  A    between atoms: C_8  and  N_9
REMARK    4  A    between atoms: N_15  and  C_18
REMARK                            x       y       z     vdW  Elec       q    Type
REMARK                         _______ _______ _______ _____ _____    ______ ____
ROOT
ATOM      9  N   UNL     1      -3.984   0.615  25.057  0.00  0.00    -0.266 NA
ATOM     10  C   UNL     1      -4.430   1.013  24.489  0.00  0.00    +0.094 C 
ATOM     11  C   UNL     1      -4.197   1.760  24.231  0.00  0.00    +0.112 C 
ATOM     12  N   UNL     1      -3.516   2.110  24.539  0.00  0.00    -0.261 N 
ATOM     13  C   UNL     1      -3.070   1.712  25.107  0.00  0.00    +0.113 C 
ATOM     14  C   UNL     1      -2.430   2.191  25.310  0.00  0.00    +0.121 C 
ATOM     15  N   UNL     1      -2.481   2.885  24.868  0.00  0.00    -0.241 N 
ATOM     16  C   UNL     1      -3.153   2.835  24.392  0.00  0.00    +0.311 C 
ATOM     17  O   UNL     1      -3.415   3.409  23.860  0.00  0.00    -0.252 OA
ATOM     24  C   UNL     1      -3.303   0.964  25.367  0.00  0.00    +0.094 C 
ENDROOT
BRANCH  15  18
ATOM     18  C   UNL     1      -1.953   3.519  24.897  0.00  0.00    +0.055 A 
ATOM     19  C   UNL     1      -2.176   4.225  25.263  0.00  0.00    +0.015 A 
ATOM     20  C   UNL     1      -1.648   4.858  25.292  0.00  0.00    +0.001 A 
ATOM     21  C   UNL     1      -0.898   4.786  24.955  0.00  0.00    +0.000 A 
ATOM     22  C   UNL     1      -0.676   4.081  24.590  0.00  0.00    +0.001 A 
ATOM     23  C   UNL     1      -1.204   3.447  24.561  0.00  0.00    +0.015 A 
ENDBRANCH  15  18
BRANCH   9   8
ATOM      8  C   UNL     1      -4.217  -0.134  25.317  0.00  0.00    +0.099 C 
BRANCH   8   7
ATOM      3  C   UNL     1      -3.069  -1.899  24.743  0.00  0.00    +0.138 A 
ATOM      4  C   UNL     1      -3.491  -2.152  24.081  0.00  0.00    +0.037 A 
ATOM      5  C   UNL     1      -4.155  -1.732  23.832  0.00  0.00    +0.003 A 
ATOM      6  C   UNL     1      -4.398  -1.059  24.243  0.00  0.00    -0.003 A 
ATOM      7  C   UNL     1      -3.976  -0.806  24.905  0.00  0.00    -0.003 A 
ATOM     25  C   UNL     1      -3.310  -1.226  25.155  0.00  0.00    +0.034 A 
BRANCH   3   2
ATOM      1  C   UNL     1      -1.740  -2.368  24.506  0.00  0.00    +0.252 C 
ATOM      2  O   UNL     1      -2.403  -2.319  24.994  0.00  0.00    -0.471 OA
ENDBRANCH   3   2
ENDBRANCH   8   7
ENDBRANCH   9   8
TORSDOF 4
ENDMDL
MODEL 2
REMARK VINA RESULT:     -11.7      1.238      4.923
REMARK  Name = 
REMARK  4 active torsions:
REMARK  status: ('A' for Active; 'I' for Inactive)
REMARK    1  A    between atoms: O_2  and  C_3
REMARK    2  A    between atoms: C_7  and  C_8
REMARK    3  A    between atoms: C_8  and  N_9
REMARK    4  A    between atoms: N_15  and  C_18
REMARK                            x       y       z     vdW  Elec       q    Type
REMARK                         _______ _______ _______ _____ _____    ______ ____
ROOT
ATOM      9  N   UNL     1      -3.407   2.370  24.290  0.00  0.00    -0.266 NA
ATOM     10  C   UNL     1      -4.116   2.365  24.712  0.00  0.00    +0.094 C 
ATOM     11  C   UNL     1      -4.470   1.648  24.914  0.00  0.00    +0.112 C 
ATOM     12  N   UNL     1      -4.116   0.936  24.694  0.00  0.00    -0.261 N 
ATOM     13  C   UNL     1      -3.407   0.941  24.272  0.00  0.00    +0.113 C 
ATOM     14  C   UNL     1      -3.188   0.159  24.132  0.00  0.00    +0.121 C 
ATOM     15  N   UNL     1      -3.761  -0.330  24.467  0.00  0.00    -0.241 N 
ATOM     16  C   UNL     1      -4.334   0.150  24.814  0.00  0.00    +0.311 C 
ATOM     17  O   UNL     1      -5.009  -0.110  25.213  0.00  0.00    -0.252 OA
ATOM     24  C   UNL     1      -3.052   1.659  24.069  0.00  0.00    +0.094 C 
ENDROOT
BRANCH  15  18
ATOM     18  C   UNL     1      -3.761  -1.155  24.457  0.00  0.00    +0.055 A 
ATOM     19  C   UNL     1      -3.356  -1.575  25.041  0.00  0.00    +0.015 A 
ATOM     20  C   UNL     1      -3.356  -2.400  25.030  0.00  0.00    +0.001 A 
ATOM     21  C   UNL     1      -3.761  -2.805  24.436  0.00  0.00    +0.000 A 
ATOM     22  C   UNL     1      -4.166  -2.386  23.853  0.00  0.00    +0.001 A 
ATOM     23  C   UNL     1      -4.166  -1.561  23.864  0.00  0.00    +0.015 A 
ENDBRANCH  15  18
BRANCH   9   8
ATOM      8  C   UNL     1      -3.053   3.088  24.087  0.00  0.00    +0.099 C 
BRANCH   8   7
ATOM      3  C   UNL     1      -1.219   3.614  25.147  0.00  0.00    +0.138 A 
ATOM      4  C   UNL     1      -1.499   4.187  25.669  0.00  0.00    +0.037 A 
ATOM      5  C   UNL     1      -2.297   4.394  25.664  0.00  0.00    +0.003 A 
ATOM      6  C   UNL     1      -2.816   4.028  25.137  0.00  0.00    -0.003 A 
ATOM      7  C   UNL     1      -2.535   3.454  24.614  0.00  0.00    -0.003 A 
ATOM     25  C   UNL     1      -1.736   3.247  24.619  0.00  0.00    +0.034 A 
BRANCH   3   2
ATOM      1  C   UNL     1      -0.127   2.906  25.738  0.00  0.00    +0.252 C 
ATOM      2  O   UNL     1      -0.419   3.407  25.151  0.00  0.00    -0.471 OA
ENDBRANCH   3   2
ENDBRANCH   8   7
ENDBRANCH   9   8
TORSDOF 4
ENDMDL
MODEL 3
REMARK VINA RESULT:     -11.1      1.587      5.256
REMARK  Name = 
REMARK  4 active torsions:
REMARK  status: ('A' for Active; 'I' for Inactive)
REMARK    1  A    between atoms: O_2  and  C_3
REMARK    2  A    between atoms: C_7  and  C_8
REMARK    3  A    between atoms: C_8  and  N_9
REMARK    4  A    between atoms: N_15  and  C_18
REMARK                            x       y       z     vdW  Elec       q    Type
REMARK                         _______ _______ _______ _____ _____    ______ ____
ROOT
ATOM      9  N   UNL     1      -0.804   1.570  25.509  0.00  0.00    -0.266 NA
ATOM     10  C   UNL     1      -0.292   1.263  24.939  0.00  0.00    +0.094 C 
ATOM     11  C   UNL     1      -0.492   0.573  24.535  0.00  0.00    +0.112 C 
ATOM     12  N   UNL     1      -1.204   0.189  24.700  0.00  0.00    -0.261 N 
ATOM     13  C   UNL     1      -1.715   0.496  25.269  0.00  0.00    +0.113 C 
ATOM     14  C   UNL     1      -2.374   0.002  25.314  0.00  0.00    +0.121 C 
ATOM     15  N   UNL     1      -2.269  -0.611  24.772  0.00  0.00    -0.241 N 
ATOM     16  C   UNL     1      -1.546  -0.495  24.393  0.00  0.00    +0.311 C 
ATOM     17  O   UNL     1      -1.222  -0.979  23.808  0.00  0.00    -0.252 OA
ATOM     24  C   UNL     1      -1.516   1.187  25.674  0.00  0.00    +0.094 C 
ENDROOT
BRANCH  15  18
ATOM     18  C   UNL     1      -2.795  -1.231  24.634  0.00  0.00    +0.055 A 
ATOM     19  C   UNL     1      -3.458  -1.112  24.156  0.00  0.00    +0.015 A 
ATOM     20  C   UNL     1      -3.985  -1.732  24.018  0.00  0.00    +0.001 A 
ATOM     21  C   UNL     1      -3.848  -2.472  24.358  0.00  0.00    +0.000 A 
ATOM     22  C   UNL     1      -3.186  -2.591  24.834  0.00  0.00    +0.001 A 
ATOM     23  C   UNL     1      -2.660  -1.971  24.973  0.00  0.00    +0.015 A 
ENDBRANCH  15  18
BRANCH   9   8
ATOM      8  C   UNL     1      -0.604   2.262  25.913  0.00  0.00    +0.099 C 
BRANCH   8   7
ATOM      3  C   UNL     1      -1.936   3.984  25.760  0.00  0.00    +0.138 A 
ATOM      4  C   UNL     1      -1.545   4.433  25.189  0.00  0.00    +0.037 A 
ATOM      5  C   UNL     1      -0.841   4.159  24.860  0.00  0.00    +0.003 A 
ATOM      6  C   UNL     1      -0.526   3.435  25.101  0.00  0.00    -0.003 A 
ATOM      7  C   UNL     1      -0.917   2.985  25.672  0.00  0.00    -0.003 A 
ATOM     25  C   UNL     1      -1.623   3.260  26.002  0.00  0.00    +0.034 A 
BRANCH   3   2
ATOM      1  C   UNL     1      -3.346   4.197  25.666  0.00  0.00    +0.252 C 
ATOM      2  O   UNL     1      -2.641   4.258  26.090  0.00  0.00    -0.471 OA
ENDBRANCH   3   2
ENDBRANCH   8   7
ENDBRANCH   9   8
TORSDOF 4
ENDMDL
MODEL 4
REMARK VINA RESULT:     -11.0      1.626      2.140
REMARK  Name = 
REMARK  4 active torsions:
REMARK  status: ('A' for Active; 'I' for Inactive)
REMARK    1  A    between atoms: O_2  and  C_3
REMARK    2  A    between atoms: C_7  and  C_8
REMARK    3  A    between atoms: C_8  and  N_9
REMARK    4  A    between atoms: N_15  and  C_18
REMARK                            x       y       z     vdW  Elec       q    Type
REMARK                         _______ _______ _______ _____ _____    ______ ____
ROOT
ATOM      9  N   UNL     1      -1.459   0.174  24.918  0.00  0.00    -0.266 NA
ATOM     10  C   UNL     1      -0.925   0.216  25.545  0.00  0.00    +0.094 C 
ATOM     11  C   UNL     1      -0.691   0.950  25.839  0.00  0.00    +0.112 C 
ATOM     12  N   UNL     1      -0.990   1.643  25.506  0.00  0.00    -0.261 N 
ATOM     13  C   UNL     1      -1.524   1.601  24.879  0.00  0.00    +0.113 C 
ATOM     14  C   UNL     1      -1.725   2.372  24.663  0.00  0.00    +0.121 C 
ATOM     15  N   UNL     1      -1.315   2.889  25.158  0.00  0.00    -0.241 N 
ATOM     16  C   UNL     1      -0.862   2.439  25.678  0.00  0.00    +0.311 C 
ATOM     17  O   UNL     1      -0.366   2.733  26.269  0.00  0.00    -0.252 OA
ATOM     24  C   UNL     1      -1.759   0.867  24.584  0.00  0.00    +0.094 C 
ENDROOT
BRANCH  15  18
ATOM     18  C   UNL     1      -1.353   3.713  25.135  0.00  0.00    +0.055 A 
ATOM     19  C   UNL     1      -2.000   4.106  25.465  0.00  0.00    +0.015 A 
ATOM     20  C   UNL     1      -2.038   4.930  25.443  0.00  0.00    +0.001 A 
ATOM     21  C   UNL     1      -1.428   5.361  25.090  0.00  0.00    +0.000 A 
ATOM     22  C   UNL     1      -0.782   4.969  24.761  0.00  0.00    +0.001 A 
ATOM     23  C   UNL     1      -0.745   4.145  24.783  0.00  0.00    +0.015 A 
ENDBRANCH  15  18
BRANCH   9   8
ATOM      8  C   UNL     1      -1.693  -0.560  24.623  0.00  0.00    +0.099 C 
BRANCH   8   7
ATOM      3  C   UNL     1      -3.727  -1.351  24.571  0.00  0.00    +0.138 A 
ATOM      4  C   UNL     1      -3.833  -1.562  25.361  0.00  0.00    +0.037 A 
ATOM      5  C   UNL     1      -3.226  -1.439  25.905  0.00  0.00    +0.003 A 
ATOM      6  C   UNL     1      -2.512  -1.105  25.660  0.00  0.00    -0.003 A 
ATOM      7  C   UNL     1      -2.406  -0.894  24.869  0.00  0.00    -0.003 A 
ATOM     25  C   UNL     1      -3.014  -1.017  24.324  0.00  0.00    +0.034 A 
BRANCH   3   2
ATOM      1  C   UNL     1      -4.438  -2.218  23.685  0.00  0.00    +0.252 C 
ATOM      2  O   UNL     1      -4.335  -1.474  24.025  0.00  0.00    -0.471 OA
ENDBRANCH   3   2
ENDBRANCH   8   7
ENDBRANCH   9   8
TORSDOF 4
ENDMDL
