MODEL 1
REMARK VINA RESULT:     -10.6      0.000      0.000
REMARK  Name = 
REMARK  3 active torsions:
REMARK  status: ('A' for Active; 'I' for Inactive)
REMARK    1  A    between atoms: C_5  and  C_7
REMARK    2  A    between atoms: N_10  and  C_11
REMARK    3  A    between atoms: C_11  and  C_12
REMARK                            x       y       z     vdW  Elec       q    Type
REMARK                         _______ _______ _______ _____ _____    ______ ____
ROOT
ATOM      7  C   UNL     1      -3.729   1.704  24.490  0.00  0.00    +0.096 C 
ATOM      8  C   UNL     1      -3.206   1.439  23.909  0.00  0.00    +0.028 C 
ATOM      9  C   UNL     1      -3.376   0.646  23.755  0.00  0.00    +0.073 C 
ATOM     10  N   UNL     1      -4.004   0.422  24.240  0.00  0.00    -0.268 NA
ATOM     19  C   UNL     1      -4.222   1.075  24.695  0.00  0.00    +0.082 C 
ENDROOT
BRANCH   7   5
ATOM      1  C   UNL     1      -3.033   4.098  25.979  0.00  0.00    +0.097 C 
ATOM      2  C   UNL     1      -3.434   3.565  25.494  0.00  0.00    +0.227 A 
ATOM      3  N   UNL     1      -4.150   3.703  25.109  0.00  0.00    -0.112 NA
ATOM      4  N   UNL     1      -4.349   3.023  24.686  0.00  0.00    -0.112 NA
ATOM      5  C   UNL     1      -3.755   2.464  24.809  0.00  0.00    +0.227 A 
ATOM      6  O   UNL     1      -3.189   2.799  25.309  0.00  0.00    -0.423 OA
ENDBRANCH   7   5
BRANCH  10  11
ATOM     11  C   UNL     1      -4.353  -0.326  24.267  0.00  0.00    +0.100 C 
BRANCH  11  12
ATOM     12  C   UNL     1      -3.986  -0.937  24.682  0.00  0.00    +0.004 A 
ATOM     13  C   UNL     1      -3.647  -0.790  25.420  0.00  0.00    -0.002 A 
ATOM     14  C   UNL     1      -3.280  -1.401  25.835  0.00  0.00    -0.000 A 
ATOM     15  C   UNL     1      -3.254  -2.160  25.513  0.00  0.00    +0.001 A 
ATOM     16  C   UNL     1      -3.593  -2.308  24.776  0.00  0.00    +0.011 A 
ATOM     17  C   UNL     1      -3.960  -1.697  24.360  0.00  0.00    +0.055 A 
ATOM     18 CL   UNL     1      -4.299  -1.844  23.624  0.00  0.00    -0.083 Cl
ENDBRANCH  11  12
ENDBRANCH  10  11
TORSDOF 3
ENDMDL
MODEL 2
REMARK VINA RESULT:      -9.9      1.842      4.267
REMARK  Name = 
REMARK  3 active torsions:
REMARK  status: ('A' for Active; 'I' for Inactive)
REMARK    1  A    between atoms: C_5  and  C_7
REMARK    2  A    between atoms: N_10  and  C_11
REMARK    3  A    between atoms: C_11  and  C_12
REMARK                            x       y       z     vdW  Elec       q    Type
REMARK                         _______ _______ _______ _____ _____    ______ ____
ROOT
ATOM      7  C   UNL     1      -3.771   0.056  24.504  0.00  0.00    +0.096 C 
ATOM      8  C   UNL     1      -3.358   0.397  23.875  0.00  0.00    +0.028 C 
ATOM      9  C   UNL     1      -3.617   1.176  23.793  0.00  0.00    +0.073 C 
ATOM     10  N   UNL     1      -4.188   1.317  24.370  0.00  0.00    -0.268 NA
ATOM     19  C   UNL     1      -4.284   0.625  24.810  0.00  0.00    +0.082 C 
ENDROOT
BRANCH   7   5
ATOM      1  C   UNL     1      -3.555  -2.839  24.579  0.00  0.00    +0.097 C 
ATOM      2  C   UNL     1      -3.586  -2.048  24.812  0.00  0.00    +0.227 A 
ATOM      3  N   UNL     1      -3.520  -1.767  25.584  0.00  0.00    -0.112 NA
ATOM      4  N   UNL     1      -3.581  -0.944  25.564  0.00  0.00    -0.112 NA
ATOM      5  C   UNL     1      -3.685  -0.717  24.778  0.00  0.00    +0.227 A 
ATOM      6  O   UNL     1      -3.687  -1.399  24.313  0.00  0.00    -0.423 OA
ENDBRANCH   7   5
BRANCH  10  11
ATOM     11  C   UNL     1      -4.594   2.026  24.488  0.00  0.00    +0.100 C 
BRANCH  11  12
ATOM     12  C   UNL     1      -4.245   2.633  24.924  0.00  0.00    +0.004 A 
ATOM     13  C   UNL     1      -3.434   2.773  24.863  0.00  0.00    -0.002 A 
ATOM     14  C   UNL     1      -3.086   3.380  25.299  0.00  0.00    -0.000 A 
ATOM     15  C   UNL     1      -3.548   3.848  25.797  0.00  0.00    +0.001 A 
ATOM     16  C   UNL     1      -4.358   3.709  25.859  0.00  0.00    +0.011 A 
ATOM     17  C   UNL     1      -4.708   3.101  25.422  0.00  0.00    +0.055 A 
ATOM     18 CL   UNL     1      -5.518   2.963  25.484  0.00  0.00    -0.083 Cl
ENDBRANCH  11  12
ENDBRANCH  10  11
TORSDOF 3
ENDMDL
MODEL 3
REMARK VINA RESULT:      -9.8      2.482      2.828
REMARK  Name = 
REMARK  3 active torsions:
REMARK  status: ('A' for Active; 'I' for Inactive)
REMARK    1  A    between atoms: C_5  and  C_7
REMARK    2  A    between atoms: N_10  and  C_11
REMARK    3  A    between atoms: C_11  and  C_12
REMARK                            x       y       z     vdW  Elec       q    Type
REMARK                         _______ _______ _______ _____ _____    ______ ____
ROOT
ATOM      7  C   UNL     1      -1.039   0.072  25.079  0.00  0.00    +0.096 C 
ATOM      8  C   UNL     1      -0.723  -0.581  24.685  0.00  0.00    +0.028 C 
ATOM      9  C   UNL     1      -1.258  -1.206  24.759  0.00  0.00    +0.073 C 
ATOM     10  N   UNL     1      -1.903  -0.939  25.197  0.00  0.00    -0.268 NA
ATOM     19  C   UNL     1      -1.769  -0.150  25.396  0.00  0.00    +0.082 C 
ENDROOT
BRANCH   7   5
ATOM      1  C   UNL     1      -0.178   2.636  26.137  0.00  0.00    +0.097 C 
ATOM      2  C   UNL     1      -0.292   1.993  25.632  0.00  0.00    +0.227 A 
ATOM      3  N   UNL     1      -0.001   1.924  24.863  0.00  0.00    -0.112 NA
ATOM      4  N   UNL     1      -0.246   1.196  24.562  0.00  0.00    -0.112 NA
ATOM      5  C   UNL     1      -0.688   0.815  25.145  0.00  0.00    +0.227 A 
ATOM      6  O   UNL     1      -0.716   1.308  25.806  0.00  0.00    -0.423 OA
ENDBRANCH   7   5
BRANCH  10  11
ATOM     11  C   UNL     1      -2.568  -1.384  25.402  0.00  0.00    +0.100 C 
BRANCH  11  12
ATOM     12  C   UNL     1      -3.180  -1.486  24.858  0.00  0.00    +0.004 A 
ATOM     13  C   UNL     1      -3.469  -0.838  24.436  0.00  0.00    -0.002 A 
ATOM     14  C   UNL     1      -4.081  -0.939  23.892  0.00  0.00    -0.000 A 
ATOM     15  C   UNL     1      -4.404  -1.688  23.770  0.00  0.00    +0.001 A 
ATOM     16  C   UNL     1      -4.115  -2.336  24.192  0.00  0.00    +0.011 A 
ATOM     17  C   UNL     1      -3.503  -2.235  24.736  0.00  0.00    +0.055 A 
ATOM     18 CL   UNL     1      -3.214  -2.882  25.157  0.00  0.00    -0.083 Cl
ENDBRANCH  11  12
ENDBRANCH  10  11
TORSDOF 3
ENDMDL
