MODEL 1
REMARK VINA RESULT:     -13.0      0.000      0.000
REMARK  Name = 
REMARK  6 active torsions:
REMARK  status: ('A' for Active; 'I' for Inactive)
REMARK    1  A    between atoms: C_2  and  S_3
REMARK    2  A    between atoms: S_3  and  C_6
REMARK    3  A    between atoms: C_11  and  C_13
REMARK    4  A    between atoms: N_16  and  C_17
REMARK    5  A    between atoms: C_17  and  C_18
REMARK    6  A    between atoms: C_21  and  C_24
REMARK                            x       y       z     vdW  Elec       q    Type
REMARK                         _______ _______ _______ _____ _____    ______ ____
ROOT
ATOM     13  C   UNL     1      -4.738   1.500  25.151  0.00  0.00    +0.094 C 
ATOM     14  C   UNL     1      -5.444   1.682  25.537  0.00  0.00    +0.028 C 
ATOM     15  C   UNL     1      -5.483   2.501  25.628  0.00  0.00    +0.073 C 
ATOM     16  N   UNL     1      -4.800   2.826  25.298  0.00  0.00    -0.268 NA
ATOM     28  C   UNL     1      -4.340   2.207  25.003  0.00  0.00    +0.082 C 
ENDROOT
BRANCH  13  11
ATOM      6  C   UNL     1      -3.291  -1.679  24.533  0.00  0.00    +0.107 A 
ATOM      7  C   UNL     1      -3.190  -0.976  24.952  0.00  0.00    +0.041 A 
ATOM      8  C   UNL     1      -3.745  -0.370  24.883  0.00  0.00    +0.120 A 
ATOM      9  C   UNL     1      -4.402  -0.466  24.393  0.00  0.00    +0.164 A 
ATOM     10  O   UNL     1      -4.853   0.222  24.434  0.00  0.00    -0.438 OA
ATOM     11  C   UNL     1      -4.476   0.745  24.949  0.00  0.00    +0.207 A 
ATOM     12  N   UNL     1      -3.791   0.378  25.226  0.00  0.00    -0.212 NA
ATOM     29  C   UNL     1      -4.504  -1.170  23.973  0.00  0.00    +0.040 A 
ATOM     30  C   UNL     1      -3.948  -1.775  24.043  0.00  0.00    +0.022 A 
BRANCH   6   3
ATOM      3  S   UNL     1      -2.737  -2.285  24.602  0.00  0.00    +0.009 S 
ATOM      4  O   UNL     1      -3.277  -2.730  25.038  0.00  0.00    -0.169 OA
ATOM      5  O   UNL     1      -2.195  -1.840  24.167  0.00  0.00    -0.169 OA
BRANCH   3   2
ATOM      1  C   UNL     1      -1.388  -2.746  24.495  0.00  0.00    +0.028 C 
ATOM      2  C   UNL     1      -2.181  -2.891  24.672  0.00  0.00    +0.156 C 
ENDBRANCH   3   2
ENDBRANCH   6   3
ENDBRANCH  13  11
BRANCH  16  17
ATOM     17  C   UNL     1      -4.610   3.628  25.267  0.00  0.00    +0.099 C 
BRANCH  17  18
ATOM     18  C   UNL     1      -3.820   3.867  25.280  0.00  0.00    -0.006 A 
ATOM     19  C   UNL     1      -3.438   3.991  26.001  0.00  0.00    -0.003 A 
ATOM     20  C   UNL     1      -2.649   4.229  26.013  0.00  0.00    +0.004 A 
ATOM     21  C   UNL     1      -2.241   4.343  25.306  0.00  0.00    +0.071 A 
ATOM     22  C   UNL     1      -2.622   4.219  24.585  0.00  0.00    +0.004 A 
ATOM     23  C   UNL     1      -3.412   3.980  24.572  0.00  0.00    -0.003 A 
BRANCH  21  24
ATOM     24  C   UNL     1      -1.451   4.582  25.319  0.00  0.00    +0.419 C 
ATOM     25  F   UNL     1      -0.661   4.819  25.332  0.00  0.00    -0.166 F 
ATOM     26  F   UNL     1      -1.214   3.793  25.382  0.00  0.00    -0.166 F 
ATOM     27  F   UNL     1      -1.688   5.369  25.256  0.00  0.00    -0.166 F 
ENDBRANCH  21  24
ENDBRANCH  17  18
ENDBRANCH  16  17
TORSDOF 6
ENDMDL
MODEL 2
REMARK VINA RESULT:     -12.4      3.705      6.325
REMARK  Name = 
REMARK  6 active torsions:
REMARK  status: ('A' for Active; 'I' for Inactive)
REMARK    1  A    between atoms: C_2  and  S_3
REMARK    2  A    between atoms: S_3  and  C_6
REMARK    3  A    between atoms: C_11  and  C_13
REMARK    4  A    between atoms: N_16  and  C_17
REMARK    5  A    between atoms: C_17  and  C_18
REMARK    6  A    between atoms: C_21  and  C_24
REMARK                            x       y       z     vdW  Elec       q    Type
REMARK                         _______ _______ _______ _____ _____    ______ ____
ROOT
ATOM     13  C   UNL     1      -0.771   0.118  25.083  0.00  0.00    +0.094 C 
ATOM     14  C   UNL     1      -0.244  -0.291  24.597  0.00  0.00    +0.028 C 
ATOM     15  C   UNL     1      -0.442  -1.091  24.621  0.00  0.00    +0.073 C 
ATOM     16  N   UNL     1      -1.091  -1.178  25.123  0.00  0.00    -0.268 NA
ATOM     28  C   UNL     1      -1.294  -0.431  25.409  0.00  0.00    +0.082 C 
ENDROOT
BRANCH  13  11
ATOM      6  C   UNL     1      -1.113   3.632  25.425  0.00  0.00    +0.107 A 
ATOM      7  C   UNL     1      -1.441   2.967  25.063  0.00  0.00    +0.041 A 
ATOM      8  C   UNL     1      -1.108   2.223  25.187  0.00  0.00    +0.120 A 
ATOM      9  C   UNL     1      -0.447   2.143  25.675  0.00  0.00    +0.164 A 
ATOM     10  O   UNL     1      -0.240   1.345  25.695  0.00  0.00    -0.438 OA
ATOM     11  C   UNL     1      -0.773   0.931  25.220  0.00  0.00    +0.207 A 
ATOM     12  N   UNL     1      -1.309   1.474  24.907  0.00  0.00    -0.212 NA
ATOM     29  C   UNL     1      -0.119   2.808  26.037  0.00  0.00    +0.040 A 
ATOM     30  C   UNL     1      -0.452   3.552  25.912  0.00  0.00    +0.022 A 
BRANCH   6   3
ATOM      3  S   UNL     1      -1.445   4.376  25.300  0.00  0.00    +0.009 S 
ATOM      4  O   UNL     1      -2.090   4.167  25.771  0.00  0.00    -0.169 OA
ATOM      5  O   UNL     1      -0.801   4.585  24.829  0.00  0.00    -0.169 OA
BRANCH   3   2
ATOM      1  C   UNL     1      -1.321   5.727  24.852  0.00  0.00    +0.028 C 
ATOM      2  C   UNL     1      -1.778   5.121  25.175  0.00  0.00    +0.156 C 
ENDBRANCH   3   2
ENDBRANCH   6   3
ENDBRANCH  13  11
BRANCH  16  17
ATOM     17  C   UNL     1      -1.470  -1.887  25.307  0.00  0.00    +0.099 C 
BRANCH  17  18
ATOM     18  C   UNL     1      -2.189  -2.076  24.949  0.00  0.00    -0.006 A 
ATOM     19  C   UNL     1      -2.899  -1.834  25.296  0.00  0.00    -0.003 A 
ATOM     20  C   UNL     1      -3.617  -2.024  24.937  0.00  0.00    +0.004 A 
ATOM     21  C   UNL     1      -3.627  -2.453  24.234  0.00  0.00    +0.071 A 
ATOM     22  C   UNL     1      -2.918  -2.695  23.887  0.00  0.00    +0.004 A 
ATOM     23  C   UNL     1      -2.198  -2.506  24.245  0.00  0.00    -0.003 A 
BRANCH  21  24
ATOM     24  C   UNL     1      -4.346  -2.642  23.876  0.00  0.00    +0.419 C 
ATOM     25  F   UNL     1      -5.065  -2.830  23.518  0.00  0.00    -0.166 F 
ATOM     26  F   UNL     1      -4.376  -1.889  23.539  0.00  0.00    -0.166 F 
ATOM     27  F   UNL     1      -4.316  -3.394  24.213  0.00  0.00    -0.166 F 
ENDBRANCH  21  24
ENDBRANCH  17  18
ENDBRANCH  16  17
TORSDOF 6
ENDMDL
MODEL 3
REMARK VINA RESULT:     -12.0      2.174      3.067
REMARK  Name = 
REMARK  6 active torsions:
REMARK  status: ('A' for Active; 'I' for Inactive)
REMARK    1  A    between atoms: C_2  and  S_3
REMARK    2  A    between atoms: S_3  and  C_6
REMARK    3  A    between atoms: C_11  and  C_13
REMARK    4  A    between atoms: N_16  and  C_17
REMARK    5  A    between atoms: C_17  and  C_18
REMARK    6  A    between atoms: C_21  and  C_24
REMARK                            x       y       z     vdW  Elec       q    Type
REMARK                         _______ _______ _______ _____ _____    ______ ____
ROOT
ATOM     13  C   UNL     1      -0.504   0.783  24.840  0.00  0.00    +0.094 C 
ATOM     14  C   UNL     1       0.059   1.056  24.304  0.00  0.00    +0.028 C 
ATOM     15  C   UNL     1       0.316   1.798  24.557  0.00  0.00    +0.073 C 
ATOM     16  N   UNL     1      -0.090   1.984  25.251  0.00  0.00    -0.268 NA
ATOM     28  C   UNL     1      -0.596   1.356  25.426  0.00  0.00    +0.082 C 
ENDROOT
BRANCH  13  11
ATOM      6  C   UNL     1      -2.573  -2.089  24.607  0.00  0.00    +0.107 A 
ATOM      7  C   UNL     1      -2.581  -1.265  24.587  0.00  0.00    +0.041 A 
ATOM      8  C   UNL     1      -1.878  -0.843  24.679  0.00  0.00    +0.120 A 
ATOM      9  C   UNL     1      -1.167  -1.245  24.791  0.00  0.00    +0.164 A 
ATOM     10  O   UNL     1      -0.566  -0.686  24.865  0.00  0.00    -0.438 OA
ATOM     11  C   UNL     1      -0.905   0.063  24.799  0.00  0.00    +0.207 A 
ATOM     12  N   UNL     1      -1.716  -0.035  24.684  0.00  0.00    -0.212 NA
ATOM     29  C   UNL     1      -1.158  -2.071  24.810  0.00  0.00    +0.040 A 
ATOM     30  C   UNL     1      -1.861  -2.492  24.719  0.00  0.00    +0.022 A 
BRANCH   6   3
ATOM      3  S   UNL     1      -3.275  -2.511  24.515  0.00  0.00    +0.009 S 
ATOM      4  O   UNL     1      -3.516  -2.276  25.268  0.00  0.00    -0.169 OA
ATOM      5  O   UNL     1      -3.035  -2.748  23.762  0.00  0.00    -0.169 OA
BRANCH   3   2
ATOM      1  C   UNL     1      -4.489  -2.753  23.800  0.00  0.00    +0.028 C 
ATOM      2  C   UNL     1      -3.978  -2.934  24.423  0.00  0.00    +0.156 C 
ENDBRANCH   3   2
ENDBRANCH   6   3
ENDBRANCH  13  11
BRANCH  16  17
ATOM     17  C   UNL     1      -0.004   2.675  25.693  0.00  0.00    +0.099 C 
BRANCH  17  18
ATOM     18  C   UNL     1      -0.475   3.332  25.528  0.00  0.00    -0.006 A 
ATOM     19  C   UNL     1      -0.215   3.902  24.990  0.00  0.00    -0.003 A 
ATOM     20  C   UNL     1      -0.687   4.558  24.825  0.00  0.00    +0.004 A 
ATOM     21  C   UNL     1      -1.417   4.646  25.198  0.00  0.00    +0.071 A 
ATOM     22  C   UNL     1      -1.677   4.076  25.736  0.00  0.00    +0.004 A 
ATOM     23  C   UNL     1      -1.206   3.419  25.901  0.00  0.00    -0.003 A 
BRANCH  21  24
ATOM     24  C   UNL     1      -1.888   5.302  25.033  0.00  0.00    +0.419 C 
ATOM     25  F   UNL     1      -2.359   5.960  24.868  0.00  0.00    -0.166 F 
ATOM     26  F   UNL     1      -1.294   5.800  25.316  0.00  0.00    -0.166 F 
ATOM     27  F   UNL     1      -2.482   4.805  24.750  0.00  0.00    -0.166 F 
ENDBRANCH  21  24
ENDBRANCH  17  18
ENDBRANCH  16  17
TORSDOF 6
ENDMDL
MODEL 4
REMARK VINA RESULT:     -11.6      3.094      5.588
REMARK  Name = 
REMARK  6 active torsions:
REMARK  status: ('A' for Active; 'I' for Inactive)
REMARK    1  A    between atoms: C_2  and  S_3
REMARK    2  A    between atoms: S_3  and  C_6
REMARK    3  A    between atoms: C_11  and  C_13
REMARK    4  A    between atoms: N_16  and  C_17
REMARK    5  A    between atoms: C_17  and  C_18
REMARK    6  A    between atoms: C_21  and  C_24
REMARK                            x       y       z     vdW  Elec       q    Type
REMARK                         _______ _______ _______ _____ _____    ______ ____
ROOT
ATOM     13  C   UNL     1      -4.157   1.659  24.987  0.00  0.00    +0.094 C 
ATOM     14  C   UNL     1      -4.834   1.622  24.519  0.00  0.00    +0.028 C 
ATOM     15  C   UNL     1      -5.121   0.849  24.544  0.00  0.00    +0.073 C 
ATOM     16  N   UNL     1      -4.620   0.408  25.029  0.00  0.00    -0.268 NA
ATOM     28  C   UNL     1      -4.024   0.909  25.303  0.00  0.00    +0.082 C 
ENDROOT
BRANCH  13  11
ATOM      6  C   UNL     1      -1.916   4.396  25.248  0.00  0.00    +0.107 A 
ATOM      7  C   UNL     1      -2.056   3.693  24.842  0.00  0.00    +0.041 A 
ATOM      8  C   UNL     1      -2.718   3.236  25.023  0.00  0.00    +0.120 A 
ATOM      9  C   UNL     1      -3.241   3.484  25.611  0.00  0.00    +0.164 A 
ATOM     10  O   UNL     1      -3.843   2.923  25.669  0.00  0.00    -0.438 OA
ATOM     11  C   UNL     1      -3.693   2.329  25.117  0.00  0.00    +0.207 A 
ATOM     12  N   UNL     1      -2.998   2.523  24.718  0.00  0.00    -0.212 NA
ATOM     29  C   UNL     1      -3.101   4.188  26.018  0.00  0.00    +0.040 A 
ATOM     30  C   UNL     1      -2.439   4.644  25.836  0.00  0.00    +0.022 A 
BRANCH   6   3
ATOM      3  S   UNL     1      -1.253   4.853  25.067  0.00  0.00    +0.009 S 
ATOM      4  O   UNL     1      -0.777   4.181  25.115  0.00  0.00    -0.169 OA
ATOM      5  O   UNL     1      -1.729   5.525  25.020  0.00  0.00    -0.169 OA
BRANCH   3   2
ATOM      1  C   UNL     1      -0.115   5.109  24.242  0.00  0.00    +0.028 C 
ATOM      2  C   UNL     1      -0.590   5.310  24.886  0.00  0.00    +0.156 C 
ENDBRANCH   3   2
ENDBRANCH   6   3
ENDBRANCH  13  11
BRANCH  16  17
ATOM     17  C   UNL     1      -4.700  -0.393  25.209  0.00  0.00    +0.099 C 
BRANCH  17  18
ATOM     18  C   UNL     1      -4.117  -0.929  24.977  0.00  0.00    -0.006 A 
ATOM     19  C   UNL     1      -3.513  -1.134  25.502  0.00  0.00    -0.003 A 
ATOM     20  C   UNL     1      -2.931  -1.670  25.269  0.00  0.00    +0.004 A 
ATOM     21  C   UNL     1      -2.951  -2.001  24.514  0.00  0.00    +0.071 A 
ATOM     22  C   UNL     1      -3.555  -1.795  23.990  0.00  0.00    +0.004 A 
ATOM     23  C   UNL     1      -4.138  -1.259  24.221  0.00  0.00    -0.003 A 
BRANCH  21  24
ATOM     24  C   UNL     1      -2.368  -2.536  24.282  0.00  0.00    +0.419 C 
ATOM     25  F   UNL     1      -1.785  -3.073  24.050  0.00  0.00    -0.166 F 
ATOM     26  F   UNL     1      -2.917  -3.151  24.324  0.00  0.00    -0.166 F 
ATOM     27  F   UNL     1      -1.820  -1.922  24.240  0.00  0.00    -0.166 F 
ENDBRANCH  21  24
ENDBRANCH  17  18
ENDBRANCH  16  17
TORSDOF 6
ENDMDL
MODEL 5
REMARK VINA RESULT:     -11.3      2.027      2.927
REMARK  Name = 
REMARK  6 active torsions:
REMARK  status: ('A' for Active; 'I' for Inactive)
REMARK    1  A    between atoms: C_2  and  S_3
REMARK    2  A    between atoms: S_3  and  C_6
REMARK    3  A    between atoms: C_11  and  C_13
REMARK    4  A    between atoms: N_16  and  C_17
REMARK    5  A    between atoms: C_17  and  C_18
REMARK    6  A    between atoms: C_21  and  C_24
REMARK                            x       y       z     vdW  Elec       q    Type
REMARK                         _______ _______ _______ _____ _____    ______ ____
ROOT
ATOM     13  C   UNL     1      -1.254   1.733  25.364  0.00  0.00    +0.094 C 
ATOM     14  C   UNL     1      -0.613   2.133  25.695  0.00  0.00    +0.028 C 
ATOM     15  C   UNL     1      -0.787   2.940  25.696  0.00  0.00    +0.073 C 
ATOM     16  N   UNL     1      -1.536   3.038  25.365  0.00  0.00    -0.268 NA
ATOM     28  C   UNL     1      -1.825   2.292  25.160  0.00  0.00    +0.082 C 
ENDROOT
BRANCH  13  11
ATOM      6  C   UNL     1      -1.910  -1.710  24.824  0.00  0.00    +0.107 A 
ATOM      7  C   UNL     1      -2.262  -0.965  24.840  0.00  0.00    +0.041 A 
ATOM      8  C   UNL     1      -1.808  -0.297  25.012  0.00  0.00    +0.120 A 
ATOM      9  C   UNL     1      -1.001  -0.377  25.168  0.00  0.00    +0.164 A 
ATOM     10  O   UNL     1      -0.696   0.374  25.319  0.00  0.00    -0.438 OA
ATOM     11  C   UNL     1      -1.313   0.918  25.256  0.00  0.00    +0.207 A 
ATOM     12  N   UNL     1      -1.999   0.502  25.066  0.00  0.00    -0.212 NA
ATOM     29  C   UNL     1      -0.649  -1.123  25.152  0.00  0.00    +0.040 A 
ATOM     30  C   UNL     1      -1.104  -1.790  24.980  0.00  0.00    +0.022 A 
BRANCH   6   3
ATOM      3  S   UNL     1      -2.364  -2.377  24.653  0.00  0.00    +0.009 S 
ATOM      4  O   UNL     1      -2.891  -2.174  25.254  0.00  0.00    -0.169 OA
ATOM      5  O   UNL     1      -1.838  -2.581  24.051  0.00  0.00    -0.169 OA
BRANCH   3   2
ATOM      1  C   UNL     1      -3.626  -2.966  24.332  0.00  0.00    +0.028 C 
ATOM      2  C   UNL     1      -2.819  -3.044  24.481  0.00  0.00    +0.156 C 
ENDBRANCH   3   2
ENDBRANCH   6   3
ENDBRANCH  13  11
BRANCH  16  17
ATOM     17  C   UNL     1      -1.929   3.755  25.258  0.00  0.00    +0.099 C 
BRANCH  17  18
ATOM     18  C   UNL     1      -2.752   3.790  25.320  0.00  0.00    -0.006 A 
ATOM     19  C   UNL     1      -3.220   3.716  24.644  0.00  0.00    -0.003 A 
ATOM     20  C   UNL     1      -4.041   3.750  24.707  0.00  0.00    +0.004 A 
ATOM     21  C   UNL     1      -4.395   3.858  25.444  0.00  0.00    +0.071 A 
ATOM     22  C   UNL     1      -3.927   3.932  26.120  0.00  0.00    +0.004 A 
ATOM     23  C   UNL     1      -3.105   3.898  26.058  0.00  0.00    -0.003 A 
BRANCH  21  24
ATOM     24  C   UNL     1      -5.217   3.892  25.506  0.00  0.00    +0.419 C 
ATOM     25  F   UNL     1      -6.039   3.926  25.568  0.00  0.00    -0.166 F 
ATOM     26  F   UNL     1      -5.239   3.081  25.657  0.00  0.00    -0.166 F 
ATOM     27  F   UNL     1      -5.195   4.702  25.355  0.00  0.00    -0.166 F 
ENDBRANCH  21  24
ENDBRANCH  17  18
ENDBRANCH  16  17
TORSDOF 6
ENDMDL
