MODEL 1
REMARK VINA RESULT:     -10.2      0.000      0.000
REMARK  Name = 
REMARK  8 active torsions:
REMARK  status: ('A' for Active; 'I' for Inactive)
REMARK    1  A    between atoms: C_8  and  N_9
REMARK    2  A    between atoms: C_10  and  C_12
REMARK    3  A    between atoms: C_15  and  O_16
REMARK    4  A    between atoms: O_16  and  C_17
REMARK    5  A    between atoms: C_17  and  C_18
REMARK    6  A    between atoms: C_18  and  N_19
REMARK    7  A    between atoms: N_29  and  C_30
REMARK    8  A    between atoms: C_32  and  C_36
REMARK                            x       y       z     vdW  Elec       q    Type
REMARK                         _______ _______ _______ _____ _____    ______ ____
ROOT
ATOM      1  O   UNL     1      -1.637  -2.162  24.598  0.00  0.00    -0.221 OA
ATOM      2  C   UNL     1      -2.259  -1.644  24.758  0.00  0.00    +0.174 C 
ATOM      3  C   UNL     1      -2.884  -1.957  25.195  0.00  0.00    +0.037 C 
ATOM      4  C   UNL     1      -3.578  -1.585  25.442  0.00  0.00    +0.024 C 
ATOM      5  C   UNL     1      -3.817  -0.806  25.313  0.00  0.00    +0.095 C 
ATOM      6  N   UNL     1      -3.422  -0.208  24.905  0.00  0.00    -0.261 N 
ATOM      7  C   UNL     1      -2.691  -0.240  24.525  0.00  0.00    +0.119 C 
ATOM      8  C   UNL     1      -2.173  -0.879  24.460  0.00  0.00    +0.146 C 
ATOM     27  C   UNL     1      -3.811   0.520  24.872  0.00  0.00    +0.328 C 
ATOM     28  O   UNL     1      -3.464   1.155  24.477  0.00  0.00    -0.250 OA
ATOM     29  N   UNL     1      -4.547   0.611  25.234  0.00  0.00    -0.162 NA
ENDROOT
BRANCH  29  30
ATOM     30  C   UNL     1      -4.935   1.338  25.201  0.00  0.00    +0.076 A 
ATOM     31  C   UNL     1      -4.575   2.011  25.516  0.00  0.00    +0.027 A 
ATOM     32  C   UNL     1      -4.964   2.739  25.482  0.00  0.00    +0.070 A 
ATOM     33  C   UNL     1      -5.710   2.793  25.136  0.00  0.00    +0.010 A 
ATOM     34  C   UNL     1      -6.069   2.120  24.822  0.00  0.00    +0.002 A 
ATOM     35  C   UNL     1      -5.681   1.392  24.855  0.00  0.00    +0.017 A 
BRANCH  32  36
ATOM     36  C   UNL     1      -4.604   3.412  25.797  0.00  0.00    +0.100 C 
ATOM     37  N   UNL     1      -4.245   4.085  26.110  0.00  0.00    -0.191 NA
ENDBRANCH  32  36
ENDBRANCH  29  30
BRANCH   8   9
ATOM      9  N   UNL     1      -1.477  -0.735  24.041  0.00  0.00    -0.199 NA
ATOM     10  C   UNL     1      -0.888  -0.261  24.371  0.00  0.00    +0.265 C 
ATOM     11  O   UNL     1      -0.995   0.068  25.119  0.00  0.00    -0.268 OA
BRANCH  10  12
ATOM     12  C   UNL     1      -0.192  -0.116  23.952  0.00  0.00    +0.055 A 
ATOM     13  C   UNL     1       0.116   0.647  23.916  0.00  0.00    +0.008 A 
ATOM     14  C   UNL     1       0.812   0.792  23.497  0.00  0.00    +0.037 A 
ATOM     15  C   UNL     1       1.200   0.173  23.114  0.00  0.00    +0.139 A 
ATOM     25  C   UNL     1       0.891  -0.591  23.150  0.00  0.00    +0.037 A 
ATOM     26  C   UNL     1       0.195  -0.736  23.569  0.00  0.00    +0.008 A 
BRANCH  15  16
ATOM     16  O   UNL     1       1.896   0.317  22.695  0.00  0.00    -0.474 OA
BRANCH  16  17
ATOM     17  C   UNL     1       2.626   0.225  23.066  0.00  0.00    +0.223 C 
BRANCH  17  18
ATOM     18  C   UNL     1       3.322   0.282  22.626  0.00  0.00    +0.120 C 
BRANCH  18  19
ATOM     19  N   UNL     1       4.053   0.176  22.994  0.00  0.00    -0.265 NA
ATOM     20  C   UNL     1       4.577   0.810  23.062  0.00  0.00    +0.105 C 
ATOM     21  C   UNL     1       5.307   0.703  23.429  0.00  0.00    +0.159 C 
ATOM     22  O   UNL     1       5.515  -0.037  23.729  0.00  0.00    -0.351 OA
ATOM     23  C   UNL     1       4.991  -0.671  23.661  0.00  0.00    +0.159 C 
ATOM     24  C   UNL     1       4.260  -0.564  23.293  0.00  0.00    +0.105 C 
ENDBRANCH  18  19
ENDBRANCH  17  18
ENDBRANCH  16  17
ENDBRANCH  15  16
ENDBRANCH  10  12
ENDBRANCH   8   9
TORSDOF 8
ENDMDL
MODEL 2
REMARK VINA RESULT:      -9.0      1.974      2.851
REMARK  Name = 
REMARK  8 active torsions:
REMARK  status: ('A' for Active; 'I' for Inactive)
REMARK    1  A    between atoms: C_8  and  N_9
REMARK    2  A    between atoms: C_10  and  C_12
REMARK    3  A    between atoms: C_15  and  O_16
REMARK    4  A    between atoms: O_16  and  C_17
REMARK    5  A    between atoms: C_17  and  C_18
REMARK    6  A    between atoms: C_18  and  N_19
REMARK    7  A    between atoms: N_29  and  C_30
REMARK    8  A    between atoms: C_32  and  C_36
REMARK                            x       y       z     vdW  Elec       q    Type
REMARK                         _______ _______ _______ _____ _____    ______ ____
ROOT
ATOM      1  O   UNL     1      -0.312   4.118  24.792  0.00  0.00    -0.221 OA
ATOM      2  C   UNL     1      -1.112   3.962  24.925  0.00  0.00    +0.174 C 
ATOM      3  C   UNL     1      -1.527   4.542  25.338  0.00  0.00    +0.037 C 
ATOM      4  C   UNL     1      -2.322   4.549  25.556  0.00  0.00    +0.024 C 
ATOM      5  C   UNL     1      -2.900   3.977  25.413  0.00  0.00    +0.095 C 
ATOM      6  N   UNL     1      -2.824   3.258  25.018  0.00  0.00    -0.261 N 
ATOM      7  C   UNL     1      -2.152   2.931  24.668  0.00  0.00    +0.119 C 
ATOM      8  C   UNL     1      -1.390   3.245  24.626  0.00  0.00    +0.146 C 
ATOM     27  C   UNL     1      -3.511   2.803  24.966  0.00  0.00    +0.328 C 
ATOM     28  O   UNL     1      -3.495   2.073  24.582  0.00  0.00    -0.250 OA
ATOM     29  N   UNL     1      -4.214   3.079  25.298  0.00  0.00    -0.162 NA
ENDROOT
BRANCH  29  30
ATOM     30  C   UNL     1      -4.900   2.625  25.246  0.00  0.00    +0.076 A 
ATOM     31  C   UNL     1      -5.335   2.456  25.927  0.00  0.00    +0.027 A 
ATOM     32  C   UNL     1      -6.022   2.002  25.874  0.00  0.00    +0.070 A 
ATOM     33  C   UNL     1      -6.274   1.716  25.143  0.00  0.00    +0.010 A 
ATOM     34  C   UNL     1      -5.839   1.885  24.462  0.00  0.00    +0.002 A 
ATOM     35  C   UNL     1      -5.152   2.340  24.514  0.00  0.00    +0.017 A 
BRANCH  32  36
ATOM     36  C   UNL     1      -6.457   1.833  26.555  0.00  0.00    +0.100 C 
ATOM     37  N   UNL     1      -6.892   1.664  27.235  0.00  0.00    -0.191 NA
ENDBRANCH  32  36
ENDBRANCH  29  30
BRANCH   8   9
ATOM      9  N   UNL     1      -0.832   2.780  24.235  0.00  0.00    -0.199 NA
ATOM     10  C   UNL     1      -0.565   2.079  24.578  0.00  0.00    +0.265 C 
ATOM     11  O   UNL     1      -0.856   1.844  25.313  0.00  0.00    -0.268 OA
BRANCH  10  12
ATOM     12  C   UNL     1      -0.007   1.614  24.186  0.00  0.00    +0.055 A 
ATOM     13  C   UNL     1      -0.229   0.887  23.866  0.00  0.00    +0.008 A 
ATOM     14  C   UNL     1       0.329   0.422  23.474  0.00  0.00    +0.037 A 
ATOM     15  C   UNL     1       1.108   0.683  23.402  0.00  0.00    +0.139 A 
ATOM     25  C   UNL     1       1.329   1.410  23.723  0.00  0.00    +0.037 A 
ATOM     26  C   UNL     1       0.771   1.876  24.115  0.00  0.00    +0.008 A 
BRANCH  15  16
ATOM     16  O   UNL     1       1.665   0.218  23.011  0.00  0.00    -0.474 OA
BRANCH  16  17
ATOM     17  C   UNL     1       2.470   0.364  23.115  0.00  0.00    +0.223 C 
BRANCH  17  18
ATOM     18  C   UNL     1       3.028  -0.118  22.745  0.00  0.00    +0.120 C 
BRANCH  18  19
ATOM     19  N   UNL     1       3.801  -0.151  23.033  0.00  0.00    -0.265 NA
ATOM     20  C   UNL     1       4.322   0.473  22.888  0.00  0.00    +0.105 C 
ATOM     21  C   UNL     1       5.094   0.440  23.175  0.00  0.00    +0.159 C 
ATOM     22  O   UNL     1       5.347  -0.216  23.607  0.00  0.00    -0.351 OA
ATOM     23  C   UNL     1       4.826  -0.839  23.752  0.00  0.00    +0.159 C 
ATOM     24  C   UNL     1       4.053  -0.807  23.465  0.00  0.00    +0.105 C 
ENDBRANCH  18  19
ENDBRANCH  17  18
ENDBRANCH  16  17
ENDBRANCH  15  16
ENDBRANCH  10  12
ENDBRANCH   8   9
TORSDOF 8
ENDMDL
MODEL 3
REMARK VINA RESULT:      -6.6      1.598      3.055
REMARK  Name = 
REMARK  8 active torsions:
REMARK  status: ('A' for Active; 'I' for Inactive)
REMARK    1  A    between atoms: C_8  and  N_9
REMARK    2  A    between atoms: C_10  and  C_12
REMARK    3  A    between atoms: C_15  and  O_16
REMARK    4  A    between atoms: O_16  and  C_17
REMARK    5  A    between atoms: C_17  and  C_18
REMARK    6  A    between atoms: C_18  and  N_19
REMARK    7  A    between atoms: N_29  and  C_30
REMARK    8  A    between atoms: C_32  and  C_36
REMARK                            x       y       z     vdW  Elec       q    Type
REMARK                         _______ _______ _______ _____ _____    ______ ____
ROOT
ATOM      1  O   UNL     1      -0.995   2.918  24.143  0.00  0.00    -0.221 OA
ATOM      2  C   UNL     1      -1.562   2.323  24.221  0.00  0.00    +0.174 C 
ATOM      3  C   UNL     1      -2.273   2.549  24.572  0.00  0.00    +0.037 C 
ATOM      4  C   UNL     1      -2.940   2.089  24.727  0.00  0.00    +0.024 C 
ATOM      5  C   UNL     1      -3.060   1.288  24.568  0.00  0.00    +0.095 C 
ATOM      6  N   UNL     1      -2.544   0.751  24.215  0.00  0.00    -0.261 N 
ATOM      7  C   UNL     1      -1.779   0.880  23.935  0.00  0.00    +0.119 C 
ATOM      8  C   UNL     1      -1.342   1.581  23.937  0.00  0.00    +0.146 C 
ATOM     27  C   UNL     1      -2.830  -0.019  24.133  0.00  0.00    +0.328 C 
ATOM     28  O   UNL     1      -2.357  -0.600  23.787  0.00  0.00    -0.250 OA
ATOM     29  N   UNL     1      -3.588  -0.208  24.395  0.00  0.00    -0.162 NA
ENDROOT
BRANCH  29  30
ATOM     30  C   UNL     1      -3.874  -0.977  24.312  0.00  0.00    +0.076 A 
ATOM     31  C   UNL     1      -3.551  -1.587  24.765  0.00  0.00    +0.027 A 
ATOM     32  C   UNL     1      -3.837  -2.357  24.682  0.00  0.00    +0.070 A 
ATOM     33  C   UNL     1      -4.444  -2.517  24.148  0.00  0.00    +0.010 A 
ATOM     34  C   UNL     1      -4.766  -1.907  23.695  0.00  0.00    +0.002 A 
ATOM     35  C   UNL     1      -4.480  -1.137  23.778  0.00  0.00    +0.017 A 
BRANCH  32  36
ATOM     36  C   UNL     1      -3.514  -2.967  25.135  0.00  0.00    +0.100 C 
ATOM     37  N   UNL     1      -3.192  -3.577  25.588  0.00  0.00    -0.191 NA
ENDBRANCH  32  36
ENDBRANCH  29  30
BRANCH   8   9
ATOM      9  N   UNL     1      -0.585   1.531  23.613  0.00  0.00    -0.199 NA
ATOM     10  C   UNL     1      -0.037   0.997  23.922  0.00  0.00    +0.265 C 
ATOM     11  O   UNL     1      -0.248   0.513  24.555  0.00  0.00    -0.268 OA
BRANCH  10  12
ATOM     12  C   UNL     1       0.719   0.948  23.597  0.00  0.00    +0.055 A 
ATOM     13  C   UNL     1       1.279   1.529  23.766  0.00  0.00    +0.008 A 
ATOM     14  C   UNL     1       2.036   1.480  23.442  0.00  0.00    +0.037 A 
ATOM     15  C   UNL     1       2.233   0.849  22.949  0.00  0.00    +0.139 A 
ATOM     25  C   UNL     1       1.673   0.267  22.780  0.00  0.00    +0.037 A 
ATOM     26  C   UNL     1       0.916   0.317  23.105  0.00  0.00    +0.008 A 
BRANCH  15  16
ATOM     16  O   UNL     1       2.990   0.799  22.624  0.00  0.00    -0.474 OA
BRANCH  16  17
ATOM     17  C   UNL     1       3.640   0.662  23.113  0.00  0.00    +0.223 C 
BRANCH  17  18
ATOM     18  C   UNL     1       4.316   0.302  22.808  0.00  0.00    +0.120 C 
BRANCH  18  19
ATOM     19  N   UNL     1       4.890   0.001  23.320  0.00  0.00    -0.265 NA
ATOM     20  C   UNL     1       5.528   0.473  23.548  0.00  0.00    +0.105 C 
ATOM     21  C   UNL     1       6.101   0.172  24.058  0.00  0.00    +0.159 C 
ATOM     22  O   UNL     1       6.037  -0.600  24.342  0.00  0.00    -0.351 OA
ATOM     23  C   UNL     1       5.400  -1.072  24.115  0.00  0.00    +0.159 C 
ATOM     24  C   UNL     1       4.826  -0.771  23.603  0.00  0.00    +0.105 C 
ENDBRANCH  18  19
ENDBRANCH  17  18
ENDBRANCH  16  17
ENDBRANCH  15  16
ENDBRANCH  10  12
ENDBRANCH   8   9
TORSDOF 8
ENDMDL
