REMARK  Name = 
REMARK  8 active torsions:
REMARK  status: ('A' for Active; 'I' for Inactive)
REMARK    1  A    between atoms: O_2  and  C_3
REMARK    2  A    between atoms: C_6  and  C_9
REMARK    3  A    between atoms: C_11  and  C_12
REMARK    4  A    between atoms: C_12  and  C_13
REMARK    5  A    between atoms: C_18  and  C_19
REMARK    6  A    between atoms: C_19  and  N_20
REMARK    7  A    between atoms: N_23  and  C_24
REMARK    8  A    between atoms: C_24  and  C_25
REMARK                            x       y       z     vdW  Elec       q    Type
REMARK                         _______ _______ _______ _____ _____    ______ ____
ROOT
ATOM     13  C   UNL     1       0.715  -5.362   0.000  0.00  0.00    +0.121 C 
ATOM     14  C   UNL     1       0.000  -4.950   0.000  0.00  0.00    +0.033 C 
ATOM     15  C   UNL     1       0.000  -4.125   0.000  0.00  0.00    +0.038 C 
ATOM     16  C   UNL     1       0.715  -3.712   0.000  0.00  0.00    +0.181 C 
ATOM     17  O   UNL     1       0.715  -2.888   0.000  0.00  0.00    -0.220 OA
ATOM     18  C   UNL     1       1.429  -4.125   0.000  0.00  0.00    +0.167 C 
ATOM     31  O   UNL     1       1.429  -4.950   0.000  0.00  0.00    -0.354 OA
ENDROOT
BRANCH  13  12
ATOM     12  C   UNL     1       0.715  -6.188   0.000  0.00  0.00    +0.079 C 
BRANCH  12  11
ATOM      9  C   UNL     1      -1.306  -6.878   0.000  0.00  0.00    +0.177 A 
ATOM     10  C   UNL     1      -0.754  -6.264   0.000  0.00  0.00    +0.058 A 
ATOM     11  C   UNL     1       0.000  -6.600   0.000  0.00  0.00    +0.103 A 
ATOM     32  N   UNL     1      -0.086  -7.420   0.000  0.00  0.00    -0.081 NA
ATOM     33  O   UNL     1      -0.893  -7.592   0.000  0.00  0.00    -0.354 OA
BRANCH   9   6
ATOM      3  C   UNL     1      -3.767  -6.619   0.000  0.00  0.00    +0.139 A 
ATOM      4  C   UNL     1      -3.282  -5.951   0.000  0.00  0.00    +0.037 A 
ATOM      5  C   UNL     1      -2.462  -6.038   0.000  0.00  0.00    +0.006 A 
ATOM      6  C   UNL     1      -2.126  -6.791   0.000  0.00  0.00    +0.037 A 
ATOM      7  C   UNL     1      -2.611  -7.459   0.000  0.00  0.00    +0.006 A 
ATOM      8  C   UNL     1      -3.432  -7.372   0.000  0.00  0.00    +0.037 A 
BRANCH   3   2
ATOM      1  C   UNL     1      -5.073  -7.200   0.000  0.00  0.00    +0.252 C 
ATOM      2  O   UNL     1      -4.588  -6.533   0.000  0.00  0.00    -0.471 OA
ENDBRANCH   3   2
ENDBRANCH   9   6
ENDBRANCH  12  11
ENDBRANCH  13  12
BRANCH  18  19
ATOM     19  C   UNL     1       2.143  -3.712   0.000  0.00  0.00    +0.149 C 
BRANCH  19  20
ATOM     20  N   UNL     1       2.858  -4.125   0.000  0.00  0.00    -0.185 NA
ATOM     21  C   UNL     1       3.572  -3.712   0.000  0.00  0.00    +0.340 C 
ATOM     22  O   UNL     1       3.572  -2.888   0.000  0.00  0.00    -0.249 OA
ATOM     23  N   UNL     1       4.287  -4.125   0.000  0.00  0.00    -0.182 NA
BRANCH  23  24
ATOM     24  C   UNL     1       5.001  -3.712   0.000  0.00  0.00    +0.143 C 
BRANCH  24  25
ATOM     25  C   UNL     1       5.716  -4.125   0.000  0.00  0.00    -0.001 A 
ATOM     26  C   UNL     1       6.430  -3.712   0.000  0.00  0.00    -0.003 A 
ATOM     27  C   UNL     1       7.145  -4.125   0.000  0.00  0.00    -0.000 A 
ATOM     28  C   UNL     1       7.145  -4.950   0.000  0.00  0.00    -0.000 A 
ATOM     29  C   UNL     1       6.430  -5.362   0.000  0.00  0.00    -0.000 A 
ATOM     30  C   UNL     1       5.716  -4.950   0.000  0.00  0.00    -0.003 A 
ENDBRANCH  24  25
ENDBRANCH  23  24
ENDBRANCH  19  20
ENDBRANCH  18  19
TORSDOF 8
