MODEL 1
REMARK VINA RESULT:     -13.1      0.000      0.000
REMARK  Name = 
REMARK  5 active torsions:
REMARK  status: ('A' for Active; 'I' for Inactive)
REMARK    1  A    between atoms: O_2  and  C_3
REMARK    2  A    between atoms: C_6  and  C_9
REMARK    3  A    between atoms: C_16  and  C_17
REMARK    4  A    between atoms: N_19  and  C_20
REMARK    5  A    between atoms: C_27  and  C_29
REMARK                            x       y       z     vdW  Elec       q    Type
REMARK                         _______ _______ _______ _____ _____    ______ ____
ROOT
ATOM      9  C   UNL     1      -3.655   0.257  24.747  0.00  0.00    +0.249 C 
ATOM     10  O   UNL     1      -4.358   0.686  24.762  0.00  0.00    -0.270 OA
ATOM     11  N   UNL     1      -2.930   0.650  24.762  0.00  0.00    -0.266 N 
ATOM     12  C   UNL     1      -2.227   0.221  24.747  0.00  0.00    +0.116 C 
ATOM     13  C   UNL     1      -1.501   0.614  24.762  0.00  0.00    +0.115 C 
ATOM     14  N   UNL     1      -1.481   1.438  24.792  0.00  0.00    -0.272 N 
ATOM     15  C   UNL     1      -2.185   1.869  24.808  0.00  0.00    +0.123 C 
ATOM     16  C   UNL     1      -2.909   1.475  24.793  0.00  0.00    +0.174 C 
ATOM     27  C   UNL     1      -0.756   1.833  24.808  0.00  0.00    +0.249 C 
ATOM     28  O   UNL     1      -0.052   1.402  24.792  0.00  0.00    -0.270 OA
ENDROOT
BRANCH   9   6
ATOM      3  C   UNL     1      -3.717  -2.217  24.656  0.00  0.00    +0.139 A 
ATOM      4  C   UNL     1      -3.844  -1.775  23.970  0.00  0.00    +0.037 A 
ATOM      5  C   UNL     1      -3.823  -0.951  24.000  0.00  0.00    +0.008 A 
ATOM      6  C   UNL     1      -3.676  -0.568  24.717  0.00  0.00    +0.054 A 
ATOM      7  C   UNL     1      -3.550  -1.009  25.402  0.00  0.00    +0.008 A 
ATOM      8  C   UNL     1      -3.570  -1.833  25.371  0.00  0.00    +0.037 A 
BRANCH   3   2
ATOM      1  C   UNL     1      -3.076  -3.461  24.371  0.00  0.00    +0.252 C 
ATOM      2  O   UNL     1      -3.738  -3.040  24.625  0.00  0.00    -0.471 OA
ENDBRANCH   3   2
ENDBRANCH   9   6
BRANCH  27  29
ATOM     29  C   UNL     1      -0.736   2.656  24.838  0.00  0.00    +0.054 A 
ATOM     30  C   UNL     1      -0.779   3.096  24.141  0.00  0.00    +0.005 A 
ATOM     31  C   UNL     1      -0.758   3.921  24.171  0.00  0.00    +0.000 A 
ATOM     32  C   UNL     1      -0.694   4.305  24.899  0.00  0.00    +0.000 A 
ATOM     33  C   UNL     1      -0.651   3.865  25.595  0.00  0.00    +0.000 A 
ATOM     34  C   UNL     1      -0.671   3.041  25.565  0.00  0.00    +0.005 A 
ENDBRANCH  27  29
BRANCH  16  17
ATOM     17  C   UNL     1      -3.613   1.905  24.808  0.00  0.00    +0.262 C 
ATOM     18  O   UNL     1      -4.119   1.891  24.156  0.00  0.00    -0.271 OA
ATOM     19  N   UNL     1      -3.811   2.349  25.474  0.00  0.00    -0.196 NA
BRANCH  19  20
ATOM     20  C   UNL     1      -4.515   2.779  25.489  0.00  0.00    +0.173 C 
ATOM     21  C   UNL     1      -5.204   2.453  25.173  0.00  0.00    +0.033 C 
ATOM     22  C   UNL     1      -5.908   2.883  25.189  0.00  0.00    +0.026 C 
ATOM     23  C   UNL     1      -5.923   3.639  25.520  0.00  0.00    +0.115 C 
ATOM     24  N   UNL     1      -5.234   3.964  25.836  0.00  0.00    -0.204 NA
ATOM     25  C   UNL     1      -4.529   3.534  25.821  0.00  0.00    +0.261 C 
ATOM     26  O   UNL     1      -3.841   3.859  26.136  0.00  0.00    -0.271 OA
ENDBRANCH  19  20
ENDBRANCH  16  17
TORSDOF 5
ENDMDL
MODEL 2
REMARK VINA RESULT:     -12.3      1.259      3.268
REMARK  Name = 
REMARK  5 active torsions:
REMARK  status: ('A' for Active; 'I' for Inactive)
REMARK    1  A    between atoms: O_2  and  C_3
REMARK    2  A    between atoms: C_6  and  C_9
REMARK    3  A    between atoms: C_16  and  C_17
REMARK    4  A    between atoms: N_19  and  C_20
REMARK    5  A    between atoms: C_27  and  C_29
REMARK                            x       y       z     vdW  Elec       q    Type
REMARK                         _______ _______ _______ _____ _____    ______ ____
ROOT
ATOM      9  C   UNL     1      -2.796  -0.287  24.565  0.00  0.00    +0.249 C 
ATOM     10  O   UNL     1      -2.004  -0.140  24.393  0.00  0.00    -0.270 OA
ATOM     11  N   UNL     1      -3.312   0.341  24.711  0.00  0.00    -0.266 N 
ATOM     12  C   UNL     1      -4.104   0.193  24.883  0.00  0.00    +0.116 C 
ATOM     13  C   UNL     1      -4.620   0.821  25.029  0.00  0.00    +0.115 C 
ATOM     14  N   UNL     1      -4.341   1.597  25.002  0.00  0.00    -0.272 N 
ATOM     15  C   UNL     1      -3.547   1.745  24.829  0.00  0.00    +0.123 C 
ATOM     16  C   UNL     1      -3.033   1.117  24.684  0.00  0.00    +0.174 C 
ATOM     27  C   UNL     1      -4.855   2.225  25.147  0.00  0.00    +0.249 C 
ATOM     28  O   UNL     1      -5.649   2.077  25.320  0.00  0.00    -0.270 OA
ENDROOT
BRANCH   9   6
ATOM      3  C   UNL     1      -3.632  -2.617  24.647  0.00  0.00    +0.139 A 
ATOM      4  C   UNL     1      -3.764  -2.154  23.976  0.00  0.00    +0.037 A 
ATOM      5  C   UNL     1      -3.486  -1.378  23.949  0.00  0.00    +0.008 A 
ATOM      6  C   UNL     1      -3.075  -1.064  24.593  0.00  0.00    +0.054 A 
ATOM      7  C   UNL     1      -2.943  -1.526  25.263  0.00  0.00    +0.008 A 
ATOM      8  C   UNL     1      -3.221  -2.302  25.290  0.00  0.00    +0.037 A 
BRANCH   3   2
ATOM      1  C   UNL     1      -3.890  -3.862  23.997  0.00  0.00    +0.252 C 
ATOM      2  O   UNL     1      -3.910  -3.392  24.674  0.00  0.00    -0.471 OA
ENDBRANCH   3   2
ENDBRANCH   9   6
BRANCH  27  29
ATOM     29  C   UNL     1      -4.577   3.001  25.120  0.00  0.00    +0.054 A 
ATOM     30  C   UNL     1      -4.531   3.397  24.397  0.00  0.00    +0.005 A 
ATOM     31  C   UNL     1      -4.252   4.174  24.370  0.00  0.00    +0.000 A 
ATOM     32  C   UNL     1      -4.021   4.553  25.065  0.00  0.00    +0.000 A 
ATOM     33  C   UNL     1      -4.067   4.157  25.787  0.00  0.00    +0.000 A 
ATOM     34  C   UNL     1      -4.345   3.381  25.814  0.00  0.00    +0.005 A 
ENDBRANCH  27  29
BRANCH  16  17
ATOM     17  C   UNL     1      -2.240   1.265  24.511  0.00  0.00    +0.262 C 
ATOM     18  O   UNL     1      -1.913   0.989  23.805  0.00  0.00    -0.271 OA
ATOM     19  N   UNL     1      -1.774   1.688  25.043  0.00  0.00    -0.196 NA
BRANCH  19  20
ATOM     20  C   UNL     1      -0.981   1.837  24.871  0.00  0.00    +0.173 C 
ATOM     21  C   UNL     1      -0.742   1.940  24.087  0.00  0.00    +0.033 C 
ATOM     22  C   UNL     1       0.051   2.088  23.915  0.00  0.00    +0.026 C 
ATOM     23  C   UNL     1       0.605   2.134  24.525  0.00  0.00    +0.115 C 
ATOM     24  N   UNL     1       0.365   2.031  25.307  0.00  0.00    -0.204 NA
ATOM     25  C   UNL     1      -0.428   1.882  25.481  0.00  0.00    +0.261 C 
ATOM     26  O   UNL     1      -0.667   1.780  26.263  0.00  0.00    -0.271 OA
ENDBRANCH  19  20
ENDBRANCH  16  17
TORSDOF 5
ENDMDL
MODEL 3
REMARK VINA RESULT:     -12.2      1.416      4.529
REMARK  Name = 
REMARK  5 active torsions:
REMARK  status: ('A' for Active; 'I' for Inactive)
REMARK    1  A    between atoms: O_2  and  C_3
REMARK    2  A    between atoms: C_6  and  C_9
REMARK    3  A    between atoms: C_16  and  C_17
REMARK    4  A    between atoms: N_19  and  C_20
REMARK    5  A    between atoms: C_27  and  C_29
REMARK                            x       y       z     vdW  Elec       q    Type
REMARK                         _______ _______ _______ _____ _____    ______ ____
ROOT
ATOM      9  C   UNL     1      -1.350   0.634  24.540  0.00  0.00    +0.249 C 
ATOM     10  O   UNL     1      -1.480  -0.162  24.711  0.00  0.00    -0.270 OA
ATOM     11  N   UNL     1      -1.972   1.174  24.588  0.00  0.00    -0.266 N 
ATOM     12  C   UNL     1      -1.842   1.970  24.417  0.00  0.00    +0.116 C 
ATOM     13  C   UNL     1      -2.464   2.510  24.466  0.00  0.00    +0.115 C 
ATOM     14  N   UNL     1      -3.217   2.253  24.686  0.00  0.00    -0.272 N 
ATOM     15  C   UNL     1      -3.347   1.456  24.857  0.00  0.00    +0.123 C 
ATOM     16  C   UNL     1      -2.725   0.917  24.808  0.00  0.00    +0.174 C 
ATOM     27  C   UNL     1      -3.839   2.792  24.735  0.00  0.00    +0.249 C 
ATOM     28  O   UNL     1      -3.709   3.589  24.563  0.00  0.00    -0.270 OA
ENDROOT
BRANCH   9   6
ATOM      3  C   UNL     1       0.908   1.405  23.880  0.00  0.00    +0.139 A 
ATOM      4  C   UNL     1       0.596   1.620  24.613  0.00  0.00    +0.037 A 
ATOM      5  C   UNL     1      -0.156   1.363  24.833  0.00  0.00    +0.008 A 
ATOM      6  C   UNL     1      -0.597   0.891  24.320  0.00  0.00    +0.054 A 
ATOM      7  C   UNL     1      -0.286   0.676  23.587  0.00  0.00    +0.008 A 
ATOM      8  C   UNL     1       0.467   0.933  23.367  0.00  0.00    +0.037 A 
BRANCH   3   2
ATOM      1  C   UNL     1       2.177   1.145  23.278  0.00  0.00    +0.252 C 
ATOM      2  O   UNL     1       1.659   1.662  23.660  0.00  0.00    -0.471 OA
ENDBRANCH   3   2
ENDBRANCH   9   6
BRANCH  27  29
ATOM     29  C   UNL     1      -4.591   2.535  24.954  0.00  0.00    +0.054 A 
ATOM     30  C   UNL     1      -4.831   2.587  25.743  0.00  0.00    +0.005 A 
ATOM     31  C   UNL     1      -5.584   2.331  25.963  0.00  0.00    +0.000 A 
ATOM     32  C   UNL     1      -6.096   2.021  25.394  0.00  0.00    +0.000 A 
ATOM     33  C   UNL     1      -5.856   1.968  24.607  0.00  0.00    +0.000 A 
ATOM     34  C   UNL     1      -5.104   2.225  24.387  0.00  0.00    +0.005 A 
ENDBRANCH  27  29
BRANCH  16  17
ATOM     17  C   UNL     1      -2.855   0.120  24.980  0.00  0.00    +0.262 C 
ATOM     18  O   UNL     1      -2.464  -0.235  25.614  0.00  0.00    -0.271 OA
ATOM     19  N   UNL     1      -3.376  -0.321  24.518  0.00  0.00    -0.196 NA
BRANCH  19  20
ATOM     20  C   UNL     1      -3.507  -1.118  24.689  0.00  0.00    +0.173 C 
ATOM     21  C   UNL     1      -3.330  -1.412  25.440  0.00  0.00    +0.033 C 
ATOM     22  C   UNL     1      -3.461  -2.209  25.611  0.00  0.00    +0.026 C 
ATOM     23  C   UNL     1      -3.768  -2.710  25.032  0.00  0.00    +0.115 C 
ATOM     24  N   UNL     1      -3.943  -2.416  24.283  0.00  0.00    -0.204 NA
ATOM     25  C   UNL     1      -3.813  -1.620  24.110  0.00  0.00    +0.261 C 
ATOM     26  O   UNL     1      -3.989  -1.325  23.361  0.00  0.00    -0.271 OA
ENDBRANCH  19  20
ENDBRANCH  16  17
TORSDOF 5
ENDMDL
MODEL 4
REMARK VINA RESULT:     -12.1      1.640      5.500
REMARK  Name = 
REMARK  5 active torsions:
REMARK  status: ('A' for Active; 'I' for Inactive)
REMARK    1  A    between atoms: O_2  and  C_3
REMARK    2  A    between atoms: C_6  and  C_9
REMARK    3  A    between atoms: C_16  and  C_17
REMARK    4  A    between atoms: N_19  and  C_20
REMARK    5  A    between atoms: C_27  and  C_29
REMARK                            x       y       z     vdW  Elec       q    Type
REMARK                         _______ _______ _______ _____ _____    ______ ____
ROOT
ATOM      9  C   UNL     1      -1.728   2.186  24.556  0.00  0.00    +0.249 C 
ATOM     10  O   UNL     1      -1.036   1.971  24.164  0.00  0.00    -0.270 OA
ATOM     11  N   UNL     1      -2.319   1.625  24.689  0.00  0.00    -0.266 N 
ATOM     12  C   UNL     1      -3.012   1.840  25.081  0.00  0.00    +0.116 C 
ATOM     13  C   UNL     1      -3.602   1.279  25.215  0.00  0.00    +0.115 C 
ATOM     14  N   UNL     1      -3.499   0.503  24.956  0.00  0.00    -0.272 N 
ATOM     15  C   UNL     1      -2.805   0.287  24.564  0.00  0.00    +0.123 C 
ATOM     16  C   UNL     1      -2.215   0.849  24.431  0.00  0.00    +0.174 C 
ATOM     27  C   UNL     1      -4.088  -0.059  25.089  0.00  0.00    +0.249 C 
ATOM     28  O   UNL     1      -4.782   0.157  25.481  0.00  0.00    -0.270 OA
ENDROOT
BRANCH   9   6
ATOM      3  C   UNL     1      -2.039   4.517  25.333  0.00  0.00    +0.139 A 
ATOM      4  C   UNL     1      -2.382   4.268  24.623  0.00  0.00    +0.037 A 
ATOM      5  C   UNL     1      -2.278   3.492  24.365  0.00  0.00    +0.008 A 
ATOM      6  C   UNL     1      -1.832   2.964  24.815  0.00  0.00    +0.054 A 
ATOM      7  C   UNL     1      -1.490   3.211  25.523  0.00  0.00    +0.008 A 
ATOM      8  C   UNL     1      -1.594   3.988  25.782  0.00  0.00    +0.037 A 
BRANCH   3   2
ATOM      1  C   UNL     1      -1.793   5.915  25.179  0.00  0.00    +0.252 C 
ATOM      2  O   UNL     1      -2.143   5.292  25.591  0.00  0.00    -0.471 OA
ENDBRANCH   3   2
ENDBRANCH   9   6
BRANCH  27  29
ATOM     29  C   UNL     1      -3.984  -0.834  24.830  0.00  0.00    +0.054 A 
ATOM     30  C   UNL     1      -3.634  -1.392  25.328  0.00  0.00    +0.005 A 
ATOM     31  C   UNL     1      -3.531  -2.169  25.069  0.00  0.00    +0.000 A 
ATOM     32  C   UNL     1      -3.777  -2.387  24.313  0.00  0.00    +0.000 A 
ATOM     33  C   UNL     1      -4.127  -1.831  23.815  0.00  0.00    +0.000 A 
ATOM     34  C   UNL     1      -4.231  -1.054  24.074  0.00  0.00    +0.005 A 
ENDBRANCH  27  29
BRANCH  16  17
ATOM     17  C   UNL     1      -1.521   0.633  24.039  0.00  0.00    +0.262 C 
ATOM     18  O   UNL     1      -1.349   0.957  23.300  0.00  0.00    -0.271 OA
ATOM     19  N   UNL     1      -1.002   0.095  24.385  0.00  0.00    -0.196 NA
BRANCH  19  20
ATOM     20  C   UNL     1      -0.309  -0.120  23.994  0.00  0.00    +0.173 C 
ATOM     21  C   UNL     1      -0.052   0.315  23.341  0.00  0.00    +0.033 C 
ATOM     22  C   UNL     1       0.642   0.099  22.949  0.00  0.00    +0.026 C 
ATOM     23  C   UNL     1       1.078  -0.551  23.210  0.00  0.00    +0.115 C 
ATOM     24  N   UNL     1       0.820  -0.985  23.861  0.00  0.00    -0.204 NA
ATOM     25  C   UNL     1       0.127  -0.771  24.254  0.00  0.00    +0.261 C 
ATOM     26  O   UNL     1      -0.130  -1.205  24.905  0.00  0.00    -0.271 OA
ENDBRANCH  19  20
ENDBRANCH  16  17
TORSDOF 5
ENDMDL
MODEL 5
REMARK VINA RESULT:     -11.7      1.344      4.203
REMARK  Name = 
REMARK  5 active torsions:
REMARK  status: ('A' for Active; 'I' for Inactive)
REMARK    1  A    between atoms: O_2  and  C_3
REMARK    2  A    between atoms: C_6  and  C_9
REMARK    3  A    between atoms: C_16  and  C_17
REMARK    4  A    between atoms: N_19  and  C_20
REMARK    5  A    between atoms: C_27  and  C_29
REMARK                            x       y       z     vdW  Elec       q    Type
REMARK                         _______ _______ _______ _____ _____    ______ ____
ROOT
ATOM      9  C   UNL     1      -4.211   1.291  24.767  0.00  0.00    +0.249 C 
ATOM     10  O   UNL     1      -4.588   0.582  24.584  0.00  0.00    -0.270 OA
ATOM     11  N   UNL     1      -3.392   1.355  24.691  0.00  0.00    -0.266 N 
ATOM     12  C   UNL     1      -3.014   2.065  24.874  0.00  0.00    +0.116 C 
ATOM     13  C   UNL     1      -2.195   2.129  24.798  0.00  0.00    +0.115 C 
ATOM     14  N   UNL     1      -1.754   1.482  24.538  0.00  0.00    -0.272 N 
ATOM     15  C   UNL     1      -2.131   0.771  24.355  0.00  0.00    +0.123 C 
ATOM     16  C   UNL     1      -2.950   0.709  24.431  0.00  0.00    +0.174 C 
ATOM     27  C   UNL     1      -0.935   1.545  24.462  0.00  0.00    +0.249 C 
ATOM     28  O   UNL     1      -0.557   2.256  24.645  0.00  0.00    -0.270 OA
ENDROOT
BRANCH   9   6
ATOM      3  C   UNL     1      -5.536   3.233  25.545  0.00  0.00    +0.139 A 
ATOM      4  C   UNL     1      -5.445   2.573  26.033  0.00  0.00    +0.037 A 
ATOM      5  C   UNL     1      -5.003   1.926  25.774  0.00  0.00    +0.008 A 
ATOM      6  C   UNL     1      -4.653   1.939  25.027  0.00  0.00    +0.054 A 
ATOM      7  C   UNL     1      -4.744   2.598  24.539  0.00  0.00    +0.008 A 
ATOM      8  C   UNL     1      -5.185   3.245  24.799  0.00  0.00    +0.037 A 
BRANCH   3   2
ATOM      1  C   UNL     1      -5.889   4.612  25.438  0.00  0.00    +0.252 C 
ATOM      2  O   UNL     1      -5.977   3.879  25.804  0.00  0.00    -0.471 OA
ENDBRANCH   3   2
ENDBRANCH   9   6
BRANCH  27  29
ATOM     29  C   UNL     1      -0.494   0.899  24.203  0.00  0.00    +0.054 A 
ATOM     30  C   UNL     1      -0.259   0.317  24.740  0.00  0.00    +0.005 A 
ATOM     31  C   UNL     1       0.183  -0.330  24.480  0.00  0.00    +0.000 A 
ATOM     32  C   UNL     1       0.389  -0.395  23.684  0.00  0.00    +0.000 A 
ATOM     33  C   UNL     1       0.155   0.186  23.148  0.00  0.00    +0.000 A 
ATOM     34  C   UNL     1      -0.287   0.833  23.407  0.00  0.00    +0.005 A 
ENDBRANCH  27  29
BRANCH  16  17
ATOM     17  C   UNL     1      -3.328  -0.002  24.248  0.00  0.00    +0.262 C 
ATOM     18  O   UNL     1      -3.917  -0.019  23.671  0.00  0.00    -0.271 OA
ATOM     19  N   UNL     1      -3.116  -0.695  24.641  0.00  0.00    -0.196 NA
BRANCH  19  20
ATOM     20  C   UNL     1      -3.493  -1.405  24.458  0.00  0.00    +0.173 C 
ATOM     21  C   UNL     1      -3.887  -1.489  23.737  0.00  0.00    +0.033 C 
ATOM     22  C   UNL     1      -4.264  -2.200  23.554  0.00  0.00    +0.026 C 
ATOM     23  C   UNL     1      -4.247  -2.826  24.091  0.00  0.00    +0.115 C 
ATOM     24  N   UNL     1      -3.854  -2.742  24.810  0.00  0.00    -0.204 NA
ATOM     25  C   UNL     1      -3.476  -2.032  24.994  0.00  0.00    +0.261 C 
ATOM     26  O   UNL     1      -3.083  -1.948  25.714  0.00  0.00    -0.271 OA
ENDBRANCH  19  20
ENDBRANCH  16  17
TORSDOF 5
ENDMDL
MODEL 6
REMARK VINA RESULT:     -11.3      1.312      4.304
REMARK  Name = 
REMARK  5 active torsions:
REMARK  status: ('A' for Active; 'I' for Inactive)
REMARK    1  A    between atoms: O_2  and  C_3
REMARK    2  A    between atoms: C_6  and  C_9
REMARK    3  A    between atoms: C_16  and  C_17
REMARK    4  A    between atoms: N_19  and  C_20
REMARK    5  A    between atoms: C_27  and  C_29
REMARK                            x       y       z     vdW  Elec       q    Type
REMARK                         _______ _______ _______ _____ _____    ______ ____
ROOT
ATOM      9  C   UNL     1      -2.685   2.574  24.829  0.00  0.00    +0.249 C 
ATOM     10  O   UNL     1      -3.471   2.778  24.688  0.00  0.00    -0.270 OA
ATOM     11  N   UNL     1      -2.475   1.781  24.924  0.00  0.00    -0.266 N 
ATOM     12  C   UNL     1      -1.689   1.577  25.065  0.00  0.00    +0.116 C 
ATOM     13  C   UNL     1      -1.479   0.784  25.160  0.00  0.00    +0.115 C 
ATOM     14  N   UNL     1      -2.057   0.197  25.116  0.00  0.00    -0.272 N 
ATOM     15  C   UNL     1      -2.844   0.402  24.975  0.00  0.00    +0.123 C 
ATOM     16  C   UNL     1      -3.053   1.194  24.880  0.00  0.00    +0.174 C 
ATOM     27  C   UNL     1      -1.848  -0.595  25.211  0.00  0.00    +0.249 C 
ATOM     28  O   UNL     1      -1.061  -0.800  25.352  0.00  0.00    -0.270 OA
ENDROOT
BRANCH   9   6
ATOM      3  C   UNL     1      -0.952   4.337  24.963  0.00  0.00    +0.139 A 
ATOM      4  C   UNL     1      -1.456   4.204  25.603  0.00  0.00    +0.037 A 
ATOM      5  C   UNL     1      -2.034   3.616  25.558  0.00  0.00    +0.008 A 
ATOM      6  C   UNL     1      -2.107   3.162  24.873  0.00  0.00    +0.054 A 
ATOM      7  C   UNL     1      -1.604   3.295  24.234  0.00  0.00    +0.008 A 
ATOM      8  C   UNL     1      -1.027   3.882  24.279  0.00  0.00    +0.037 A 
BRANCH   3   2
ATOM      1  C   UNL     1      -0.507   5.660  24.659  0.00  0.00    +0.252 C 
ATOM      2  O   UNL     1      -0.375   4.924  25.007  0.00  0.00    -0.471 OA
ENDBRANCH   3   2
ENDBRANCH   9   6
BRANCH  27  29
ATOM     29  C   UNL     1      -2.425  -1.182  25.167  0.00  0.00    +0.054 A 
ATOM     30  C   UNL     1      -2.587  -1.547  24.444  0.00  0.00    +0.005 A 
ATOM     31  C   UNL     1      -3.165  -2.135  24.399  0.00  0.00    +0.000 A 
ATOM     32  C   UNL     1      -3.580  -2.357  25.077  0.00  0.00    +0.000 A 
ATOM     33  C   UNL     1      -3.418  -1.993  25.799  0.00  0.00    +0.000 A 
ATOM     34  C   UNL     1      -2.840  -1.405  25.843  0.00  0.00    +0.005 A 
ENDBRANCH  27  29
BRANCH  16  17
ATOM     17  C   UNL     1      -3.840   1.399  24.739  0.00  0.00    +0.262 C 
ATOM     18  O   UNL     1      -4.070   1.661  23.992  0.00  0.00    -0.271 OA
ATOM     19  N   UNL     1      -4.395   1.341  25.345  0.00  0.00    -0.196 NA
BRANCH  19  20
ATOM     20  C   UNL     1      -5.182   1.546  25.206  0.00  0.00    +0.173 C 
ATOM     21  C   UNL     1      -5.545   1.326  24.497  0.00  0.00    +0.033 C 
ATOM     22  C   UNL     1      -6.332   1.531  24.357  0.00  0.00    +0.026 C 
ATOM     23  C   UNL     1      -6.756   1.954  24.925  0.00  0.00    +0.115 C 
ATOM     24  N   UNL     1      -6.393   2.173  25.632  0.00  0.00    -0.204 NA
ATOM     25  C   UNL     1      -5.606   1.969  25.773  0.00  0.00    +0.261 C 
ATOM     26  O   UNL     1      -5.243   2.187  26.480  0.00  0.00    -0.271 OA
ENDBRANCH  19  20
ENDBRANCH  16  17
TORSDOF 5
ENDMDL
MODEL 7
REMARK VINA RESULT:     -11.3      1.404      4.782
REMARK  Name = 
REMARK  5 active torsions:
REMARK  status: ('A' for Active; 'I' for Inactive)
REMARK    1  A    between atoms: O_2  and  C_3
REMARK    2  A    between atoms: C_6  and  C_9
REMARK    3  A    between atoms: C_16  and  C_17
REMARK    4  A    between atoms: N_19  and  C_20
REMARK    5  A    between atoms: C_27  and  C_29
REMARK                            x       y       z     vdW  Elec       q    Type
REMARK                         _______ _______ _______ _____ _____    ______ ____
ROOT
ATOM      9  C   UNL     1      -3.378   2.034  24.895  0.00  0.00    +0.249 C 
ATOM     10  O   UNL     1      -2.675   2.397  24.663  0.00  0.00    -0.270 OA
ATOM     11  N   UNL     1      -3.420   1.211  24.948  0.00  0.00    -0.266 N 
ATOM     12  C   UNL     1      -4.122   0.848  25.181  0.00  0.00    +0.116 C 
ATOM     13  C   UNL     1      -4.165   0.026  25.234  0.00  0.00    +0.115 C 
ATOM     14  N   UNL     1      -3.503  -0.433  25.054  0.00  0.00    -0.272 N 
ATOM     15  C   UNL     1      -2.799  -0.070  24.821  0.00  0.00    +0.123 C 
ATOM     16  C   UNL     1      -2.758   0.753  24.769  0.00  0.00    +0.174 C 
ATOM     27  C   UNL     1      -3.544  -1.255  25.107  0.00  0.00    +0.249 C 
ATOM     28  O   UNL     1      -4.248  -1.619  25.340  0.00  0.00    -0.270 OA
ENDROOT
BRANCH   9   6
ATOM      3  C   UNL     1      -5.363   3.411  25.435  0.00  0.00    +0.139 A 
ATOM      4  C   UNL     1      -4.756   3.326  25.989  0.00  0.00    +0.037 A 
ATOM      5  C   UNL     1      -4.095   2.867  25.809  0.00  0.00    +0.008 A 
ATOM      6  C   UNL     1      -4.040   2.493  25.075  0.00  0.00    +0.054 A 
ATOM      7  C   UNL     1      -4.645   2.578  24.522  0.00  0.00    +0.008 A 
ATOM      8  C   UNL     1      -5.307   3.037  24.702  0.00  0.00    +0.037 A 
BRANCH   3   2
ATOM      1  C   UNL     1      -5.998   4.688  25.516  0.00  0.00    +0.252 C 
ATOM      2  O   UNL     1      -6.024   3.870  25.615  0.00  0.00    -0.471 OA
ENDBRANCH   3   2
ENDBRANCH   9   6
BRANCH  27  29
ATOM     29  C   UNL     1      -2.883  -1.714  24.927  0.00  0.00    +0.054 A 
ATOM     30  C   UNL     1      -2.792  -2.028  24.169  0.00  0.00    +0.005 A 
ATOM     31  C   UNL     1      -2.131  -2.487  23.989  0.00  0.00    +0.000 A 
ATOM     32  C   UNL     1      -1.560  -2.631  24.568  0.00  0.00    +0.000 A 
ATOM     33  C   UNL     1      -1.651  -2.318  25.325  0.00  0.00    +0.000 A 
ATOM     34  C   UNL     1      -2.312  -1.859  25.504  0.00  0.00    +0.005 A 
ENDBRANCH  27  29
BRANCH  16  17
ATOM     17  C   UNL     1      -2.054   1.116  24.536  0.00  0.00    +0.262 C 
ATOM     18  O   UNL     1      -2.026   1.545  23.832  0.00  0.00    -0.271 OA
ATOM     19  N   UNL     1      -1.381   1.050  25.006  0.00  0.00    -0.196 NA
BRANCH  19  20
ATOM     20  C   UNL     1      -0.678   1.413  24.774  0.00  0.00    +0.173 C 
ATOM     21  C   UNL     1      -0.452   1.403  23.980  0.00  0.00    +0.033 C 
ATOM     22  C   UNL     1       0.252   1.766  23.748  0.00  0.00    +0.026 C 
ATOM     23  C   UNL     1       0.729   2.139  24.308  0.00  0.00    +0.115 C 
ATOM     24  N   UNL     1       0.503   2.149  25.101  0.00  0.00    -0.204 NA
ATOM     25  C   UNL     1      -0.201   1.786  25.334  0.00  0.00    +0.261 C 
ATOM     26  O   UNL     1      -0.427   1.796  26.127  0.00  0.00    -0.271 OA
ENDBRANCH  19  20
ENDBRANCH  16  17
TORSDOF 5
ENDMDL
MODEL 8
REMARK VINA RESULT:     -11.2      2.250      4.595
REMARK  Name = 
REMARK  5 active torsions:
REMARK  status: ('A' for Active; 'I' for Inactive)
REMARK    1  A    between atoms: O_2  and  C_3
REMARK    2  A    between atoms: C_6  and  C_9
REMARK    3  A    between atoms: C_16  and  C_17
REMARK    4  A    between atoms: N_19  and  C_20
REMARK    5  A    between atoms: C_27  and  C_29
REMARK                            x       y       z     vdW  Elec       q    Type
REMARK                         _______ _______ _______ _____ _____    ______ ____
ROOT
ATOM      9  C   UNL     1       0.164   0.803  23.639  0.00  0.00    +0.249 C 
ATOM     10  O   UNL     1      -0.104   1.582  23.660  0.00  0.00    -0.270 OA
ATOM     11  N   UNL     1      -0.317   0.193  23.919  0.00  0.00    -0.266 N 
ATOM     12  C   UNL     1      -0.049  -0.586  23.898  0.00  0.00    +0.116 C 
ATOM     13  C   UNL     1      -0.529  -1.196  24.178  0.00  0.00    +0.115 C 
ATOM     14  N   UNL     1      -1.278  -1.025  24.479  0.00  0.00    -0.272 N 
ATOM     15  C   UNL     1      -1.547  -0.245  24.500  0.00  0.00    +0.123 C 
ATOM     16  C   UNL     1      -1.066   0.364  24.220  0.00  0.00    +0.174 C 
ATOM     27  C   UNL     1      -1.759  -1.634  24.760  0.00  0.00    +0.249 C 
ATOM     28  O   UNL     1      -1.490  -2.414  24.738  0.00  0.00    -0.270 OA
ENDROOT
BRANCH   9   6
ATOM      3  C   UNL     1       2.411   0.291  22.735  0.00  0.00    +0.139 A 
ATOM      4  C   UNL     1       1.739  -0.021  22.371  0.00  0.00    +0.037 A 
ATOM      5  C   UNL     1       0.990   0.150  22.672  0.00  0.00    +0.008 A 
ATOM      6  C   UNL     1       0.913   0.632  23.337  0.00  0.00    +0.054 A 
ATOM      7  C   UNL     1       1.584   0.944  23.701  0.00  0.00    +0.008 A 
ATOM      8  C   UNL     1       2.333   0.773  23.400  0.00  0.00    +0.037 A 
BRANCH   3   2
ATOM      1  C   UNL     1       3.798   0.609  22.616  0.00  0.00    +0.252 C 
ATOM      2  O   UNL     1       3.159   0.121  22.434  0.00  0.00    -0.471 OA
ENDBRANCH   3   2
ENDBRANCH   9   6
BRANCH  27  29
ATOM     29  C   UNL     1      -2.507  -1.463  25.060  0.00  0.00    +0.054 A 
ATOM     30  C   UNL     1      -3.159  -1.437  24.555  0.00  0.00    +0.005 A 
ATOM     31  C   UNL     1      -3.908  -1.266  24.856  0.00  0.00    +0.000 A 
ATOM     32  C   UNL     1      -4.005  -1.122  25.663  0.00  0.00    +0.000 A 
ATOM     33  C   UNL     1      -3.354  -1.149  26.168  0.00  0.00    +0.000 A 
ATOM     34  C   UNL     1      -2.605  -1.319  25.867  0.00  0.00    +0.005 A 
ENDBRANCH  27  29
BRANCH  16  17
ATOM     17  C   UNL     1      -1.334   1.144  24.241  0.00  0.00    +0.262 C 
ATOM     18  O   UNL     1      -1.427   1.567  23.539  0.00  0.00    -0.271 OA
ATOM     19  N   UNL     1      -1.509   1.501  24.963  0.00  0.00    -0.196 NA
BRANCH  19  20
ATOM     20  C   UNL     1      -1.777   2.280  24.985  0.00  0.00    +0.173 C 
ATOM     21  C   UNL     1      -2.326   2.543  24.427  0.00  0.00    +0.033 C 
ATOM     22  C   UNL     1      -2.595   3.323  24.448  0.00  0.00    +0.026 C 
ATOM     23  C   UNL     1      -2.315   3.840  25.027  0.00  0.00    +0.115 C 
ATOM     24  N   UNL     1      -1.767   3.577  25.584  0.00  0.00    -0.204 NA
ATOM     25  C   UNL     1      -1.498   2.798  25.564  0.00  0.00    +0.261 C 
ATOM     26  O   UNL     1      -0.950   2.535  26.121  0.00  0.00    -0.271 OA
ENDBRANCH  19  20
ENDBRANCH  16  17
TORSDOF 5
ENDMDL
