MODEL 1
REMARK VINA RESULT:     -16.2      0.000      0.000
REMARK  Name = 
REMARK  5 active torsions:
REMARK  status: ('A' for Active; 'I' for Inactive)
REMARK    1  A    between atoms: C_2  and  C_3
REMARK    2  A    between atoms: C_3  and  C_4
REMARK    3  A    between atoms: N_10  and  C_11
REMARK    4  A    between atoms: C_21  and  C_23
REMARK    5  A    between atoms: C_26  and  C_29
REMARK                            x       y       z     vdW  Elec       q    Type
REMARK                         _______ _______ _______ _____ _____    ______ ____
ROOT
ATOM     11  C   UNL     1      -3.250   2.867  24.182  0.00  0.00    +0.129 A 
ATOM     12  C   UNL     1      -3.492   3.638  24.345  0.00  0.00    +0.023 A 
ATOM     13  C   UNL     1      -4.192   3.772  24.761  0.00  0.00    +0.014 A 
ATOM     14  C   UNL     1      -4.650   3.135  25.013  0.00  0.00    +0.041 A 
ATOM     15  C   UNL     1      -5.428   2.950  25.466  0.00  0.00    +0.058 C 
ATOM     16  C   UNL     1      -5.964   3.265  25.791  0.00  0.00    +0.011 C 
ATOM     17  C   UNL     1      -5.722   2.504  25.627  0.00  0.00    +0.043 C 
ATOM     18  C   UNL     1      -5.602   1.529  25.530  0.00  0.00    +0.096 C 
ATOM     19  N   UNL     1      -4.882   1.519  25.106  0.00  0.00    -0.276 N 
ATOM     20  C   UNL     1      -5.325   2.004  25.380  0.00  0.00    +0.099 C 
ATOM     21  C   UNL     1      -4.225   1.211  24.711  0.00  0.00    +0.249 C 
ATOM     22  O   UNL     1      -3.660   1.721  24.392  0.00  0.00    -0.270 OA
ATOM     35  C   UNL     1      -4.908   2.688  25.153  0.00  0.00    +0.110 C 
ATOM     36  N   UNL     1      -4.408   2.363  24.850  0.00  0.00    -0.298 N 
ATOM     37  C   UNL     1      -3.708   2.229  24.434  0.00  0.00    +0.276 A 
ATOM     38  O   UNL     1      -3.272   1.585  24.160  0.00  0.00    -0.266 OA
ENDROOT
BRANCH  21  23
ATOM     23  C   UNL     1      -4.135   0.395  24.635  0.00  0.00    +0.054 A 
ATOM     24  C   UNL     1      -4.359   0.018  23.937  0.00  0.00    +0.005 A 
ATOM     25  C   UNL     1      -4.268  -0.799  23.861  0.00  0.00    +0.000 A 
ATOM     26  C   UNL     1      -3.953  -1.238  24.484  0.00  0.00    +0.000 A 
ATOM     27  C   UNL     1      -3.728  -0.861  25.183  0.00  0.00    +0.000 A 
ATOM     28  C   UNL     1      -3.819  -0.044  25.258  0.00  0.00    +0.005 A 
BRANCH  26  29
ATOM     29  C   UNL     1      -3.862  -2.055  24.409  0.00  0.00    +0.000 A 
ATOM     30  C   UNL     1      -4.272  -2.463  23.822  0.00  0.00    +0.000 A 
ATOM     31  C   UNL     1      -4.182  -3.279  23.746  0.00  0.00    +0.000 A 
ATOM     32  C   UNL     1      -3.679  -3.688  24.258  0.00  0.00    +0.000 A 
ATOM     33  C   UNL     1      -3.269  -3.279  24.845  0.00  0.00    +0.000 A 
ATOM     34  C   UNL     1      -3.359  -2.462  24.921  0.00  0.00    +0.000 A 
ENDBRANCH  26  29
ENDBRANCH  21  23
BRANCH  11  10
ATOM      1  O   UNL     1      -1.124   2.789  23.692  0.00  0.00    -0.273 OA
ATOM      2  C   UNL     1      -1.824   2.923  24.109  0.00  0.00    +0.250 C 
ATOM     10  N   UNL     1      -2.551   2.734  23.766  0.00  0.00    -0.174 NA
BRANCH   2   3
ATOM      3  C   UNL     1      -1.798   3.245  24.868  0.00  0.00    +0.113 C 
BRANCH   3   4
ATOM      4  C   UNL     1      -1.108   3.185  25.317  0.00  0.00    -0.013 A 
ATOM      5  C   UNL     1      -0.536   3.779  25.277  0.00  0.00    -0.004 A 
ATOM      6  C   UNL     1       0.153   3.718  25.726  0.00  0.00    -0.000 A 
ATOM      7  C   UNL     1       0.270   3.064  26.216  0.00  0.00    -0.000 A 
ATOM      8  C   UNL     1      -0.302   2.471  26.256  0.00  0.00    -0.000 A 
ATOM      9  C   UNL     1      -0.991   2.531  25.807  0.00  0.00    -0.004 A 
ENDBRANCH   3   4
ENDBRANCH   2   3
ENDBRANCH  11  10
TORSDOF 5
ENDMDL
MODEL 2
REMARK VINA RESULT:     -16.0      2.489      6.125
REMARK  Name = 
REMARK  5 active torsions:
REMARK  status: ('A' for Active; 'I' for Inactive)
REMARK    1  A    between atoms: C_2  and  C_3
REMARK    2  A    between atoms: C_3  and  C_4
REMARK    3  A    between atoms: N_10  and  C_11
REMARK    4  A    between atoms: C_21  and  C_23
REMARK    5  A    between atoms: C_26  and  C_29
REMARK                            x       y       z     vdW  Elec       q    Type
REMARK                         _______ _______ _______ _____ _____    ______ ____
ROOT
ATOM     11  C   UNL     1      -1.073  -0.719  25.044  0.00  0.00    +0.129 A 
ATOM     12  C   UNL     1      -0.726  -1.421  24.785  0.00  0.00    +0.023 A 
ATOM     13  C   UNL     1      -0.108  -1.399  24.239  0.00  0.00    +0.014 A 
ATOM     14  C   UNL     1       0.163  -0.675  23.952  0.00  0.00    +0.041 A 
ATOM     15  C   UNL     1       0.788  -0.324  23.378  0.00  0.00    +0.058 C 
ATOM     16  C   UNL     1       1.301  -0.515  22.939  0.00  0.00    +0.011 C 
ATOM     17  C   UNL     1       0.956   0.176  23.197  0.00  0.00    +0.043 C 
ATOM     18  C   UNL     1       0.674   1.105  23.384  0.00  0.00    +0.096 C 
ATOM     19  N   UNL     1       0.062   0.957  23.933  0.00  0.00    -0.276 N 
ATOM     20  C   UNL     1       0.527   0.579  23.548  0.00  0.00    +0.099 C 
ATOM     21  C   UNL     1      -0.551   1.114  24.463  0.00  0.00    +0.249 C 
ATOM     22  O   UNL     1      -0.937   0.492  24.844  0.00  0.00    -0.270 OA
ATOM     35  C   UNL     1       0.300  -0.181  23.799  0.00  0.00    +0.110 C 
ATOM     36  N   UNL     1      -0.184   0.028  24.212  0.00  0.00    -0.298 N 
ATOM     37  C   UNL     1      -0.802   0.006  24.758  0.00  0.00    +0.276 A 
ATOM     38  O   UNL     1      -1.290   0.540  25.152  0.00  0.00    -0.266 OA
ENDROOT
BRANCH  21  23
ATOM     23  C   UNL     1      -0.778   1.893  24.611  0.00  0.00    +0.054 A 
ATOM     24  C   UNL     1      -0.426   2.316  25.226  0.00  0.00    +0.005 A 
ATOM     25  C   UNL     1      -0.653   3.095  25.375  0.00  0.00    +0.000 A 
ATOM     26  C   UNL     1      -1.233   3.451  24.908  0.00  0.00    +0.000 A 
ATOM     27  C   UNL     1      -1.585   3.029  24.294  0.00  0.00    +0.000 A 
ATOM     28  C   UNL     1      -1.358   2.250  24.145  0.00  0.00    +0.005 A 
BRANCH  26  29
ATOM     29  C   UNL     1      -1.460   4.231  25.057  0.00  0.00    +0.000 A 
ATOM     30  C   UNL     1      -0.973   4.854  24.826  0.00  0.00    +0.000 A 
ATOM     31  C   UNL     1      -1.200   5.633  24.974  0.00  0.00    +0.000 A 
ATOM     32  C   UNL     1      -1.915   5.788  25.355  0.00  0.00    +0.000 A 
ATOM     33  C   UNL     1      -2.403   5.165  25.586  0.00  0.00    +0.000 A 
ATOM     34  C   UNL     1      -2.176   4.385  25.437  0.00  0.00    +0.000 A 
ENDBRANCH  26  29
ENDBRANCH  21  23
BRANCH  11  10
ATOM      1  O   UNL     1      -2.968  -1.241  25.996  0.00  0.00    -0.273 OA
ATOM      2  C   UNL     1      -2.349  -1.218  25.449  0.00  0.00    +0.250 C 
ATOM     10  N   UNL     1      -1.691  -0.742  25.590  0.00  0.00    -0.174 NA
BRANCH   2   3
ATOM      3  C   UNL     1      -2.390  -1.672  24.761  0.00  0.00    +0.113 C 
BRANCH   3   4
ATOM      4  C   UNL     1      -3.122  -1.929  24.480  0.00  0.00    -0.013 A 
ATOM      5  C   UNL     1      -3.652  -1.388  24.153  0.00  0.00    -0.004 A 
ATOM      6  C   UNL     1      -4.383  -1.645  23.872  0.00  0.00    -0.000 A 
ATOM      7  C   UNL     1      -4.585  -2.444  23.917  0.00  0.00    -0.000 A 
ATOM      8  C   UNL     1      -4.055  -2.985  24.244  0.00  0.00    -0.000 A 
ATOM      9  C   UNL     1      -3.324  -2.728  24.525  0.00  0.00    -0.004 A 
ENDBRANCH   3   4
ENDBRANCH   2   3
ENDBRANCH  11  10
TORSDOF 5
ENDMDL
MODEL 3
REMARK VINA RESULT:     -15.2      1.103      4.984
REMARK  Name = 
REMARK  5 active torsions:
REMARK  status: ('A' for Active; 'I' for Inactive)
REMARK    1  A    between atoms: C_2  and  C_3
REMARK    2  A    between atoms: C_3  and  C_4
REMARK    3  A    between atoms: N_10  and  C_11
REMARK    4  A    between atoms: C_21  and  C_23
REMARK    5  A    between atoms: C_26  and  C_29
REMARK                            x       y       z     vdW  Elec       q    Type
REMARK                         _______ _______ _______ _____ _____    ______ ____
ROOT
ATOM     11  C   UNL     1      -4.417   0.684  24.354  0.00  0.00    +0.129 A 
ATOM     12  C   UNL     1      -5.110   0.261  24.498  0.00  0.00    +0.023 A 
ATOM     13  C   UNL     1      -5.704   0.588  24.968  0.00  0.00    +0.014 A 
ATOM     14  C   UNL     1      -5.604   1.339  25.294  0.00  0.00    +0.041 A 
ATOM     15  C   UNL     1      -6.039   1.950  25.825  0.00  0.00    +0.058 C 
ATOM     16  C   UNL     1      -6.638   2.044  26.179  0.00  0.00    +0.011 C 
ATOM     17  C   UNL     1      -5.952   2.459  26.035  0.00  0.00    +0.043 C 
ATOM     18  C   UNL     1      -5.209   3.108  25.978  0.00  0.00    +0.096 C 
ATOM     19  N   UNL     1      -4.684   2.676  25.491  0.00  0.00    -0.276 N 
ATOM     20  C   UNL     1      -5.329   2.587  25.779  0.00  0.00    +0.099 C 
ATOM     21  C   UNL     1      -4.005   2.503  25.055  0.00  0.00    +0.249 C 
ATOM     22  O   UNL     1      -3.941   1.781  24.660  0.00  0.00    -0.270 OA
ATOM     35  C   UNL     1      -5.490   1.827  25.480  0.00  0.00    +0.110 C 
ATOM     36  N   UNL     1      -4.911   1.763  25.150  0.00  0.00    -0.298 N 
ATOM     37  C   UNL     1      -4.317   1.435  24.680  0.00  0.00    +0.276 A 
ATOM     38  O   UNL     1      -3.570   1.646  24.401  0.00  0.00    -0.266 OA
ENDROOT
BRANCH  21  23
ATOM     23  C   UNL     1      -3.390   3.052  25.014  0.00  0.00    +0.054 A 
ATOM     24  C   UNL     1      -3.381   3.618  24.414  0.00  0.00    +0.005 A 
ATOM     25  C   UNL     1      -2.766   4.167  24.373  0.00  0.00    +0.000 A 
ATOM     26  C   UNL     1      -2.161   4.149  24.933  0.00  0.00    +0.000 A 
ATOM     27  C   UNL     1      -2.169   3.584  25.533  0.00  0.00    +0.000 A 
ATOM     28  C   UNL     1      -2.784   3.035  25.574  0.00  0.00    +0.005 A 
BRANCH  26  29
ATOM     29  C   UNL     1      -1.545   4.698  24.892  0.00  0.00    +0.000 A 
ATOM     30  C   UNL     1      -1.692   5.495  25.046  0.00  0.00    +0.000 A 
ATOM     31  C   UNL     1      -1.078   6.043  25.005  0.00  0.00    +0.000 A 
ATOM     32  C   UNL     1      -0.315   5.795  24.810  0.00  0.00    +0.000 A 
ATOM     33  C   UNL     1      -0.169   4.998  24.656  0.00  0.00    +0.000 A 
ATOM     34  C   UNL     1      -0.784   4.449  24.697  0.00  0.00    +0.000 A 
ENDBRANCH  26  29
ENDBRANCH  21  23
BRANCH  11  10
ATOM      1  O   UNL     1      -3.055  -0.776  23.472  0.00  0.00    -0.273 OA
ATOM      2  C   UNL     1      -3.649  -0.448  23.942  0.00  0.00    +0.250 C 
ATOM     10  N   UNL     1      -3.824   0.356  23.884  0.00  0.00    -0.174 NA
BRANCH   2   3
ATOM      3  C   UNL     1      -4.067  -0.924  24.471  0.00  0.00    +0.113 C 
BRANCH   3   4
ATOM      4  C   UNL     1      -3.830  -1.705  24.598  0.00  0.00    -0.013 A 
ATOM      5  C   UNL     1      -4.050  -2.295  24.064  0.00  0.00    -0.004 A 
ATOM      6  C   UNL     1      -3.813  -3.074  24.192  0.00  0.00    -0.000 A 
ATOM      7  C   UNL     1      -3.357  -3.265  24.852  0.00  0.00    -0.000 A 
ATOM      8  C   UNL     1      -3.138  -2.675  25.386  0.00  0.00    -0.000 A 
ATOM      9  C   UNL     1      -3.374  -1.895  25.259  0.00  0.00    -0.004 A 
ENDBRANCH   3   4
ENDBRANCH   2   3
ENDBRANCH  11  10
TORSDOF 5
ENDMDL
MODEL 4
REMARK VINA RESULT:     -14.3      2.231      4.574
REMARK  Name = 
REMARK  5 active torsions:
REMARK  status: ('A' for Active; 'I' for Inactive)
REMARK    1  A    between atoms: C_2  and  C_3
REMARK    2  A    between atoms: C_3  and  C_4
REMARK    3  A    between atoms: N_10  and  C_11
REMARK    4  A    between atoms: C_21  and  C_23
REMARK    5  A    between atoms: C_26  and  C_29
REMARK                            x       y       z     vdW  Elec       q    Type
REMARK                         _______ _______ _______ _____ _____    ______ ____
ROOT
ATOM     11  C   UNL     1      -1.866  -1.211  25.062  0.00  0.00    +0.129 A 
ATOM     12  C   UNL     1      -1.668  -1.987  24.862  0.00  0.00    +0.023 A 
ATOM     13  C   UNL     1      -2.224  -2.473  24.496  0.00  0.00    +0.014 A 
ATOM     14  C   UNL     1      -2.978  -2.184  24.329  0.00  0.00    +0.041 A 
ATOM     15  C   UNL     1      -3.776  -2.446  23.956  0.00  0.00    +0.058 C 
ATOM     16  C   UNL     1      -4.088  -2.997  23.654  0.00  0.00    +0.011 C 
ATOM     17  C   UNL     1      -4.280  -2.231  23.852  0.00  0.00    +0.043 C 
ATOM     18  C   UNL     1      -4.697  -1.349  24.012  0.00  0.00    +0.096 C 
ATOM     19  N   UNL     1      -4.056  -0.955  24.375  0.00  0.00    -0.276 N 
ATOM     20  C   UNL     1      -4.193  -1.599  24.103  0.00  0.00    +0.099 C 
ATOM     21  C   UNL     1      -3.632  -0.347  24.737  0.00  0.00    +0.249 C 
ATOM     22  O   UNL     1      -2.849  -0.471  24.971  0.00  0.00    -0.270 OA
ATOM     35  C   UNL     1      -3.450  -1.949  24.244  0.00  0.00    +0.110 C 
ATOM     36  N   UNL     1      -3.176  -1.409  24.529  0.00  0.00    -0.298 N 
ATOM     37  C   UNL     1      -2.620  -0.922  24.895  0.00  0.00    +0.276 A 
ATOM     38  O   UNL     1      -2.575  -0.149  25.180  0.00  0.00    -0.266 OA
ENDROOT
BRANCH  21  23
ATOM     23  C   UNL     1      -3.989   0.385  24.866  0.00  0.00    +0.054 A 
ATOM     24  C   UNL     1      -3.870   1.002  24.331  0.00  0.00    +0.005 A 
ATOM     25  C   UNL     1      -4.228   1.735  24.460  0.00  0.00    +0.000 A 
ATOM     26  C   UNL     1      -4.705   1.849  25.123  0.00  0.00    +0.000 A 
ATOM     27  C   UNL     1      -4.824   1.234  25.657  0.00  0.00    +0.000 A 
ATOM     28  C   UNL     1      -4.466   0.501  25.529  0.00  0.00    +0.005 A 
BRANCH  26  29
ATOM     29  C   UNL     1      -5.062   2.582  25.251  0.00  0.00    +0.000 A 
ATOM     30  C   UNL     1      -5.864   2.623  25.440  0.00  0.00    +0.000 A 
ATOM     31  C   UNL     1      -6.222   3.355  25.568  0.00  0.00    +0.000 A 
ATOM     32  C   UNL     1      -5.777   4.047  25.508  0.00  0.00    +0.000 A 
ATOM     33  C   UNL     1      -4.975   4.007  25.319  0.00  0.00    +0.000 A 
ATOM     34  C   UNL     1      -4.617   3.274  25.191  0.00  0.00    +0.000 A 
ENDBRANCH  26  29
ENDBRANCH  21  23
BRANCH  11  10
ATOM      1  O   UNL     1      -0.064  -0.024  25.394  0.00  0.00    -0.273 OA
ATOM      2  C   UNL     1      -0.621  -0.511  25.027  0.00  0.00    +0.250 C 
ATOM     10  N   UNL     1      -1.309  -0.725  25.428  0.00  0.00    -0.174 NA
BRANCH   2   3
ATOM      3  C   UNL     1      -0.489  -0.782  24.259  0.00  0.00    +0.113 C 
BRANCH   3   4
ATOM      4  C   UNL     1       0.083  -0.420  23.786  0.00  0.00    -0.013 A 
ATOM      5  C   UNL     1      -0.003   0.370  23.566  0.00  0.00    -0.004 A 
ATOM      6  C   UNL     1       0.568   0.731  23.093  0.00  0.00    -0.000 A 
ATOM      7  C   UNL     1       1.226   0.301  22.841  0.00  0.00    -0.000 A 
ATOM      8  C   UNL     1       1.313  -0.489  23.062  0.00  0.00    -0.000 A 
ATOM      9  C   UNL     1       0.741  -0.850  23.534  0.00  0.00    -0.004 A 
ENDBRANCH   3   4
ENDBRANCH   2   3
ENDBRANCH  11  10
TORSDOF 5
ENDMDL
MODEL 5
REMARK VINA RESULT:     -14.0      1.110      3.294
REMARK  Name = 
REMARK  5 active torsions:
REMARK  status: ('A' for Active; 'I' for Inactive)
REMARK    1  A    between atoms: C_2  and  C_3
REMARK    2  A    between atoms: C_3  and  C_4
REMARK    3  A    between atoms: N_10  and  C_11
REMARK    4  A    between atoms: C_21  and  C_23
REMARK    5  A    between atoms: C_26  and  C_29
REMARK                            x       y       z     vdW  Elec       q    Type
REMARK                         _______ _______ _______ _____ _____    ______ ____
ROOT
ATOM     11  C   UNL     1      -2.302   2.989  24.348  0.00  0.00    +0.129 A 
ATOM     12  C   UNL     1      -1.911   3.680  24.573  0.00  0.00    +0.023 A 
ATOM     13  C   UNL     1      -1.278   3.643  25.100  0.00  0.00    +0.014 A 
ATOM     14  C   UNL     1      -1.036   2.914  25.402  0.00  0.00    +0.041 A 
ATOM     15  C   UNL     1      -0.411   2.549  25.969  0.00  0.00    +0.058 C 
ATOM     16  C   UNL     1       0.125   2.727  26.385  0.00  0.00    +0.011 C 
ATOM     17  C   UNL     1      -0.263   2.047  26.161  0.00  0.00    +0.043 C 
ATOM     18  C   UNL     1      -0.599   1.129  26.014  0.00  0.00    +0.096 C 
ATOM     19  N   UNL     1      -1.220   1.292  25.479  0.00  0.00    -0.276 N 
ATOM     20  C   UNL     1      -0.724   1.656  25.837  0.00  0.00    +0.099 C 
ATOM     21  C   UNL     1      -1.858   1.151  24.974  0.00  0.00    +0.249 C 
ATOM     22  O   UNL     1      -2.223   1.780  24.585  0.00  0.00    -0.270 OA
ATOM     35  C   UNL     1      -0.920   2.419  25.568  0.00  0.00    +0.110 C 
ATOM     36  N   UNL     1      -1.427   2.224  25.177  0.00  0.00    -0.298 N 
ATOM     37  C   UNL     1      -2.060   2.261  24.650  0.00  0.00    +0.276 A 
ATOM     38  O   UNL     1      -2.588   1.741  24.289  0.00  0.00    -0.266 OA
ENDROOT
BRANCH  21  23
ATOM     23  C   UNL     1      -2.129   0.381  24.859  0.00  0.00    +0.054 A 
ATOM     24  C   UNL     1      -1.799  -0.090  24.267  0.00  0.00    +0.005 A 
ATOM     25  C   UNL     1      -2.071  -0.860  24.152  0.00  0.00    +0.000 A 
ATOM     26  C   UNL     1      -2.674  -1.160  24.628  0.00  0.00    +0.000 A 
ATOM     27  C   UNL     1      -3.005  -0.690  25.219  0.00  0.00    +0.000 A 
ATOM     28  C   UNL     1      -2.733   0.081  25.335  0.00  0.00    +0.005 A 
BRANCH  26  29
ATOM     29  C   UNL     1      -2.947  -1.930  24.513  0.00  0.00    +0.000 A 
ATOM     30  C   UNL     1      -2.462  -2.572  24.697  0.00  0.00    +0.000 A 
ATOM     31  C   UNL     1      -2.734  -3.341  24.582  0.00  0.00    +0.000 A 
ATOM     32  C   UNL     1      -3.492  -3.470  24.281  0.00  0.00    +0.000 A 
ATOM     33  C   UNL     1      -3.977  -2.829  24.097  0.00  0.00    +0.000 A 
ATOM     34  C   UNL     1      -3.704  -2.059  24.212  0.00  0.00    +0.000 A 
ENDBRANCH  26  29
ENDBRANCH  21  23
BRANCH  11  10
ATOM      1  O   UNL     1      -4.285   3.398  23.532  0.00  0.00    -0.273 OA
ATOM      2  C   UNL     1      -3.652   3.360  24.060  0.00  0.00    +0.250 C 
ATOM     10  N   UNL     1      -2.936   3.028  23.821  0.00  0.00    -0.174 NA
BRANCH   2   3
ATOM      3  C   UNL     1      -3.735   3.655  24.826  0.00  0.00    +0.113 C 
BRANCH   3   4
ATOM      4  C   UNL     1      -4.487   3.745  25.154  0.00  0.00    -0.013 A 
ATOM      5  C   UNL     1      -4.839   4.490  25.182  0.00  0.00    -0.004 A 
ATOM      6  C   UNL     1      -5.591   4.579  25.509  0.00  0.00    -0.000 A 
ATOM      7  C   UNL     1      -5.991   3.923  25.809  0.00  0.00    -0.000 A 
ATOM      8  C   UNL     1      -5.639   3.177  25.780  0.00  0.00    -0.000 A 
ATOM      9  C   UNL     1      -4.887   3.088  25.453  0.00  0.00    -0.004 A 
ENDBRANCH   3   4
ENDBRANCH   2   3
ENDBRANCH  11  10
TORSDOF 5
ENDMDL
MODEL 6
REMARK VINA RESULT:     -13.8      2.608      4.640
REMARK  Name = 
REMARK  5 active torsions:
REMARK  status: ('A' for Active; 'I' for Inactive)
REMARK    1  A    between atoms: C_2  and  C_3
REMARK    2  A    between atoms: C_3  and  C_4
REMARK    3  A    between atoms: N_10  and  C_11
REMARK    4  A    between atoms: C_21  and  C_23
REMARK    5  A    between atoms: C_26  and  C_29
REMARK                            x       y       z     vdW  Elec       q    Type
REMARK                         _______ _______ _______ _____ _____    ______ ____
ROOT
ATOM     11  C   UNL     1      -3.404   0.599  24.068  0.00  0.00    +0.129 A 
ATOM     12  C   UNL     1      -4.102   0.300  24.391  0.00  0.00    +0.023 A 
ATOM     13  C   UNL     1      -4.094  -0.417  24.798  0.00  0.00    +0.014 A 
ATOM     14  C   UNL     1      -3.389  -0.836  24.882  0.00  0.00    +0.041 A 
ATOM     15  C   UNL     1      -3.058  -1.610  25.251  0.00  0.00    +0.058 C 
ATOM     16  C   UNL     1      -3.257  -2.175  25.617  0.00  0.00    +0.011 C 
ATOM     17  C   UNL     1      -2.570  -1.877  25.296  0.00  0.00    +0.043 C 
ATOM     18  C   UNL     1      -1.651  -1.686  24.986  0.00  0.00    +0.096 C 
ATOM     19  N   UNL     1      -1.782  -0.957  24.600  0.00  0.00    -0.276 N 
ATOM     20  C   UNL     1      -2.164  -1.440  24.958  0.00  0.00    +0.099 C 
ATOM     21  C   UNL     1      -1.614  -0.271  24.172  0.00  0.00    +0.249 C 
ATOM     22  O   UNL     1      -2.218   0.265  23.998  0.00  0.00    -0.270 OA
ATOM     35  C   UNL     1      -2.907  -1.066  24.908  0.00  0.00    +0.110 C 
ATOM     36  N   UNL     1      -2.691  -0.537  24.559  0.00  0.00    -0.298 N 
ATOM     37  C   UNL     1      -2.698   0.180  24.152  0.00  0.00    +0.276 A 
ATOM     38  O   UNL     1      -2.162   0.667  23.757  0.00  0.00    -0.266 OA
ENDROOT
BRANCH  21  23
ATOM     23  C   UNL     1      -0.844  -0.122  23.918  0.00  0.00    +0.054 A 
ATOM     24  C   UNL     1      -0.369   0.409  24.332  0.00  0.00    +0.005 A 
ATOM     25  C   UNL     1       0.403   0.559  24.079  0.00  0.00    +0.000 A 
ATOM     26  C   UNL     1       0.697   0.175  23.410  0.00  0.00    +0.000 A 
ATOM     27  C   UNL     1       0.223  -0.356  22.996  0.00  0.00    +0.000 A 
ATOM     28  C   UNL     1      -0.549  -0.505  23.250  0.00  0.00    +0.005 A 
BRANCH  26  29
ATOM     29  C   UNL     1       1.468   0.325  23.156  0.00  0.00    +0.000 A 
ATOM     30  C   UNL     1       1.832  -0.185  22.620  0.00  0.00    +0.000 A 
ATOM     31  C   UNL     1       2.603  -0.036  22.366  0.00  0.00    +0.000 A 
ATOM     32  C   UNL     1       3.010   0.624  22.649  0.00  0.00    +0.000 A 
ATOM     33  C   UNL     1       2.646   1.134  23.185  0.00  0.00    +0.000 A 
ATOM     34  C   UNL     1       1.875   0.984  23.439  0.00  0.00    +0.000 A 
ENDBRANCH  26  29
ENDBRANCH  21  23
BRANCH  11  10
ATOM      1  O   UNL     1      -3.816   2.685  23.571  0.00  0.00    -0.273 OA
ATOM      2  C   UNL     1      -3.807   1.967  23.979  0.00  0.00    +0.250 C 
ATOM     10  N   UNL     1      -3.413   1.316  23.661  0.00  0.00    -0.174 NA
BRANCH   2   3
ATOM      3  C   UNL     1      -4.194   1.900  24.705  0.00  0.00    +0.113 C 
BRANCH   3   4
ATOM      4  C   UNL     1      -4.489   2.575  25.078  0.00  0.00    -0.013 A 
ATOM      5  C   UNL     1      -3.971   3.126  25.406  0.00  0.00    -0.004 A 
ATOM      6  C   UNL     1      -4.266   3.799  25.778  0.00  0.00    -0.000 A 
ATOM      7  C   UNL     1      -5.081   3.922  25.823  0.00  0.00    -0.000 A 
ATOM      8  C   UNL     1      -5.600   3.371  25.495  0.00  0.00    -0.000 A 
ATOM      9  C   UNL     1      -5.304   2.697  25.122  0.00  0.00    -0.004 A 
ENDBRANCH   3   4
ENDBRANCH   2   3
ENDBRANCH  11  10
TORSDOF 5
ENDMDL
