MODEL 1
REMARK VINA RESULT:      -8.9      0.000      0.000
REMARK  Name = 
REMARK  9 active torsions:
REMARK  status: ('A' for Active; 'I' for Inactive)
REMARK    1  A    between atoms: C_2  and  C_3
REMARK    2  A    between atoms: C_3  and  C_4
REMARK    3  A    between atoms: C_3  and  C_6
REMARK    4  A    between atoms: N_8  and  C_9
REMARK    5  A    between atoms: C_9  and  C_10
REMARK    6  A    between atoms: C_17  and  C_18
REMARK    7  A    between atoms: C_20  and  C_24
REMARK    8  A    between atoms: C_27  and  O_28
REMARK    9  A    between atoms: C_30  and  O_31
REMARK                            x       y       z     vdW  Elec       q    Type
REMARK                         _______ _______ _______ _____ _____    ______ ____
ROOT
ATOM     10  C   UNL     1       1.196   0.146  23.128  0.00  0.00    +0.079 C 
ATOM     11  C   UNL     1       0.588  -0.223  23.445  0.00  0.00    +0.018 C 
ATOM     12  C   UNL     1      -0.026   0.130  23.837  0.00  0.00    +0.010 C 
ATOM     13  C   UNL     1      -0.625  -0.470  24.128  0.00  0.00    +0.018 C 
ATOM     14  C   UNL     1      -0.079  -0.271  23.829  0.00  0.00    +0.072 C 
ATOM     15  N   UNL     1       0.566   0.498  23.529  0.00  0.00    -0.272 NA
ATOM     16  C   UNL     1       0.378   1.370  23.724  0.00  0.00    +0.078 C 
ATOM     17  C   UNL     1      -0.200   0.970  24.021  0.00  0.00    +0.056 C 
ENDROOT
BRANCH  17  18
ATOM     18  C   UNL     1      -0.853   1.266  24.431  0.00  0.00    +0.058 A 
ATOM     19  C   UNL     1      -1.635   1.252  24.170  0.00  0.00    +0.035 A 
ATOM     20  C   UNL     1      -2.104   1.605  24.750  0.00  0.00    +0.102 A 
ATOM     21  N   UNL     1      -1.611   1.837  25.369  0.00  0.00    -0.170 NA
ATOM     22  N   UNL     1      -0.837   1.628  25.172  0.00  0.00    -0.253 N 
ATOM     23  C   UNL     1      -0.166   1.757  25.634  0.00  0.00    +0.153 C 
BRANCH  20  24
ATOM     24  C   UNL     1      -2.921   1.708  24.717  0.00  0.00    +0.023 A 
ATOM     25  C   UNL     1      -3.424   1.079  24.901  0.00  0.00    +0.005 A 
ATOM     26  C   UNL     1      -4.242   1.182  24.868  0.00  0.00    +0.040 A 
ATOM     27  C   UNL     1      -4.558   1.913  24.652  0.00  0.00    +0.172 A 
ATOM     30  C   UNL     1      -4.055   2.542  24.469  0.00  0.00    +0.172 A 
ATOM     33  C   UNL     1      -3.237   2.439  24.501  0.00  0.00    +0.042 A 
BRANCH  27  28
ATOM     28  O   UNL     1      -5.376   2.015  24.620  0.00  0.00    -0.468 OA
ATOM     29  C   UNL     1      -5.873   1.485  25.010  0.00  0.00    +0.253 C 
ENDBRANCH  27  28
BRANCH  30  31
ATOM     31  O   UNL     1      -4.371   3.272  24.253  0.00  0.00    -0.468 OA
ATOM     32  C   UNL     1      -3.884   3.936  24.213  0.00  0.00    +0.253 C 
ENDBRANCH  30  31
ENDBRANCH  20  24
ENDBRANCH  17  18
BRANCH  10   9
ATOM      9  C   UNL     1       1.909   0.168  22.714  0.00  0.00    +0.131 C 
BRANCH   9   8
ATOM      6  C   UNL     1       3.337   0.138  22.721  0.00  0.00    +0.241 C 
ATOM      7  O   UNL     1       3.347   0.414  21.945  0.00  0.00    -0.273 OA
ATOM      8  N   UNL     1       2.618   0.014  23.107  0.00  0.00    -0.204 NA
BRANCH   6   3
ATOM      3  C   UNL     1       4.046  -0.016  23.113  0.00  0.00    +0.078 C 
BRANCH   3   2
ATOM      1  C   UNL     1       5.199   0.624  23.663  0.00  0.00    +0.001 C 
ATOM      2  C   UNL     1       4.684   0.500  23.031  0.00  0.00    +0.009 C 
ENDBRANCH   3   2
BRANCH   3   4
ATOM      4  C   UNL     1       4.118  -0.688  23.588  0.00  0.00    +0.009 C 
ATOM      5  C   UNL     1       4.846  -1.069  23.656  0.00  0.00    +0.001 C 
ENDBRANCH   3   4
ENDBRANCH   6   3
ENDBRANCH   9   8
ENDBRANCH  10   9
TORSDOF 9
ENDMDL
MODEL 2
REMARK VINA RESULT:      -8.8      0.878      1.222
REMARK  Name = 
REMARK  9 active torsions:
REMARK  status: ('A' for Active; 'I' for Inactive)
REMARK    1  A    between atoms: C_2  and  C_3
REMARK    2  A    between atoms: C_3  and  C_4
REMARK    3  A    between atoms: C_3  and  C_6
REMARK    4  A    between atoms: N_8  and  C_9
REMARK    5  A    between atoms: C_9  and  C_10
REMARK    6  A    between atoms: C_17  and  C_18
REMARK    7  A    between atoms: C_20  and  C_24
REMARK    8  A    between atoms: C_27  and  O_28
REMARK    9  A    between atoms: C_30  and  O_31
REMARK                            x       y       z     vdW  Elec       q    Type
REMARK                         _______ _______ _______ _____ _____    ______ ____
ROOT
ATOM     10  C   UNL     1       0.734   0.463  23.371  0.00  0.00    +0.079 C 
ATOM     11  C   UNL     1       0.415   1.029  23.800  0.00  0.00    +0.018 C 
ATOM     12  C   UNL     1      -0.311   0.998  24.157  0.00  0.00    +0.010 C 
ATOM     13  C   UNL     1      -0.495   1.752  24.605  0.00  0.00    +0.018 C 
ATOM     14  C   UNL     1      -0.135   1.354  24.234  0.00  0.00    +0.072 C 
ATOM     15  N   UNL     1      -0.005   0.439  23.738  0.00  0.00    -0.272 NA
ATOM     16  C   UNL     1      -0.651  -0.205  23.767  0.00  0.00    +0.078 C 
ATOM     17  C   UNL     1      -0.928   0.374  24.181  0.00  0.00    +0.056 C 
ENDROOT
BRANCH  17  18
ATOM     18  C   UNL     1      -1.656   0.407  24.568  0.00  0.00    +0.058 A 
ATOM     19  C   UNL     1      -2.280   0.914  24.385  0.00  0.00    +0.035 A 
ATOM     20  C   UNL     1      -2.897   0.760  24.910  0.00  0.00    +0.102 A 
ATOM     21  N   UNL     1      -2.654   0.157  25.418  0.00  0.00    -0.170 NA
ATOM     22  N   UNL     1      -1.887  -0.061  25.207  0.00  0.00    -0.253 N 
ATOM     23  C   UNL     1      -1.430  -0.645  25.570  0.00  0.00    +0.153 C 
BRANCH  20  24
ATOM     24  C   UNL     1      -3.628   1.141  24.926  0.00  0.00    +0.023 A 
ATOM     25  C   UNL     1      -4.322   0.706  24.820  0.00  0.00    +0.005 A 
ATOM     26  C   UNL     1      -5.054   1.087  24.836  0.00  0.00    +0.040 A 
ATOM     27  C   UNL     1      -5.093   1.902  24.957  0.00  0.00    +0.172 A 
ATOM     30  C   UNL     1      -4.399   2.336  25.063  0.00  0.00    +0.172 A 
ATOM     33  C   UNL     1      -3.667   1.956  25.047  0.00  0.00    +0.042 A 
BRANCH  27  28
ATOM     28  O   UNL     1      -5.825   2.282  24.972  0.00  0.00    -0.468 OA
ATOM     29  C   UNL     1      -6.519   1.841  24.908  0.00  0.00    +0.253 C 
ENDBRANCH  27  28
BRANCH  30  31
ATOM     31  O   UNL     1      -4.438   3.151  25.184  0.00  0.00    -0.468 OA
ATOM     32  C   UNL     1      -3.822   3.540  25.571  0.00  0.00    +0.253 C 
ENDBRANCH  30  31
ENDBRANCH  20  24
ENDBRANCH  17  18
BRANCH  10   9
ATOM      9  C   UNL     1       1.337   0.140  22.911  0.00  0.00    +0.131 C 
BRANCH   9   8
ATOM      6  C   UNL     1       2.722   0.106  22.563  0.00  0.00    +0.241 C 
ATOM      7  O   UNL     1       2.530  -0.217  21.829  0.00  0.00    -0.273 OA
ATOM      8  N   UNL     1       2.126   0.284  23.104  0.00  0.00    -0.204 NA
BRANCH   6   3
ATOM      3  C   UNL     1       3.511   0.250  22.756  0.00  0.00    +0.078 C 
BRANCH   3   2
ATOM      1  C   UNL     1       4.360   1.399  22.769  0.00  0.00    +0.001 C 
ATOM      2  C   UNL     1       3.936   0.829  22.350  0.00  0.00    +0.009 C 
ENDBRANCH   3   2
BRANCH   3   4
ATOM      4  C   UNL     1       3.876  -0.185  23.355  0.00  0.00    +0.009 C 
ATOM      5  C   UNL     1       4.681  -0.354  23.310  0.00  0.00    +0.001 C 
ENDBRANCH   3   4
ENDBRANCH   6   3
ENDBRANCH   9   8
ENDBRANCH  10   9
TORSDOF 9
ENDMDL
MODEL 3
REMARK VINA RESULT:      -6.5     14.387     15.132
REMARK  Name = 
REMARK  9 active torsions:
REMARK  status: ('A' for Active; 'I' for Inactive)
REMARK    1  A    between atoms: C_2  and  C_3
REMARK    2  A    between atoms: C_3  and  C_4
REMARK    3  A    between atoms: C_3  and  C_6
REMARK    4  A    between atoms: N_8  and  C_9
REMARK    5  A    between atoms: C_9  and  C_10
REMARK    6  A    between atoms: C_17  and  C_18
REMARK    7  A    between atoms: C_20  and  C_24
REMARK    8  A    between atoms: C_27  and  O_28
REMARK    9  A    between atoms: C_30  and  O_31
REMARK                            x       y       z     vdW  Elec       q    Type
REMARK                         _______ _______ _______ _____ _____    ______ ____
ROOT
ATOM     10  C   UNL     1      -4.531 -10.529  14.782  0.00  0.00    +0.079 C 
ATOM     11  C   UNL     1      -5.298 -10.608  14.679  0.00  0.00    +0.018 C 
ATOM     12  C   UNL     1      -5.867 -10.459  15.236  0.00  0.00    +0.010 C 
ATOM     13  C   UNL     1      -6.692 -10.611  14.920  0.00  0.00    +0.018 C 
ATOM     14  C   UNL     1      -6.040 -10.582  14.892  0.00  0.00    +0.072 C 
ATOM     15  N   UNL     1      -5.116 -10.379  15.344  0.00  0.00    -0.272 NA
ATOM     16  C   UNL     1      -5.072 -10.092  16.209  0.00  0.00    +0.078 C 
ATOM     17  C   UNL     1      -5.817 -10.183  16.067  0.00  0.00    +0.056 C 
ENDROOT
BRANCH  17  18
ATOM     18  C   UNL     1      -6.444 -10.049  16.587  0.00  0.00    +0.058 A 
ATOM     19  C   UNL     1      -7.144  -9.651  16.410  0.00  0.00    +0.035 A 
ATOM     20  C   UNL     1      -7.613  -9.646  17.088  0.00  0.00    +0.102 A 
ATOM     21  N   UNL     1      -7.203 -10.041  17.685  0.00  0.00    -0.170 NA
ATOM     22  N   UNL     1      -6.480 -10.290  17.375  0.00  0.00    -0.253 N 
ATOM     23  C   UNL     1      -5.895 -10.707  17.782  0.00  0.00    +0.153 C 
BRANCH  20  24
ATOM     24  C   UNL     1      -8.361  -9.306  17.158  0.00  0.00    +0.023 A 
ATOM     25  C   UNL     1      -8.448  -8.486  17.116  0.00  0.00    +0.005 A 
ATOM     26  C   UNL     1      -9.196  -8.147  17.186  0.00  0.00    +0.040 A 
ATOM     27  C   UNL     1      -9.859  -8.625  17.298  0.00  0.00    +0.172 A 
ATOM     30  C   UNL     1      -9.772  -9.445  17.341  0.00  0.00    +0.172 A 
ATOM     33  C   UNL     1      -9.024  -9.785  17.270  0.00  0.00    +0.042 A 
BRANCH  27  28
ATOM     28  O   UNL     1     -10.606  -8.285  17.369  0.00  0.00    -0.468 OA
ATOM     29  C   UNL     1     -10.720  -7.493  17.165  0.00  0.00    +0.253 C 
ENDBRANCH  27  28
BRANCH  30  31
ATOM     31  O   UNL     1     -10.434  -9.924  17.453  0.00  0.00    -0.468 OA
ATOM     32  C   UNL     1     -10.367 -10.626  17.880  0.00  0.00    +0.253 C 
ENDBRANCH  30  31
ENDBRANCH  20  24
ENDBRANCH  17  18
BRANCH  10   9
ATOM      9  C   UNL     1      -3.747 -10.566  14.528  0.00  0.00    +0.131 C 
BRANCH   9   8
ATOM      6  C   UNL     1      -2.782 -10.489  13.477  0.00  0.00    +0.241 C 
ATOM      7  O   UNL     1      -2.174 -10.544  14.031  0.00  0.00    -0.273 OA
ATOM      8  N   UNL     1      -3.569 -10.499  13.725  0.00  0.00    -0.204 NA
BRANCH   6   3
ATOM      3  C   UNL     1      -2.605 -10.422  12.674  0.00  0.00    +0.078 C 
BRANCH   3   2
ATOM      1  C   UNL     1      -3.099 -10.503  11.336  0.00  0.00    +0.001 C 
ATOM      2  C   UNL     1      -3.091 -10.781  12.113  0.00  0.00    +0.009 C 
ENDBRANCH   3   2
BRANCH   3   4
ATOM      4  C   UNL     1      -1.940  -9.996  12.433  0.00  0.00    +0.009 C 
ATOM      5  C   UNL     1      -1.386 -10.346  11.932  0.00  0.00    +0.001 C 
ENDBRANCH   3   4
ENDBRANCH   6   3
ENDBRANCH   9   8
ENDBRANCH  10   9
TORSDOF 9
ENDMDL
MODEL 4
REMARK VINA RESULT:      -5.8     15.684     17.613
REMARK  Name = 
REMARK  9 active torsions:
REMARK  status: ('A' for Active; 'I' for Inactive)
REMARK    1  A    between atoms: C_2  and  C_3
REMARK    2  A    between atoms: C_3  and  C_4
REMARK    3  A    between atoms: C_3  and  C_6
REMARK    4  A    between atoms: N_8  and  C_9
REMARK    5  A    between atoms: C_9  and  C_10
REMARK    6  A    between atoms: C_17  and  C_18
REMARK    7  A    between atoms: C_20  and  C_24
REMARK    8  A    between atoms: C_27  and  O_28
REMARK    9  A    between atoms: C_30  and  O_31
REMARK                            x       y       z     vdW  Elec       q    Type
REMARK                         _______ _______ _______ _____ _____    ______ ____
ROOT
ATOM     10  C   UNL     1      -8.392  -9.653  14.374  0.00  0.00    +0.079 C 
ATOM     11  C   UNL     1      -7.730 -10.052  14.460  0.00  0.00    +0.018 C 
ATOM     12  C   UNL     1      -7.182 -10.187  13.879  0.00  0.00    +0.010 C 
ATOM     13  C   UNL     1      -6.488 -10.669  14.180  0.00  0.00    +0.018 C 
ATOM     14  C   UNL     1      -7.061 -10.359  14.225  0.00  0.00    +0.072 C 
ATOM     15  N   UNL     1      -7.829  -9.794  13.787  0.00  0.00    -0.272 NA
ATOM     16  C   UNL     1      -7.789  -9.553  12.908  0.00  0.00    +0.078 C 
ATOM     17  C   UNL     1      -7.150  -9.951  13.034  0.00  0.00    +0.056 C 
ENDROOT
BRANCH  17  18
ATOM     18  C   UNL     1      -6.554 -10.124  12.490  0.00  0.00    +0.058 A 
ATOM     19  C   UNL     1      -5.754  -9.945  12.575  0.00  0.00    +0.035 A 
ATOM     20  C   UNL     1      -5.360 -10.215  11.903  0.00  0.00    +0.102 A 
ATOM     21  N   UNL     1      -5.916 -10.562  11.403  0.00  0.00    -0.170 NA
ATOM     22  N   UNL     1      -6.655 -10.505  11.765  0.00  0.00    -0.253 N 
ATOM     23  C   UNL     1      -7.370 -10.781  11.458  0.00  0.00    +0.153 C 
BRANCH  20  24
ATOM     24  C   UNL     1      -4.550 -10.151  11.757  0.00  0.00    +0.023 A 
ATOM     25  C   UNL     1      -4.007 -10.433  12.311  0.00  0.00    +0.005 A 
ATOM     26  C   UNL     1      -3.198 -10.369  12.164  0.00  0.00    +0.040 A 
ATOM     27  C   UNL     1      -2.931 -10.024  11.464  0.00  0.00    +0.172 A 
ATOM     30  C   UNL     1      -3.474  -9.743  10.909  0.00  0.00    +0.172 A 
ATOM     33  C   UNL     1      -4.284  -9.807  11.056  0.00  0.00    +0.042 A 
BRANCH  27  28
ATOM     28  O   UNL     1      -2.121  -9.961  11.318  0.00  0.00    -0.468 OA
ATOM     29  C   UNL     1      -1.579 -10.220  11.883  0.00  0.00    +0.253 C 
ENDBRANCH  27  28
BRANCH  30  31
ATOM     31  O   UNL     1      -3.208  -9.398  10.209  0.00  0.00    -0.468 OA
ATOM     32  C   UNL     1      -3.697  -8.883   9.791  0.00  0.00    +0.253 C 
ENDBRANCH  30  31
ENDBRANCH  20  24
ENDBRANCH  17  18
BRANCH  10   9
ATOM      9  C   UNL     1      -9.101  -9.336  14.651  0.00  0.00    +0.131 C 
BRANCH   9   8
ATOM      6  C   UNL     1      -9.903  -8.852  15.730  0.00  0.00    +0.241 C 
ATOM      7  O   UNL     1     -10.518  -8.697  15.204  0.00  0.00    -0.273 OA
ATOM      8  N   UNL     1      -9.194  -9.172  15.454  0.00  0.00    -0.204 NA
BRANCH   6   3
ATOM      3  C   UNL     1      -9.995  -8.687  16.533  0.00  0.00    +0.078 C 
BRANCH   3   2
ATOM      1  C   UNL     1     -10.300  -7.425  17.128  0.00  0.00    +0.001 C 
ATOM      2  C   UNL     1      -9.746  -7.962  16.837  0.00  0.00    +0.009 C 
ENDBRANCH   3   2
BRANCH   3   4
ATOM      4  C   UNL     1     -10.337  -9.249  17.033  0.00  0.00    +0.009 C 
ATOM      5  C   UNL     1     -10.053  -9.344  17.801  0.00  0.00    +0.001 C 
ENDBRANCH   3   4
ENDBRANCH   6   3
ENDBRANCH   9   8
ENDBRANCH  10   9
TORSDOF 9
ENDMDL
MODEL 5
REMARK VINA RESULT:      -5.2     15.420     16.277
REMARK  Name = 
REMARK  9 active torsions:
REMARK  status: ('A' for Active; 'I' for Inactive)
REMARK    1  A    between atoms: C_2  and  C_3
REMARK    2  A    between atoms: C_3  and  C_4
REMARK    3  A    between atoms: C_3  and  C_6
REMARK    4  A    between atoms: N_8  and  C_9
REMARK    5  A    between atoms: C_9  and  C_10
REMARK    6  A    between atoms: C_17  and  C_18
REMARK    7  A    between atoms: C_20  and  C_24
REMARK    8  A    between atoms: C_27  and  O_28
REMARK    9  A    between atoms: C_30  and  O_31
REMARK                            x       y       z     vdW  Elec       q    Type
REMARK                         _______ _______ _______ _____ _____    ______ ____
ROOT
ATOM     10  C   UNL     1      -5.146 -10.175  12.539  0.00  0.00    +0.079 C 
ATOM     11  C   UNL     1      -5.842  -9.890  12.739  0.00  0.00    +0.018 C 
ATOM     12  C   UNL     1      -6.135  -9.845  13.492  0.00  0.00    +0.010 C 
ATOM     13  C   UNL     1      -6.956  -9.484  13.510  0.00  0.00    +0.018 C 
ATOM     14  C   UNL     1      -6.405  -9.696  13.230  0.00  0.00    +0.072 C 
ATOM     15  N   UNL     1      -5.451 -10.125  13.305  0.00  0.00    -0.272 NA
ATOM     16  C   UNL     1      -5.109 -10.367  14.115  0.00  0.00    +0.078 C 
ATOM     17  C   UNL     1      -5.800 -10.079  14.269  0.00  0.00    +0.056 C 
ENDROOT
BRANCH  17  18
ATOM     18  C   UNL     1      -6.156 -10.005  15.009  0.00  0.00    +0.058 A 
ATOM     19  C   UNL     1      -6.960  -9.885  15.150  0.00  0.00    +0.035 A 
ATOM     20  C   UNL     1      -7.072  -9.843  15.966  0.00  0.00    +0.102 A 
ATOM     21  N   UNL     1      -6.337  -9.937  16.330  0.00  0.00    -0.170 NA
ATOM     22  N   UNL     1      -5.771 -10.037  15.738  0.00  0.00    -0.253 N 
ATOM     23  C   UNL     1      -4.961 -10.149  15.854  0.00  0.00    +0.153 C 
BRANCH  20  24
ATOM     24  C   UNL     1      -7.791  -9.728  16.352  0.00  0.00    +0.023 A 
ATOM     25  C   UNL     1      -7.913  -9.048  16.805  0.00  0.00    +0.005 A 
ATOM     26  C   UNL     1      -8.632  -8.933  17.191  0.00  0.00    +0.040 A 
ATOM     27  C   UNL     1      -9.232  -9.496  17.125  0.00  0.00    +0.172 A 
ATOM     30  C   UNL     1      -9.110 -10.175  16.672  0.00  0.00    +0.172 A 
ATOM     33  C   UNL     1      -8.390 -10.291  16.286  0.00  0.00    +0.042 A 
BRANCH  27  28
ATOM     28  O   UNL     1      -9.951  -9.380  17.511  0.00  0.00    -0.468 OA
ATOM     29  C   UNL     1     -10.214  -8.614  17.671  0.00  0.00    +0.253 C 
ENDBRANCH  27  28
BRANCH  30  31
ATOM     31  O   UNL     1      -9.709 -10.739  16.606  0.00  0.00    -0.468 OA
ATOM     32  C   UNL     1     -10.163 -10.779  15.919  0.00  0.00    +0.253 C 
ENDBRANCH  30  31
ENDBRANCH  20  24
ENDBRANCH  17  18
BRANCH  10   9
ATOM      9  C   UNL     1      -4.561 -10.372  11.993  0.00  0.00    +0.131 C 
BRANCH   9   8
ATOM      6  C   UNL     1      -4.012 -10.250  10.679  0.00  0.00    +0.241 C 
ATOM      7  O   UNL     1      -3.302 -10.575  10.945  0.00  0.00    -0.273 OA
ATOM      8  N   UNL     1      -4.641 -10.148  11.203  0.00  0.00    -0.204 NA
BRANCH   6   3
ATOM      3  C   UNL     1      -4.092 -10.026   9.890  0.00  0.00    +0.078 C 
BRANCH   3   2
ATOM      1  C   UNL     1      -3.618  -8.835   9.258  0.00  0.00    +0.001 C 
ATOM      2  C   UNL     1      -4.195  -9.231   9.695  0.00  0.00    +0.009 C 
ENDBRANCH   3   2
BRANCH   3   4
ATOM      4  C   UNL     1      -4.070 -10.597   9.294  0.00  0.00    +0.009 C 
ATOM      5  C   UNL     1      -4.647 -10.600   8.705  0.00  0.00    +0.001 C 
ENDBRANCH   3   4
ENDBRANCH   6   3
ENDBRANCH   9   8
ENDBRANCH  10   9
TORSDOF 9
ENDMDL
MODEL 6
REMARK VINA RESULT:      -5.0     16.123     17.662
REMARK  Name = 
REMARK  9 active torsions:
REMARK  status: ('A' for Active; 'I' for Inactive)
REMARK    1  A    between atoms: C_2  and  C_3
REMARK    2  A    between atoms: C_3  and  C_4
REMARK    3  A    between atoms: C_3  and  C_6
REMARK    4  A    between atoms: N_8  and  C_9
REMARK    5  A    between atoms: C_9  and  C_10
REMARK    6  A    between atoms: C_17  and  C_18
REMARK    7  A    between atoms: C_20  and  C_24
REMARK    8  A    between atoms: C_27  and  O_28
REMARK    9  A    between atoms: C_30  and  O_31
REMARK                            x       y       z     vdW  Elec       q    Type
REMARK                         _______ _______ _______ _____ _____    ______ ____
ROOT
ATOM     10  C   UNL     1      -8.324  -9.822  15.206  0.00  0.00    +0.079 C 
ATOM     11  C   UNL     1      -7.684 -10.128  14.886  0.00  0.00    +0.018 C 
ATOM     12  C   UNL     1      -7.504 -10.126  14.097  0.00  0.00    +0.010 C 
ATOM     13  C   UNL     1      -6.720 -10.529  13.932  0.00  0.00    +0.018 C 
ATOM     14  C   UNL     1      -7.210 -10.311  14.305  0.00  0.00    +0.072 C 
ATOM     15  N   UNL     1      -8.133  -9.824  14.403  0.00  0.00    -0.272 NA
ATOM     16  C   UNL     1      -8.569  -9.496  13.671  0.00  0.00    +0.078 C 
ATOM     17  C   UNL     1      -7.928  -9.808  13.398  0.00  0.00    +0.056 C 
ENDROOT
BRANCH  17  18
ATOM     18  C   UNL     1      -7.686  -9.840  12.609  0.00  0.00    +0.058 A 
ATOM     19  C   UNL     1      -7.019  -9.472  12.292  0.00  0.00    +0.035 A 
ATOM     20  C   UNL     1      -6.989  -9.650  11.488  0.00  0.00    +0.102 A 
ATOM     21  N   UNL     1      -7.637 -10.127  11.307  0.00  0.00    -0.170 NA
ATOM     22  N   UNL     1      -8.068 -10.245  12.001  0.00  0.00    -0.253 N 
ATOM     23  C   UNL     1      -8.760 -10.690  12.073  0.00  0.00    +0.153 C 
BRANCH  20  24
ATOM     24  C   UNL     1      -6.412  -9.395  10.956  0.00  0.00    +0.023 A 
ATOM     25  C   UNL     1      -5.636  -9.669  11.026  0.00  0.00    +0.005 A 
ATOM     26  C   UNL     1      -5.060  -9.414  10.494  0.00  0.00    +0.040 A 
ATOM     27  C   UNL     1      -5.257  -8.886   9.892  0.00  0.00    +0.172 A 
ATOM     30  C   UNL     1      -6.033  -8.612   9.822  0.00  0.00    +0.172 A 
ATOM     33  C   UNL     1      -6.610  -8.867  10.354  0.00  0.00    +0.042 A 
BRANCH  27  28
ATOM     28  O   UNL     1      -4.680  -8.632   9.360  0.00  0.00    -0.468 OA
ATOM     29  C   UNL     1      -3.923  -8.960   9.386  0.00  0.00    +0.253 C 
ENDBRANCH  27  28
BRANCH  30  31
ATOM     31  O   UNL     1      -6.231  -8.084   9.220  0.00  0.00    -0.468 OA
ATOM     32  C   UNL     1      -6.998  -8.072   8.917  0.00  0.00    +0.253 C 
ENDBRANCH  30  31
ENDBRANCH  20  24
ENDBRANCH  17  18
BRANCH  10   9
ATOM      9  C   UNL     1      -8.811  -9.639  15.845  0.00  0.00    +0.131 C 
BRANCH   9   8
ATOM      6  C   UNL     1      -9.162  -9.818  17.219  0.00  0.00    +0.241 C 
ATOM      7  O   UNL     1      -9.656  -9.159  17.179  0.00  0.00    -0.273 OA
ATOM      8  N   UNL     1      -8.739 -10.058  16.552  0.00  0.00    -0.204 NA
BRANCH   6   3
ATOM      3  C   UNL     1      -9.090 -10.236  17.926  0.00  0.00    +0.078 C 
BRANCH   3   2
ATOM      1  C   UNL     1     -10.187 -10.519  18.797  0.00  0.00    +0.001 C 
ATOM      2  C   UNL     1      -9.696 -10.739  18.171  0.00  0.00    +0.009 C 
ENDBRANCH   3   2
BRANCH   3   4
ATOM      4  C   UNL     1      -8.411 -10.153  18.388  0.00  0.00    +0.009 C 
ATOM      5  C   UNL     1      -8.149 -10.781  18.853  0.00  0.00    +0.001 C 
ENDBRANCH   3   4
ENDBRANCH   6   3
ENDBRANCH   9   8
ENDBRANCH  10   9
TORSDOF 9
ENDMDL
