MODEL 1
REMARK VINA RESULT:      -8.7      0.000      0.000
REMARK  Name = 
REMARK  7 active torsions:
REMARK  status: ('A' for Active; 'I' for Inactive)
REMARK    1  A    between atoms: S_2  and  N_5
REMARK    2  A    between atoms: N_5  and  C_6
REMARK    3  A    between atoms: C_6  and  C_7
REMARK    4  A    between atoms: C_10  and  N_11
REMARK    5  A    between atoms: N_11  and  C_12
REMARK    6  A    between atoms: C_12  and  C_13
REMARK    7  A    between atoms: C_17  and  C_19
REMARK                            x       y       z     vdW  Elec       q    Type
REMARK                         _______ _______ _______ _____ _____    ______ ____
ROOT
ATOM      7  C   UNL     1      -3.230   2.472  24.642  0.00  0.00    +0.166 C 
ATOM      8  O   UNL     1      -3.899   2.352  25.109  0.00  0.00    -0.350 OA
ATOM      9  C   UNL     1      -4.164   1.582  24.981  0.00  0.00    +0.162 C 
ATOM     10  C   UNL     1      -3.660   1.226  24.436  0.00  0.00    +0.135 C 
ATOM     21  C   UNL     1      -3.083   1.776  24.225  0.00  0.00    +0.199 C 
ATOM     22  O   UNL     1      -2.465   1.651  23.692  0.00  0.00    -0.219 OA
ENDROOT
BRANCH   7   6
ATOM      6  C   UNL     1      -2.787   3.167  24.598  0.00  0.00    +0.147 C 
BRANCH   6   5
ATOM      5  N   UNL     1      -2.678   3.629  25.273  0.00  0.00    -0.079 NA
BRANCH   5   2
ATOM      1  C   UNL     1      -1.618   4.893  25.244  0.00  0.00    +0.197 C 
ATOM      2  S   UNL     1      -2.147   4.262  25.258  0.00  0.00    +0.059 S 
ATOM      3  O   UNL     1      -1.679   3.881  25.822  0.00  0.00    -0.156 OA
ATOM      4  O   UNL     1      -2.615   4.642  24.695  0.00  0.00    -0.156 OA
ENDBRANCH   5   2
ENDBRANCH   6   5
ENDBRANCH   7   6
BRANCH  10  11
ATOM     11  N   UNL     1      -3.722   0.454  24.150  0.00  0.00    -0.209 NA
BRANCH  11  12
ATOM     12  C   UNL     1      -3.983  -0.151  24.647  0.00  0.00    +0.115 C 
BRANCH  12  13
ATOM     13  C   UNL     1      -3.860  -0.939  24.439  0.00  0.00    -0.004 A 
ATOM     14  C   UNL     1      -4.458  -1.363  24.060  0.00  0.00    -0.003 A 
ATOM     15  C   UNL     1      -4.335  -2.152  23.851  0.00  0.00    +0.000 A 
ATOM     16  C   UNL     1      -3.614  -2.516  24.021  0.00  0.00    +0.010 A 
ATOM     17  C   UNL     1      -3.017  -2.092  24.400  0.00  0.00    +0.068 A 
ATOM     18  C   UNL     1      -3.140  -1.303  24.609  0.00  0.00    +0.007 A 
BRANCH  17  19
ATOM     19  C   UNL     1      -2.296  -2.456  24.570  0.00  0.00    +0.100 C 
ATOM     20  N   UNL     1      -1.576  -2.821  24.740  0.00  0.00    -0.191 NA
ENDBRANCH  17  19
ENDBRANCH  12  13
ENDBRANCH  11  12
ENDBRANCH  10  11
TORSDOF 7
ENDMDL
MODEL 2
REMARK VINA RESULT:      -8.2      2.306      5.321
REMARK  Name = 
REMARK  7 active torsions:
REMARK  status: ('A' for Active; 'I' for Inactive)
REMARK    1  A    between atoms: S_2  and  N_5
REMARK    2  A    between atoms: N_5  and  C_6
REMARK    3  A    between atoms: C_6  and  C_7
REMARK    4  A    between atoms: C_10  and  N_11
REMARK    5  A    between atoms: N_11  and  C_12
REMARK    6  A    between atoms: C_12  and  C_13
REMARK    7  A    between atoms: C_17  and  C_19
REMARK                            x       y       z     vdW  Elec       q    Type
REMARK                         _______ _______ _______ _____ _____    ______ ____
ROOT
ATOM      7  C   UNL     1      -3.216  -0.155  24.583  0.00  0.00    +0.166 C 
ATOM      8  O   UNL     1      -3.883   0.236  24.296  0.00  0.00    -0.350 OA
ATOM      9  C   UNL     1      -3.770   1.046  24.406  0.00  0.00    +0.162 C 
ATOM     10  C   UNL     1      -3.035   1.155  24.761  0.00  0.00    +0.135 C 
ATOM     21  C   UNL     1      -2.692   0.413  24.871  0.00  0.00    +0.199 C 
ATOM     22  O   UNL     1      -1.954   0.264  25.209  0.00  0.00    -0.219 OA
ENDROOT
BRANCH   7   6
ATOM      6  C   UNL     1      -3.095  -0.971  24.583  0.00  0.00    +0.147 C 
BRANCH   6   5
ATOM      5  N   UNL     1      -3.742  -1.484  24.598  0.00  0.00    -0.079 NA
BRANCH   5   2
ATOM      1  C   UNL     1      -3.501  -3.115  24.555  0.00  0.00    +0.197 C 
ATOM      2  S   UNL     1      -3.622  -2.300  24.577  0.00  0.00    +0.059 S 
ATOM      3  O   UNL     1      -3.583  -2.317  25.402  0.00  0.00    -0.156 OA
ATOM      4  O   UNL     1      -3.660  -2.284  23.753  0.00  0.00    -0.156 OA
ENDBRANCH   5   2
ENDBRANCH   6   5
ENDBRANCH   7   6
BRANCH  10  11
ATOM     11  N   UNL     1      -2.700   1.880  24.970  0.00  0.00    -0.209 NA
BRANCH  11  12
ATOM     12  C   UNL     1      -3.114   2.581  24.833  0.00  0.00    +0.115 C 
BRANCH  12  13
ATOM     13  C   UNL     1      -2.861   3.284  25.181  0.00  0.00    -0.004 A 
ATOM     14  C   UNL     1      -3.302   3.625  25.789  0.00  0.00    -0.003 A 
ATOM     15  C   UNL     1      -3.049   4.329  26.137  0.00  0.00    +0.000 A 
ATOM     16  C   UNL     1      -2.355   4.692  25.877  0.00  0.00    +0.010 A 
ATOM     17  C   UNL     1      -1.915   4.351  25.269  0.00  0.00    +0.068 A 
ATOM     18  C   UNL     1      -2.168   3.647  24.921  0.00  0.00    +0.007 A 
BRANCH  17  19
ATOM     19  C   UNL     1      -1.221   4.714  25.009  0.00  0.00    +0.100 C 
ATOM     20  N   UNL     1      -0.528   5.078  24.749  0.00  0.00    -0.191 NA
ENDBRANCH  17  19
ENDBRANCH  12  13
ENDBRANCH  11  12
ENDBRANCH  10  11
TORSDOF 7
ENDMDL
MODEL 3
REMARK VINA RESULT:      -8.2      1.548      1.989
REMARK  Name = 
REMARK  7 active torsions:
REMARK  status: ('A' for Active; 'I' for Inactive)
REMARK    1  A    between atoms: S_2  and  N_5
REMARK    2  A    between atoms: N_5  and  C_6
REMARK    3  A    between atoms: C_6  and  C_7
REMARK    4  A    between atoms: C_10  and  N_11
REMARK    5  A    between atoms: N_11  and  C_12
REMARK    6  A    between atoms: C_12  and  C_13
REMARK    7  A    between atoms: C_17  and  C_19
REMARK                            x       y       z     vdW  Elec       q    Type
REMARK                         _______ _______ _______ _____ _____    ______ ____
ROOT
ATOM      7  C   UNL     1      -1.283   2.381  25.011  0.00  0.00    +0.166 C 
ATOM      8  O   UNL     1      -1.027   2.070  25.730  0.00  0.00    -0.350 OA
ATOM      9  C   UNL     1      -1.105   1.250  25.696  0.00  0.00    +0.162 C 
ATOM     10  C   UNL     1      -1.409   1.054  24.956  0.00  0.00    +0.135 C 
ATOM     21  C   UNL     1      -1.519   1.753  24.532  0.00  0.00    +0.199 C 
ATOM     22  O   UNL     1      -1.814   1.813  23.763  0.00  0.00    -0.219 OA
ENDROOT
BRANCH   7   6
ATOM      6  C   UNL     1      -1.300   3.180  24.806  0.00  0.00    +0.147 C 
BRANCH   6   5
ATOM      5  N   UNL     1      -1.190   3.756  25.386  0.00  0.00    -0.079 NA
BRANCH   5   2
ATOM      1  C   UNL     1      -1.360   5.353  25.005  0.00  0.00    +0.197 C 
ATOM      2  S   UNL     1      -1.275   4.555  25.195  0.00  0.00    +0.059 S 
ATOM      3  O   UNL     1      -2.024   4.559  25.545  0.00  0.00    -0.156 OA
ATOM      4  O   UNL     1      -0.528   4.552  24.846  0.00  0.00    -0.156 OA
ENDBRANCH   5   2
ENDBRANCH   6   5
ENDBRANCH   7   6
BRANCH  10  11
ATOM     11  N   UNL     1      -1.574   0.291  24.686  0.00  0.00    -0.209 NA
BRANCH  11  12
ATOM     12  C   UNL     1      -1.820  -0.290  25.217  0.00  0.00    +0.115 C 
BRANCH  12  13
ATOM     13  C   UNL     1      -2.011  -1.045  24.944  0.00  0.00    -0.004 A 
ATOM     14  C   UNL     1      -1.434  -1.635  24.926  0.00  0.00    -0.003 A 
ATOM     15  C   UNL     1      -1.626  -2.389  24.653  0.00  0.00    +0.000 A 
ATOM     16  C   UNL     1      -2.393  -2.554  24.398  0.00  0.00    +0.010 A 
ATOM     17  C   UNL     1      -2.969  -1.964  24.417  0.00  0.00    +0.068 A 
ATOM     18  C   UNL     1      -2.778  -1.209  24.690  0.00  0.00    +0.007 A 
BRANCH  17  19
ATOM     19  C   UNL     1      -3.737  -2.129  24.162  0.00  0.00    +0.100 C 
ATOM     20  N   UNL     1      -4.503  -2.294  23.908  0.00  0.00    -0.191 NA
ENDBRANCH  17  19
ENDBRANCH  12  13
ENDBRANCH  11  12
ENDBRANCH  10  11
TORSDOF 7
ENDMDL
MODEL 4
REMARK VINA RESULT:      -7.9      2.483      5.481
REMARK  Name = 
REMARK  7 active torsions:
REMARK  status: ('A' for Active; 'I' for Inactive)
REMARK    1  A    between atoms: S_2  and  N_5
REMARK    2  A    between atoms: N_5  and  C_6
REMARK    3  A    between atoms: C_6  and  C_7
REMARK    4  A    between atoms: C_10  and  N_11
REMARK    5  A    between atoms: N_11  and  C_12
REMARK    6  A    between atoms: C_12  and  C_13
REMARK    7  A    between atoms: C_17  and  C_19
REMARK                            x       y       z     vdW  Elec       q    Type
REMARK                         _______ _______ _______ _____ _____    ______ ____
ROOT
ATOM      7  C   UNL     1      -1.989  -0.416  24.756  0.00  0.00    +0.166 C 
ATOM      8  O   UNL     1      -1.398  -0.414  25.332  0.00  0.00    -0.350 OA
ATOM      9  C   UNL     1      -1.105   0.354  25.393  0.00  0.00    +0.162 C 
ATOM     10  C   UNL     1      -1.514   0.826  24.856  0.00  0.00    +0.135 C 
ATOM     21  C   UNL     1      -2.060   0.351  24.462  0.00  0.00    +0.199 C 
ATOM     22  O   UNL     1      -2.586   0.599  23.876  0.00  0.00    -0.219 OA
ENDROOT
BRANCH   7   6
ATOM      6  C   UNL     1      -2.430  -1.071  24.517  0.00  0.00    +0.147 C 
BRANCH   6   5
ATOM      5  N   UNL     1      -2.496  -1.727  25.012  0.00  0.00    -0.079 NA
BRANCH   5   2
ATOM      1  C   UNL     1      -3.468  -2.989  24.584  0.00  0.00    +0.197 C 
ATOM      2  S   UNL     1      -2.983  -2.359  24.798  0.00  0.00    +0.059 S 
ATOM      3  O   UNL     1      -2.412  -2.616  24.259  0.00  0.00    -0.156 OA
ATOM      4  O   UNL     1      -3.553  -2.102  25.335  0.00  0.00    -0.156 OA
ENDBRANCH   5   2
ENDBRANCH   6   5
ENDBRANCH   7   6
BRANCH  10  11
ATOM     11  N   UNL     1      -1.397   1.634  24.734  0.00  0.00    -0.209 NA
BRANCH  11  12
ATOM     12  C   UNL     1      -1.115   2.108  25.348  0.00  0.00    +0.115 C 
BRANCH  12  13
ATOM     13  C   UNL     1      -1.239   2.923  25.331  0.00  0.00    -0.004 A 
ATOM     14  C   UNL     1      -0.683   3.417  24.973  0.00  0.00    -0.003 A 
ATOM     15  C   UNL     1      -0.807   4.233  24.956  0.00  0.00    +0.000 A 
ATOM     16  C   UNL     1      -1.486   4.555  25.296  0.00  0.00    +0.010 A 
ATOM     17  C   UNL     1      -2.042   4.060  25.653  0.00  0.00    +0.068 A 
ATOM     18  C   UNL     1      -1.918   3.245  25.671  0.00  0.00    +0.007 A 
BRANCH  17  19
ATOM     19  C   UNL     1      -2.722   4.382  25.993  0.00  0.00    +0.100 C 
ATOM     20  N   UNL     1      -3.401   4.704  26.333  0.00  0.00    -0.191 NA
ENDBRANCH  17  19
ENDBRANCH  12  13
ENDBRANCH  11  12
ENDBRANCH  10  11
TORSDOF 7
ENDMDL
MODEL 5
REMARK VINA RESULT:      -7.6      2.873      4.371
REMARK  Name = 
REMARK  7 active torsions:
REMARK  status: ('A' for Active; 'I' for Inactive)
REMARK    1  A    between atoms: S_2  and  N_5
REMARK    2  A    between atoms: N_5  and  C_6
REMARK    3  A    between atoms: C_6  and  C_7
REMARK    4  A    between atoms: C_10  and  N_11
REMARK    5  A    between atoms: N_11  and  C_12
REMARK    6  A    between atoms: C_12  and  C_13
REMARK    7  A    between atoms: C_17  and  C_19
REMARK                            x       y       z     vdW  Elec       q    Type
REMARK                         _______ _______ _______ _____ _____    ______ ____
ROOT
ATOM      7  C   UNL     1      -1.032   0.952  23.861  0.00  0.00    +0.166 C 
ATOM      8  O   UNL     1      -1.355   1.402  23.250  0.00  0.00    -0.350 OA
ATOM      9  C   UNL     1      -2.122   1.612  23.467  0.00  0.00    +0.162 C 
ATOM     10  C   UNL     1      -2.274   1.292  24.211  0.00  0.00    +0.135 C 
ATOM     21  C   UNL     1      -1.601   0.884  24.455  0.00  0.00    +0.199 C 
ATOM     22  O   UNL     1      -1.511   0.479  25.168  0.00  0.00    -0.219 OA
ENDROOT
BRANCH   7   6
ATOM      6  C   UNL     1      -0.274   0.627  23.876  0.00  0.00    +0.147 C 
BRANCH   6   5
ATOM      5  N   UNL     1       0.168   0.580  23.181  0.00  0.00    -0.079 NA
BRANCH   5   2
ATOM      1  C   UNL     1       1.682  -0.074  23.209  0.00  0.00    +0.197 C 
ATOM      2  S   UNL     1       0.926   0.253  23.195  0.00  0.00    +0.059 S 
ATOM      3  O   UNL     1       0.617  -0.473  22.949  0.00  0.00    -0.156 OA
ATOM      4  O   UNL     1       1.235   0.977  23.440  0.00  0.00    -0.156 OA
ENDBRANCH   5   2
ENDBRANCH   6   5
ENDBRANCH   7   6
BRANCH  10  11
ATOM     11  N   UNL     1      -2.977   1.367  24.637  0.00  0.00    -0.209 NA
BRANCH  11  12
ATOM     12  C   UNL     1      -3.663   1.629  24.259  0.00  0.00    +0.115 C 
BRANCH  12  13
ATOM     13  C   UNL     1      -4.354   1.746  24.693  0.00  0.00    -0.004 A 
ATOM     14  C   UNL     1      -4.817   1.100  24.914  0.00  0.00    -0.003 A 
ATOM     15  C   UNL     1      -5.509   1.217  25.348  0.00  0.00    +0.000 A 
ATOM     16  C   UNL     1      -5.738   1.981  25.561  0.00  0.00    +0.010 A 
ATOM     17  C   UNL     1      -5.274   2.627  25.340  0.00  0.00    +0.068 A 
ATOM     18  C   UNL     1      -4.583   2.509  24.906  0.00  0.00    +0.007 A 
BRANCH  17  19
ATOM     19  C   UNL     1      -5.503   3.391  25.554  0.00  0.00    +0.100 C 
ATOM     20  N   UNL     1      -5.732   4.154  25.767  0.00  0.00    -0.191 NA
ENDBRANCH  17  19
ENDBRANCH  12  13
ENDBRANCH  11  12
ENDBRANCH  10  11
TORSDOF 7
ENDMDL
MODEL 6
REMARK VINA RESULT:      -7.2     17.750     19.724
REMARK  Name = 
REMARK  7 active torsions:
REMARK  status: ('A' for Active; 'I' for Inactive)
REMARK    1  A    between atoms: S_2  and  N_5
REMARK    2  A    between atoms: N_5  and  C_6
REMARK    3  A    between atoms: C_6  and  C_7
REMARK    4  A    between atoms: C_10  and  N_11
REMARK    5  A    between atoms: N_11  and  C_12
REMARK    6  A    between atoms: C_12  and  C_13
REMARK    7  A    between atoms: C_17  and  C_19
REMARK                            x       y       z     vdW  Elec       q    Type
REMARK                         _______ _______ _______ _____ _____    ______ ____
ROOT
ATOM      7  C   UNL     1      12.707   7.889  17.966  0.00  0.00    +0.166 C 
ATOM      8  O   UNL     1      12.531   7.244  18.449  0.00  0.00    -0.350 OA
ATOM      9  C   UNL     1      13.228   7.004  18.818  0.00  0.00    +0.162 C 
ATOM     10  C   UNL     1      13.835   7.501  18.564  0.00  0.00    +0.135 C 
ATOM     21  C   UNL     1      13.513   8.048  18.038  0.00  0.00    +0.199 C 
ATOM     22  O   UNL     1      13.926   8.648  17.650  0.00  0.00    -0.219 OA
ENDROOT
BRANCH   7   6
ATOM      6  C   UNL     1      12.171   8.304  17.495  0.00  0.00    +0.147 C 
BRANCH   6   5
ATOM      5  N   UNL     1      11.465   7.945  17.261  0.00  0.00    -0.079 NA
BRANCH   5   2
ATOM      1  C   UNL     1      10.360   8.799  16.383  0.00  0.00    +0.197 C 
ATOM      2  S   UNL     1      10.912   8.373  16.822  0.00  0.00    +0.059 S 
ATOM      3  O   UNL     1      10.438   8.450  17.494  0.00  0.00    -0.156 OA
ATOM      4  O   UNL     1      11.385   8.295  16.151  0.00  0.00    -0.156 OA
ENDBRANCH   5   2
ENDBRANCH   6   5
ENDBRANCH   7   6
BRANCH  10  11
ATOM     11  N   UNL     1      14.626   7.458  18.796  0.00  0.00    -0.209 NA
BRANCH  11  12
ATOM     12  C   UNL     1      14.863   6.893  19.350  0.00  0.00    +0.115 C 
BRANCH  12  13
ATOM     13  C   UNL     1      15.659   6.826  19.556  0.00  0.00    -0.004 A 
ATOM     14  C   UNL     1      16.139   6.276  19.171  0.00  0.00    -0.003 A 
ATOM     15  C   UNL     1      16.935   6.208  19.376  0.00  0.00    +0.000 A 
ATOM     16  C   UNL     1      17.251   6.691  19.967  0.00  0.00    +0.010 A 
ATOM     17  C   UNL     1      16.771   7.240  20.351  0.00  0.00    +0.068 A 
ATOM     18  C   UNL     1      15.975   7.308  20.145  0.00  0.00    +0.007 A 
BRANCH  17  19
ATOM     19  C   UNL     1      17.087   7.723  20.941  0.00  0.00    +0.100 C 
ATOM     20  N   UNL     1      17.403   8.204  21.531  0.00  0.00    -0.191 NA
ENDBRANCH  17  19
ENDBRANCH  12  13
ENDBRANCH  11  12
ENDBRANCH  10  11
TORSDOF 7
ENDMDL
MODEL 7
REMARK VINA RESULT:      -6.8     17.016     19.052
REMARK  Name = 
REMARK  7 active torsions:
REMARK  status: ('A' for Active; 'I' for Inactive)
REMARK    1  A    between atoms: S_2  and  N_5
REMARK    2  A    between atoms: N_5  and  C_6
REMARK    3  A    between atoms: C_6  and  C_7
REMARK    4  A    between atoms: C_10  and  N_11
REMARK    5  A    between atoms: N_11  and  C_12
REMARK    6  A    between atoms: C_12  and  C_13
REMARK    7  A    between atoms: C_17  and  C_19
REMARK                            x       y       z     vdW  Elec       q    Type
REMARK                         _______ _______ _______ _____ _____    ______ ____
ROOT
ATOM      7  C   UNL     1      12.802   7.776  21.587  0.00  0.00    +0.166 C 
ATOM      8  O   UNL     1      12.657   7.076  21.174  0.00  0.00    -0.350 OA
ATOM      9  C   UNL     1      13.378   6.795  20.888  0.00  0.00    +0.162 C 
ATOM     10  C   UNL     1      13.968   7.321  21.123  0.00  0.00    +0.135 C 
ATOM     21  C   UNL     1      13.612   7.927  21.555  0.00  0.00    +0.199 C 
ATOM     22  O   UNL     1      13.999   8.571  21.895  0.00  0.00    -0.219 OA
ENDROOT
BRANCH   7   6
ATOM      6  C   UNL     1      12.236   8.242  21.964  0.00  0.00    +0.147 C 
BRANCH   6   5
ATOM      5  N   UNL     1      11.435   8.126  21.807  0.00  0.00    -0.079 NA
BRANCH   5   2
ATOM      1  C   UNL     1      10.305   9.080  22.538  0.00  0.00    +0.197 C 
ATOM      2  S   UNL     1      10.869   8.604  22.173  0.00  0.00    +0.059 S 
ATOM      3  O   UNL     1      10.782   9.036  21.475  0.00  0.00    -0.156 OA
ATOM      4  O   UNL     1      10.956   8.172  22.871  0.00  0.00    -0.156 OA
ENDBRANCH   5   2
ENDBRANCH   6   5
ENDBRANCH   7   6
BRANCH  10  11
ATOM     11  N   UNL     1      14.773   7.252  20.955  0.00  0.00    -0.209 NA
BRANCH  11  12
ATOM     12  C   UNL     1      15.070   6.551  20.637  0.00  0.00    +0.115 C 
BRANCH  12  13
ATOM     13  C   UNL     1      15.848   6.518  20.365  0.00  0.00    -0.004 A 
ATOM     14  C   UNL     1      16.459   6.826  20.826  0.00  0.00    -0.003 A 
ATOM     15  C   UNL     1      17.237   6.793  20.554  0.00  0.00    +0.000 A 
ATOM     16  C   UNL     1      17.405   6.452  19.822  0.00  0.00    +0.010 A 
ATOM     17  C   UNL     1      16.793   6.143  19.362  0.00  0.00    +0.068 A 
ATOM     18  C   UNL     1      16.015   6.176  19.633  0.00  0.00    +0.007 A 
BRANCH  17  19
ATOM     19  C   UNL     1      16.961   5.802  18.629  0.00  0.00    +0.100 C 
ATOM     20  N   UNL     1      17.128   5.461  17.897  0.00  0.00    -0.191 NA
ENDBRANCH  17  19
ENDBRANCH  12  13
ENDBRANCH  11  12
ENDBRANCH  10  11
TORSDOF 7
ENDMDL
MODEL 8
REMARK VINA RESULT:      -6.3     16.320     18.176
REMARK  Name = 
REMARK  7 active torsions:
REMARK  status: ('A' for Active; 'I' for Inactive)
REMARK    1  A    between atoms: S_2  and  N_5
REMARK    2  A    between atoms: N_5  and  C_6
REMARK    3  A    between atoms: C_6  and  C_7
REMARK    4  A    between atoms: C_10  and  N_11
REMARK    5  A    between atoms: N_11  and  C_12
REMARK    6  A    between atoms: C_12  and  C_13
REMARK    7  A    between atoms: C_17  and  C_19
REMARK                            x       y       z     vdW  Elec       q    Type
REMARK                         _______ _______ _______ _____ _____    ______ ____
ROOT
ATOM      7  C   UNL     1      12.655   8.909  17.598  0.00  0.00    +0.166 C 
ATOM      8  O   UNL     1      11.859   8.786  17.419  0.00  0.00    -0.350 OA
ATOM      9  C   UNL     1      11.446   8.717  18.129  0.00  0.00    +0.162 C 
ATOM     10  C   UNL     1      11.986   8.798  18.747  0.00  0.00    +0.135 C 
ATOM     21  C   UNL     1      12.733   8.916  18.419  0.00  0.00    +0.199 C 
ATOM     22  O   UNL     1      13.436   9.024  18.838  0.00  0.00    -0.219 OA
ENDROOT
BRANCH   7   6
ATOM      6  C   UNL     1      13.265   9.008  17.052  0.00  0.00    +0.147 C 
BRANCH   6   5
ATOM      5  N   UNL     1      13.249   8.596  16.337  0.00  0.00    -0.079 NA
BRANCH   5   2
ATOM      1  C   UNL     1      14.417   8.866  15.203  0.00  0.00    +0.197 C 
ATOM      2  S   UNL     1      13.834   8.731  15.769  0.00  0.00    +0.059 S 
ATOM      3  O   UNL     1      14.392   8.371  16.260  0.00  0.00    -0.156 OA
ATOM      4  O   UNL     1      13.276   9.091  15.280  0.00  0.00    -0.156 OA
ENDBRANCH   5   2
ENDBRANCH   6   5
ENDBRANCH   7   6
BRANCH  10  11
ATOM     11  N   UNL     1      11.809   8.766  19.553  0.00  0.00    -0.209 NA
BRANCH  11  12
ATOM     12  C   UNL     1      11.080   8.472  19.804  0.00  0.00    +0.115 C 
BRANCH  12  13
ATOM     13  C   UNL     1      10.985   8.210  20.580  0.00  0.00    -0.004 A 
ATOM     14  C   UNL     1      10.851   8.755  21.186  0.00  0.00    -0.003 A 
ATOM     15  C   UNL     1      10.757   8.493  21.962  0.00  0.00    +0.000 A 
ATOM     16  C   UNL     1      10.796   7.687  22.134  0.00  0.00    +0.010 A 
ATOM     17  C   UNL     1      10.930   7.143  21.528  0.00  0.00    +0.068 A 
ATOM     18  C   UNL     1      11.024   7.405  20.752  0.00  0.00    +0.007 A 
BRANCH  17  19
ATOM     19  C   UNL     1      10.969   6.337  21.700  0.00  0.00    +0.100 C 
ATOM     20  N   UNL     1      11.008   5.531  21.871  0.00  0.00    -0.191 NA
ENDBRANCH  17  19
ENDBRANCH  12  13
ENDBRANCH  11  12
ENDBRANCH  10  11
TORSDOF 7
ENDMDL
MODEL 9
REMARK VINA RESULT:      -6.0     13.946     14.670
REMARK  Name = 
REMARK  7 active torsions:
REMARK  status: ('A' for Active; 'I' for Inactive)
REMARK    1  A    between atoms: S_2  and  N_5
REMARK    2  A    between atoms: N_5  and  C_6
REMARK    3  A    between atoms: C_6  and  C_7
REMARK    4  A    between atoms: C_10  and  N_11
REMARK    5  A    between atoms: N_11  and  C_12
REMARK    6  A    between atoms: C_12  and  C_13
REMARK    7  A    between atoms: C_17  and  C_19
REMARK                            x       y       z     vdW  Elec       q    Type
REMARK                         _______ _______ _______ _____ _____    ______ ____
ROOT
ATOM      7  C   UNL     1      -6.011 -10.278  16.878  0.00  0.00    +0.166 C 
ATOM      8  O   UNL     1      -5.598 -10.683  17.466  0.00  0.00    -0.350 OA
ATOM      9  C   UNL     1      -4.821 -10.780  17.210  0.00  0.00    +0.162 C 
ATOM     10  C   UNL     1      -4.752 -10.436  16.465  0.00  0.00    +0.135 C 
ATOM     21  C   UNL     1      -5.488 -10.126  16.259  0.00  0.00    +0.199 C 
ATOM     22  O   UNL     1      -5.669  -9.732  15.556  0.00  0.00    -0.219 OA
ENDROOT
BRANCH   7   6
ATOM      6  C   UNL     1      -6.808 -10.064  16.904  0.00  0.00    +0.147 C 
BRANCH   6   5
ATOM      5  N   UNL     1      -7.228 -10.126  17.611  0.00  0.00    -0.079 NA
BRANCH   5   2
ATOM      1  C   UNL     1      -8.843  -9.788  17.642  0.00  0.00    +0.197 C 
ATOM      2  S   UNL     1      -8.036  -9.957  17.627  0.00  0.00    +0.059 S 
ATOM      3  O   UNL     1      -7.871  -9.191  17.889  0.00  0.00    -0.156 OA
ATOM      4  O   UNL     1      -8.201 -10.721  17.365  0.00  0.00    -0.156 OA
ENDBRANCH   5   2
ENDBRANCH   6   5
ENDBRANCH   7   6
BRANCH  10  11
ATOM     11  N   UNL     1      -4.068 -10.407  16.005  0.00  0.00    -0.209 NA
BRANCH  11  12
ATOM     12  C   UNL     1      -3.378 -10.776  16.268  0.00  0.00    +0.115 C 
BRANCH  12  13
ATOM     13  C   UNL     1      -2.671 -10.673  15.855  0.00  0.00    -0.004 A 
ATOM     14  C   UNL     1      -1.960 -10.598  16.268  0.00  0.00    -0.003 A 
ATOM     15  C   UNL     1      -1.254 -10.495  15.855  0.00  0.00    +0.000 A 
ATOM     16  C   UNL     1      -1.257 -10.466  15.030  0.00  0.00    +0.010 A 
ATOM     17  C   UNL     1      -1.968 -10.542  14.619  0.00  0.00    +0.068 A 
ATOM     18  C   UNL     1      -2.675 -10.645  15.031  0.00  0.00    +0.007 A 
BRANCH  17  19
ATOM     19  C   UNL     1      -1.971 -10.514  13.794  0.00  0.00    +0.100 C 
ATOM     20  N   UNL     1      -1.975 -10.485  12.970  0.00  0.00    -0.191 NA
ENDBRANCH  17  19
ENDBRANCH  12  13
ENDBRANCH  11  12
ENDBRANCH  10  11
TORSDOF 7
ENDMDL
MODEL 10
REMARK VINA RESULT:      -5.8     15.119     17.039
REMARK  Name = 
REMARK  7 active torsions:
REMARK  status: ('A' for Active; 'I' for Inactive)
REMARK    1  A    between atoms: S_2  and  N_5
REMARK    2  A    between atoms: N_5  and  C_6
REMARK    3  A    between atoms: C_6  and  C_7
REMARK    4  A    between atoms: C_10  and  N_11
REMARK    5  A    between atoms: N_11  and  C_12
REMARK    6  A    between atoms: C_12  and  C_13
REMARK    7  A    between atoms: C_17  and  C_19
REMARK                            x       y       z     vdW  Elec       q    Type
REMARK                         _______ _______ _______ _____ _____    ______ ____
ROOT
ATOM      7  C   UNL     1      -2.199 -10.463  13.322  0.00  0.00    +0.166 C 
ATOM      8  O   UNL     1      -1.604 -10.172  12.831  0.00  0.00    -0.350 OA
ATOM      9  C   UNL     1      -1.929 -10.045  12.084  0.00  0.00    +0.162 C 
ATOM     10  C   UNL     1      -2.725 -10.257  12.114  0.00  0.00    +0.135 C 
ATOM     21  C   UNL     1      -2.892 -10.516  12.878  0.00  0.00    +0.199 C 
ATOM     22  O   UNL     1      -3.624 -10.781  13.152  0.00  0.00    -0.219 OA
ENDROOT
BRANCH   7   6
ATOM      6  C   UNL     1      -2.115 -10.667  14.118  0.00  0.00    +0.147 C 
BRANCH   6   5
ATOM      5  N   UNL     1      -1.674 -10.185  14.622  0.00  0.00    -0.079 NA
BRANCH   5   2
ATOM      1  C   UNL     1      -1.443 -10.630  16.194  0.00  0.00    +0.197 C 
ATOM      2  S   UNL     1      -1.559 -10.408  15.409  0.00  0.00    +0.059 S 
ATOM      3  O   UNL     1      -2.265 -10.034  15.618  0.00  0.00    -0.156 OA
ATOM      4  O   UNL     1      -0.853 -10.781  15.199  0.00  0.00    -0.156 OA
ENDBRANCH   5   2
ENDBRANCH   6   5
ENDBRANCH   7   6
BRANCH  10  11
ATOM     11  N   UNL     1      -3.261 -10.218  11.487  0.00  0.00    -0.209 NA
BRANCH  11  12
ATOM     12  C   UNL     1      -3.133  -9.688  10.867  0.00  0.00    +0.115 C 
BRANCH  12  13
ATOM     13  C   UNL     1      -3.666  -9.650  10.239  0.00  0.00    -0.004 A 
ATOM     14  C   UNL     1      -3.678 -10.250   9.672  0.00  0.00    -0.003 A 
ATOM     15  C   UNL     1      -4.211 -10.213   9.044  0.00  0.00    +0.000 A 
ATOM     16  C   UNL     1      -4.733  -9.576   8.982  0.00  0.00    +0.010 A 
ATOM     17  C   UNL     1      -4.720  -8.976   9.549  0.00  0.00    +0.068 A 
ATOM     18  C   UNL     1      -4.186  -9.014  10.177  0.00  0.00    +0.007 A 
BRANCH  17  19
ATOM     19  C   UNL     1      -5.241  -8.339   9.487  0.00  0.00    +0.100 C 
ATOM     20  N   UNL     1      -5.762  -7.703   9.425  0.00  0.00    -0.191 NA
ENDBRANCH  17  19
ENDBRANCH  12  13
ENDBRANCH  11  12
ENDBRANCH  10  11
TORSDOF 7
ENDMDL
