MODEL 1
REMARK VINA RESULT:     -10.1      0.000      0.000
REMARK  Name = 
REMARK  5 active torsions:
REMARK  status: ('A' for Active; 'I' for Inactive)
REMARK    1  A    between atoms: N_2  and  C_4
REMARK    2  A    between atoms: C_4  and  C_5
REMARK    3  A    between atoms: C_7  and  C_8
REMARK    4  A    between atoms: C_8  and  C_9
REMARK    5  A    between atoms: C_12  and  C_14
REMARK                            x       y       z     vdW  Elec       q    Type
REMARK                         _______ _______ _______ _____ _____    ______ ____
ROOT
ATOM      5  C   UNL     1      -4.526   2.773  25.402  0.00  0.00    +0.161 C 
ATOM      6  O   UNL     1      -4.130   2.244  24.908  0.00  0.00    -0.354 OA
ATOM      7  C   UNL     1      -4.503   1.552  24.661  0.00  0.00    +0.121 C 
ATOM     18  C   UNL     1      -5.272   1.387  24.908  0.00  0.00    +0.033 C 
ATOM     19  C   UNL     1      -5.670   1.915  25.402  0.00  0.00    +0.038 C 
ATOM     20  C   UNL     1      -5.296   2.609  25.649  0.00  0.00    +0.180 C 
ATOM     21  O   UNL     1      -5.693   3.137  26.142  0.00  0.00    -0.220 OA
ENDROOT
BRANCH   5   4
ATOM      4  C   UNL     1      -4.153   3.466  25.648  0.00  0.00    +0.105 C 
BRANCH   4   2
ATOM      1  C   UNL     1      -3.605   4.107  24.495  0.00  0.00    +0.090 C 
ATOM      2  N   UNL     1      -3.501   3.755  25.233  0.00  0.00    -0.268 NA
ATOM      3  C   UNL     1      -2.745   3.691  25.557  0.00  0.00    +0.090 C 
ENDBRANCH   4   2
ENDBRANCH   5   4
BRANCH   7   8
ATOM      8  C   UNL     1      -4.106   1.022  24.167  0.00  0.00    +0.079 C 
BRANCH   8   9
ATOM      9  C   UNL     1      -3.770   0.338  24.482  0.00  0.00    +0.103 A 
ATOM     10  N   UNL     1      -3.113   0.307  24.981  0.00  0.00    -0.082 NA
ATOM     11  O   UNL     1      -2.967  -0.486  25.161  0.00  0.00    -0.358 OA
ATOM     12  C   UNL     1      -3.534  -0.943  24.773  0.00  0.00    +0.153 A 
ATOM     13  C   UNL     1      -4.030  -0.434  24.353  0.00  0.00    +0.054 A 
BRANCH  12  14
ATOM     14  C   UNL     1      -3.595  -1.765  24.800  0.00  0.00    +0.054 C 
ATOM     15  C   UNL     1      -3.656  -2.588  24.826  0.00  0.00    +0.008 C 
ATOM     16  C   UNL     1      -3.363  -1.757  25.592  0.00  0.00    +0.008 C 
ATOM     17  C   UNL     1      -3.826  -1.774  24.008  0.00  0.00    +0.008 C 
ENDBRANCH  12  14
ENDBRANCH   8   9
ENDBRANCH   7   8
TORSDOF 5
ENDMDL
MODEL 2
REMARK VINA RESULT:     -10.0      1.348      1.798
REMARK  Name = 
REMARK  5 active torsions:
REMARK  status: ('A' for Active; 'I' for Inactive)
REMARK    1  A    between atoms: N_2  and  C_4
REMARK    2  A    between atoms: C_4  and  C_5
REMARK    3  A    between atoms: C_7  and  C_8
REMARK    4  A    between atoms: C_8  and  C_9
REMARK    5  A    between atoms: C_12  and  C_14
REMARK                            x       y       z     vdW  Elec       q    Type
REMARK                         _______ _______ _______ _____ _____    ______ ____
ROOT
ATOM      5  C   UNL     1      -2.513   3.033  25.343  0.00  0.00    +0.161 C 
ATOM      6  O   UNL     1      -2.711   2.386  24.871  0.00  0.00    -0.354 OA
ATOM      7  C   UNL     1      -3.486   2.288  24.607  0.00  0.00    +0.121 C 
ATOM     18  C   UNL     1      -4.065   2.838  24.815  0.00  0.00    +0.033 C 
ATOM     19  C   UNL     1      -3.868   3.486  25.287  0.00  0.00    +0.038 C 
ATOM     20  C   UNL     1      -3.092   3.583  25.551  0.00  0.00    +0.180 C 
ATOM     21  O   UNL     1      -2.896   4.231  26.023  0.00  0.00    -0.220 OA
ENDROOT
BRANCH   5   4
ATOM      4  C   UNL     1      -1.738   3.131  25.606  0.00  0.00    +0.105 C 
BRANCH   4   2
ATOM      1  C   UNL     1      -0.861   3.186  24.479  0.00  0.00    +0.090 C 
ATOM      2  N   UNL     1      -1.111   2.816  25.172  0.00  0.00    -0.268 NA
ATOM      3  C   UNL     1      -0.734   2.129  25.432  0.00  0.00    +0.090 C 
ENDBRANCH   4   2
ENDBRANCH   5   4
BRANCH   7   8
ATOM      8  C   UNL     1      -3.684   1.641  24.135  0.00  0.00    +0.079 C 
BRANCH   8   9
ATOM      9  C   UNL     1      -3.901   0.927  24.485  0.00  0.00    +0.103 A 
ATOM     10  N   UNL     1      -4.513   0.819  25.029  0.00  0.00    -0.082 NA
ATOM     11  O   UNL     1      -4.534   0.020  25.234  0.00  0.00    -0.358 OA
ATOM     12  C   UNL     1      -3.936  -0.366  24.817  0.00  0.00    +0.153 A 
ATOM     13  C   UNL     1      -3.544   0.194  24.355  0.00  0.00    +0.054 A 
BRANCH  12  14
ATOM     14  C   UNL     1      -3.759  -1.171  24.856  0.00  0.00    +0.054 C 
ATOM     15  C   UNL     1      -3.583  -1.976  24.894  0.00  0.00    +0.008 C 
ATOM     16  C   UNL     1      -3.388  -1.055  25.584  0.00  0.00    +0.008 C 
ATOM     17  C   UNL     1      -4.130  -1.287  24.128  0.00  0.00    +0.008 C 
ENDBRANCH  12  14
ENDBRANCH   8   9
ENDBRANCH   7   8
TORSDOF 5
ENDMDL
MODEL 3
REMARK VINA RESULT:      -9.5      1.263      4.196
REMARK  Name = 
REMARK  5 active torsions:
REMARK  status: ('A' for Active; 'I' for Inactive)
REMARK    1  A    between atoms: N_2  and  C_4
REMARK    2  A    between atoms: C_4  and  C_5
REMARK    3  A    between atoms: C_7  and  C_8
REMARK    4  A    between atoms: C_8  and  C_9
REMARK    5  A    between atoms: C_12  and  C_14
REMARK                            x       y       z     vdW  Elec       q    Type
REMARK                         _______ _______ _______ _____ _____    ______ ____
ROOT
ATOM      5  C   UNL     1      -2.746  -1.265  24.889  0.00  0.00    +0.161 C 
ATOM      6  O   UNL     1      -2.914  -0.505  24.614  0.00  0.00    -0.354 OA
ATOM      7  C   UNL     1      -3.605  -0.363  24.187  0.00  0.00    +0.121 C 
ATOM     18  C   UNL     1      -4.130  -0.981  24.036  0.00  0.00    +0.033 C 
ATOM     19  C   UNL     1      -3.964  -1.741  24.310  0.00  0.00    +0.038 C 
ATOM     20  C   UNL     1      -3.271  -1.883  24.737  0.00  0.00    +0.180 C 
ATOM     21  O   UNL     1      -3.105  -2.643  25.011  0.00  0.00    -0.220 OA
ENDROOT
BRANCH   5   4
ATOM      4  C   UNL     1      -2.055  -1.406  25.315  0.00  0.00    +0.105 C 
BRANCH   4   2
ATOM      1  C   UNL     1      -0.885  -1.037  24.583  0.00  0.00    +0.090 C 
ATOM      2  N   UNL     1      -1.400  -0.915  25.215  0.00  0.00    -0.268 NA
ATOM      3  C   UNL     1      -1.260  -0.301  25.748  0.00  0.00    +0.090 C 
ENDBRANCH   4   2
ENDBRANCH   5   4
BRANCH   7   8
ATOM      8  C   UNL     1      -3.773   0.397  23.913  0.00  0.00    +0.079 C 
BRANCH   8   9
ATOM      9  C   UNL     1      -4.185   0.927  24.392  0.00  0.00    +0.103 A 
ATOM     10  N   UNL     1      -4.782   0.732  24.928  0.00  0.00    -0.082 NA
ATOM     11  O   UNL     1      -5.039   1.429  25.287  0.00  0.00    -0.358 OA
ATOM     12  C   UNL     1      -4.602   2.054  24.973  0.00  0.00    +0.153 A 
ATOM     13  C   UNL     1      -4.074   1.743  24.419  0.00  0.00    +0.054 A 
BRANCH  12  14
ATOM     14  C   UNL     1      -4.678   2.850  25.176  0.00  0.00    +0.054 C 
ATOM     15  C   UNL     1      -4.754   3.647  25.378  0.00  0.00    +0.008 C 
ATOM     16  C   UNL     1      -5.469   2.724  25.374  0.00  0.00    +0.008 C 
ATOM     17  C   UNL     1      -3.887   2.976  24.978  0.00  0.00    +0.008 C 
ENDBRANCH  12  14
ENDBRANCH   8   9
ENDBRANCH   7   8
TORSDOF 5
ENDMDL
