MODEL 1
REMARK VINA RESULT:     -13.9      0.000      0.000
REMARK  Name = 
REMARK  6 active torsions:
REMARK  status: ('A' for Active; 'I' for Inactive)
REMARK    1  A    between atoms: C_2  and  C_5
REMARK    2  A    between atoms: C_9  and  N_10
REMARK    3  A    between atoms: C_11  and  O_13
REMARK    4  A    between atoms: O_13  and  C_14
REMARK    5  A    between atoms: C_18  and  N_22
REMARK    6  A    between atoms: C_26  and  C_27
REMARK                            x       y       z     vdW  Elec       q    Type
REMARK                         _______ _______ _______ _____ _____    ______ ____
ROOT
ATOM     14  C   UNL     1      -0.342   0.903  24.676  0.00  0.00    +0.229 C 
ATOM     15  C   UNL     1      -0.310   0.656  23.890  0.00  0.00    +0.188 C 
ATOM     16  O   UNL     1      -0.682  -0.078  23.839  0.00  0.00    -0.348 OA
ATOM     17  C   UNL     1      -0.944  -0.285  24.593  0.00  0.00    +0.171 C 
ATOM     18  C   UNL     1      -1.335  -0.866  25.029  0.00  0.00    +0.167 C 
ATOM     19  C   UNL     1      -1.367  -0.618  25.815  0.00  0.00    +0.169 C 
ATOM     20  O   UNL     1      -0.995   0.116  25.866  0.00  0.00    -0.348 OA
ATOM     21  C   UNL     1      -0.733   0.322  25.111  0.00  0.00    +0.187 C 
ENDROOT
BRANCH  18  22
ATOM     22  N   UNL     1      -1.641  -1.572  24.730  0.00  0.00    -0.210 N 
ATOM     23  N   UNL     1      -1.202  -2.227  24.487  0.00  0.00    -0.043 NA
ATOM     24  N   UNL     1      -1.730  -2.806  24.228  0.00  0.00    -0.023 NA
ATOM     25  N   UNL     1      -2.494  -2.508  24.311  0.00  0.00    -0.108 NA
ATOM     26  C   UNL     1      -2.440  -1.746  24.620  0.00  0.00    +0.184 A 
BRANCH  26  27
ATOM     27  C   UNL     1      -3.073  -1.245  24.791  0.00  0.00    +0.037 A 
ATOM     28  C   UNL     1      -3.359  -1.189  25.563  0.00  0.00    +0.003 A 
ATOM     29  C   UNL     1      -3.992  -0.689  25.733  0.00  0.00    +0.000 A 
ATOM     30  C   UNL     1      -4.340  -0.244  25.131  0.00  0.00    +0.000 A 
ATOM     31  C   UNL     1      -4.054  -0.300  24.360  0.00  0.00    +0.000 A 
ATOM     32  C   UNL     1      -3.421  -0.800  24.190  0.00  0.00    +0.003 A 
ENDBRANCH  26  27
ENDBRANCH  18  22
BRANCH  14  13
ATOM     13  O   UNL     1      -0.036   1.609  24.975  0.00  0.00    -0.432 OA
BRANCH  13  11
ATOM     10  N   UNL     1      -0.612   2.790  25.537  0.00  0.00    -0.142 NA
ATOM     11  C   UNL     1      -0.455   2.314  24.883  0.00  0.00    +0.425 C 
ATOM     12  O   UNL     1      -0.719   2.541  24.134  0.00  0.00    -0.224 OA
BRANCH  10   9
ATOM      5  C   UNL     1      -2.244   4.240  25.577  0.00  0.00    +0.073 A 
ATOM      6  C   UNL     1      -1.870   4.903  25.259  0.00  0.00    +0.004 A 
ATOM      7  C   UNL     1      -1.077   4.862  25.034  0.00  0.00    +0.001 A 
ATOM      8  C   UNL     1      -0.658   4.158  25.127  0.00  0.00    +0.017 A 
ATOM      9  C   UNL     1      -1.032   3.494  25.445  0.00  0.00    +0.077 A 
ATOM     33  C   UNL     1      -1.824   3.535  25.669  0.00  0.00    +0.021 A 
BRANCH   5   2
ATOM      1  F   UNL     1      -3.829   4.322  26.026  0.00  0.00    -0.166 F 
ATOM      2  C   UNL     1      -3.036   4.281  25.801  0.00  0.00    +0.419 C 
ATOM      3  F   UNL     1      -2.807   4.402  26.584  0.00  0.00    -0.166 F 
ATOM      4  F   UNL     1      -3.265   4.159  25.018  0.00  0.00    -0.166 F 
ENDBRANCH   5   2
ENDBRANCH  10   9
ENDBRANCH  13  11
ENDBRANCH  14  13
TORSDOF 6
ENDMDL
MODEL 2
REMARK VINA RESULT:     -13.8      2.075      5.025
REMARK  Name = 
REMARK  6 active torsions:
REMARK  status: ('A' for Active; 'I' for Inactive)
REMARK    1  A    between atoms: C_2  and  C_5
REMARK    2  A    between atoms: C_9  and  N_10
REMARK    3  A    between atoms: C_11  and  O_13
REMARK    4  A    between atoms: O_13  and  C_14
REMARK    5  A    between atoms: C_18  and  N_22
REMARK    6  A    between atoms: C_26  and  C_27
REMARK                            x       y       z     vdW  Elec       q    Type
REMARK                         _______ _______ _______ _____ _____    ______ ____
ROOT
ATOM     14  C   UNL     1      -0.596   1.162  24.951  0.00  0.00    +0.229 C 
ATOM     15  C   UNL     1      -0.506   1.425  24.175  0.00  0.00    +0.188 C 
ATOM     16  O   UNL     1      -0.604   2.244  24.172  0.00  0.00    -0.348 OA
ATOM     17  C   UNL     1      -0.754   2.487  24.945  0.00  0.00    +0.171 C 
ATOM     18  C   UNL     1      -0.908   3.142  25.422  0.00  0.00    +0.167 C 
ATOM     19  C   UNL     1      -0.998   2.879  26.198  0.00  0.00    +0.169 C 
ATOM     20  O   UNL     1      -0.899   2.060  26.201  0.00  0.00    -0.348 OA
ATOM     21  C   UNL     1      -0.749   1.817  25.427  0.00  0.00    +0.187 C 
ENDROOT
BRANCH  18  22
ATOM     22  N   UNL     1      -0.962   3.925  25.166  0.00  0.00    -0.210 N 
ATOM     23  N   UNL     1      -0.336   4.395  24.905  0.00  0.00    -0.043 NA
ATOM     24  N   UNL     1      -0.639   5.135  24.705  0.00  0.00    -0.023 NA
ATOM     25  N   UNL     1      -1.452   5.123  24.842  0.00  0.00    -0.108 NA
ATOM     26  C   UNL     1      -1.651   4.376  25.127  0.00  0.00    +0.184 A 
BRANCH  26  27
ATOM     27  C   UNL     1      -2.409   4.123  25.337  0.00  0.00    +0.037 A 
ATOM     28  C   UNL     1      -2.659   4.173  26.122  0.00  0.00    +0.003 A 
ATOM     29  C   UNL     1      -3.415   3.921  26.330  0.00  0.00    +0.000 A 
ATOM     30  C   UNL     1      -3.923   3.617  25.755  0.00  0.00    +0.000 A 
ATOM     31  C   UNL     1      -3.673   3.567  24.970  0.00  0.00    +0.000 A 
ATOM     32  C   UNL     1      -2.916   3.819  24.762  0.00  0.00    +0.003 A 
ENDBRANCH  26  27
ENDBRANCH  18  22
BRANCH  14  13
ATOM     13  O   UNL     1      -0.541   0.379  25.207  0.00  0.00    -0.432 OA
BRANCH  13  11
ATOM     10  N   UNL     1      -1.558  -0.619  25.324  0.00  0.00    -0.142 NA
ATOM     11  C   UNL     1      -1.016  -0.202  24.863  0.00  0.00    +0.425 C 
ATOM     12  O   UNL     1      -0.949  -0.364  24.056  0.00  0.00    -0.224 OA
BRANCH  10   9
ATOM      5  C   UNL     1      -3.296  -1.615  24.457  0.00  0.00    +0.073 A 
ATOM      6  C   UNL     1      -2.982  -2.361  24.293  0.00  0.00    +0.004 A 
ATOM      7  C   UNL     1      -2.193  -2.525  24.472  0.00  0.00    +0.001 A 
ATOM      8  C   UNL     1      -1.719  -1.944  24.816  0.00  0.00    +0.017 A 
ATOM      9  C   UNL     1      -2.033  -1.199  24.980  0.00  0.00    +0.077 A 
ATOM     33  C   UNL     1      -2.820  -1.035  24.801  0.00  0.00    +0.021 A 
BRANCH   5   2
ATOM      1  F   UNL     1      -4.872  -1.287  24.098  0.00  0.00    -0.166 F 
ATOM      2  C   UNL     1      -4.083  -1.451  24.278  0.00  0.00    +0.419 C 
ATOM      3  F   UNL     1      -3.892  -1.406  23.478  0.00  0.00    -0.166 F 
ATOM      4  F   UNL     1      -4.276  -1.497  25.079  0.00  0.00    -0.166 F 
ENDBRANCH   5   2
ENDBRANCH  10   9
ENDBRANCH  13  11
ENDBRANCH  14  13
TORSDOF 6
ENDMDL
MODEL 3
REMARK VINA RESULT:     -13.1      2.735      5.630
REMARK  Name = 
REMARK  6 active torsions:
REMARK  status: ('A' for Active; 'I' for Inactive)
REMARK    1  A    between atoms: C_2  and  C_5
REMARK    2  A    between atoms: C_9  and  N_10
REMARK    3  A    between atoms: C_11  and  O_13
REMARK    4  A    between atoms: O_13  and  C_14
REMARK    5  A    between atoms: C_18  and  N_22
REMARK    6  A    between atoms: C_26  and  C_27
REMARK                            x       y       z     vdW  Elec       q    Type
REMARK                         _______ _______ _______ _____ _____    ______ ____
ROOT
ATOM     14  C   UNL     1      -4.019   1.528  24.455  0.00  0.00    +0.229 C 
ATOM     15  C   UNL     1      -4.233   1.793  25.207  0.00  0.00    +0.188 C 
ATOM     16  O   UNL     1      -3.760   2.443  25.391  0.00  0.00    -0.348 OA
ATOM     17  C   UNL     1      -3.255   2.580  24.755  0.00  0.00    +0.171 C 
ATOM     18  C   UNL     1      -2.650   3.067  24.475  0.00  0.00    +0.167 C 
ATOM     19  C   UNL     1      -2.436   2.802  23.724  0.00  0.00    +0.169 C 
ATOM     20  O   UNL     1      -2.909   2.152  23.539  0.00  0.00    -0.348 OA
ATOM     21  C   UNL     1      -3.415   2.015  24.176  0.00  0.00    +0.187 C 
ENDROOT
BRANCH  18  22
ATOM     22  N   UNL     1      -2.317   3.706  24.877  0.00  0.00    -0.210 N 
ATOM     23  N   UNL     1      -2.687   4.428  25.032  0.00  0.00    -0.043 NA
ATOM     24  N   UNL     1      -2.155   4.903  25.445  0.00  0.00    -0.023 NA
ATOM     25  N   UNL     1      -1.456   4.477  25.545  0.00  0.00    -0.108 NA
ATOM     26  C   UNL     1      -1.557   3.737  25.193  0.00  0.00    +0.184 A 
BRANCH  26  27
ATOM     27  C   UNL     1      -0.994   3.134  25.165  0.00  0.00    +0.037 A 
ATOM     28  C   UNL     1      -0.521   3.042  24.494  0.00  0.00    +0.003 A 
ATOM     29  C   UNL     1       0.041   2.439  24.466  0.00  0.00    +0.000 A 
ATOM     30  C   UNL     1       0.130   1.927  25.107  0.00  0.00    +0.000 A 
ATOM     31  C   UNL     1      -0.343   2.019  25.777  0.00  0.00    +0.000 A 
ATOM     32  C   UNL     1      -0.904   2.622  25.805  0.00  0.00    +0.003 A 
ENDBRANCH  26  27
ENDBRANCH  18  22
BRANCH  14  13
ATOM     13  O   UNL     1      -4.352   0.889  24.054  0.00  0.00    -0.432 OA
BRANCH  13  11
ATOM     10  N   UNL     1      -3.833  -0.414  23.779  0.00  0.00    -0.142 NA
ATOM     11  C   UNL     1      -4.190   0.118  24.298  0.00  0.00    +0.425 C 
ATOM     12  O   UNL     1      -4.385  -0.121  25.064  0.00  0.00    -0.224 OA
BRANCH  10   9
ATOM      5  C   UNL     1      -2.746  -2.163  24.503  0.00  0.00    +0.073 A 
ATOM      6  C   UNL     1      -3.347  -2.727  24.513  0.00  0.00    +0.004 A 
ATOM      7  C   UNL     1      -4.111  -2.521  24.278  0.00  0.00    +0.001 A 
ATOM      8  C   UNL     1      -4.272  -1.749  24.034  0.00  0.00    +0.017 A 
ATOM      9  C   UNL     1      -3.671  -1.185  24.023  0.00  0.00    +0.077 A 
ATOM     33  C   UNL     1      -2.908  -1.392  24.258  0.00  0.00    +0.021 A 
BRANCH   5   2
ATOM      1  F   UNL     1      -1.219  -2.577  24.972  0.00  0.00    -0.166 F 
ATOM      2  C   UNL     1      -1.983  -2.369  24.737  0.00  0.00    +0.419 C 
ATOM      3  F   UNL     1      -1.844  -2.701  23.995  0.00  0.00    -0.166 F 
ATOM      4  F   UNL     1      -2.120  -2.038  25.480  0.00  0.00    -0.166 F 
ENDBRANCH   5   2
ENDBRANCH  10   9
ENDBRANCH  13  11
ENDBRANCH  14  13
TORSDOF 6
ENDMDL
MODEL 4
REMARK VINA RESULT:     -12.4      1.844      2.801
REMARK  Name = 
REMARK  6 active torsions:
REMARK  status: ('A' for Active; 'I' for Inactive)
REMARK    1  A    between atoms: C_2  and  C_5
REMARK    2  A    between atoms: C_9  and  N_10
REMARK    3  A    between atoms: C_11  and  O_13
REMARK    4  A    between atoms: O_13  and  C_14
REMARK    5  A    between atoms: C_18  and  N_22
REMARK    6  A    between atoms: C_26  and  C_27
REMARK                            x       y       z     vdW  Elec       q    Type
REMARK                         _______ _______ _______ _____ _____    ______ ____
ROOT
ATOM     14  C   UNL     1      -4.305   1.236  24.473  0.00  0.00    +0.229 C 
ATOM     15  C   UNL     1      -4.757   0.874  25.060  0.00  0.00    +0.188 C 
ATOM     16  O   UNL     1      -4.606   0.063  25.033  0.00  0.00    -0.348 OA
ATOM     17  C   UNL     1      -4.061  -0.076  24.431  0.00  0.00    +0.171 C 
ATOM     18  C   UNL     1      -3.630  -0.661  24.041  0.00  0.00    +0.167 C 
ATOM     19  C   UNL     1      -3.178  -0.299  23.454  0.00  0.00    +0.169 C 
ATOM     20  O   UNL     1      -3.329   0.511  23.480  0.00  0.00    -0.348 OA
ATOM     21  C   UNL     1      -3.875   0.650  24.084  0.00  0.00    +0.187 C 
ENDROOT
BRANCH  18  22
ATOM     22  N   UNL     1      -3.649  -1.469  24.209  0.00  0.00    -0.210 N 
ATOM     23  N   UNL     1      -4.272  -1.985  24.045  0.00  0.00    -0.043 NA
ATOM     24  N   UNL     1      -4.055  -2.737  24.306  0.00  0.00    -0.023 NA
ATOM     25  N   UNL     1      -3.300  -2.686  24.631  0.00  0.00    -0.108 NA
ATOM     26  C   UNL     1      -3.048  -1.903  24.572  0.00  0.00    +0.184 A 
BRANCH  26  27
ATOM     27  C   UNL     1      -2.323  -1.605  24.830  0.00  0.00    +0.037 A 
ATOM     28  C   UNL     1      -2.246  -1.315  25.599  0.00  0.00    +0.003 A 
ATOM     29  C   UNL     1      -1.521  -1.017  25.856  0.00  0.00    +0.000 A 
ATOM     30  C   UNL     1      -0.872  -1.010  25.345  0.00  0.00    +0.000 A 
ATOM     31  C   UNL     1      -0.950  -1.301  24.577  0.00  0.00    +0.000 A 
ATOM     32  C   UNL     1      -1.675  -1.598  24.320  0.00  0.00    +0.003 A 
ENDBRANCH  26  27
ENDBRANCH  18  22
BRANCH  14  13
ATOM     13  O   UNL     1      -4.286   2.044  24.304  0.00  0.00    -0.432 OA
BRANCH  13  11
ATOM     10  N   UNL     1      -3.524   3.236  24.502  0.00  0.00    -0.142 NA
ATOM     11  C   UNL     1      -3.885   2.561  24.807  0.00  0.00    +0.425 C 
ATOM     12  O   UNL     1      -3.847   2.402  25.616  0.00  0.00    -0.224 OA
BRANCH  10   9
ATOM      5  C   UNL     1      -1.956   4.514  25.324  0.00  0.00    +0.073 A 
ATOM      6  C   UNL     1      -2.323   4.789  26.010  0.00  0.00    +0.004 A 
ATOM      7  C   UNL     1      -3.091   4.546  26.193  0.00  0.00    +0.001 A 
ATOM      8  C   UNL     1      -3.490   4.029  25.690  0.00  0.00    +0.017 A 
ATOM      9  C   UNL     1      -3.124   3.754  25.004  0.00  0.00    +0.077 A 
ATOM     33  C   UNL     1      -2.357   3.996  24.821  0.00  0.00    +0.021 A 
BRANCH   5   2
ATOM      1  F   UNL     1      -0.423   4.999  24.958  0.00  0.00    -0.166 F 
ATOM      2  C   UNL     1      -1.190   4.756  25.141  0.00  0.00    +0.419 C 
ATOM      3  F   UNL     1      -1.481   5.484  24.887  0.00  0.00    -0.166 F 
ATOM      4  F   UNL     1      -0.898   4.027  25.395  0.00  0.00    -0.166 F 
ENDBRANCH   5   2
ENDBRANCH  10   9
ENDBRANCH  13  11
ENDBRANCH  14  13
TORSDOF 6
ENDMDL
MODEL 5
REMARK VINA RESULT:     -12.3      1.797      2.423
REMARK  Name = 
REMARK  6 active torsions:
REMARK  status: ('A' for Active; 'I' for Inactive)
REMARK    1  A    between atoms: C_2  and  C_5
REMARK    2  A    between atoms: C_9  and  N_10
REMARK    3  A    between atoms: C_11  and  O_13
REMARK    4  A    between atoms: O_13  and  C_14
REMARK    5  A    between atoms: C_18  and  N_22
REMARK    6  A    between atoms: C_26  and  C_27
REMARK                            x       y       z     vdW  Elec       q    Type
REMARK                         _______ _______ _______ _____ _____    ______ ____
ROOT
ATOM     14  C   UNL     1      -1.627   1.796  24.870  0.00  0.00    +0.229 C 
ATOM     15  C   UNL     1      -1.253   1.677  25.595  0.00  0.00    +0.188 C 
ATOM     16  O   UNL     1      -1.028   0.884  25.637  0.00  0.00    -0.348 OA
ATOM     17  C   UNL     1      -1.263   0.514  24.939  0.00  0.00    +0.171 C 
ATOM     18  C   UNL     1      -1.269  -0.203  24.533  0.00  0.00    +0.167 C 
ATOM     19  C   UNL     1      -1.643  -0.084  23.808  0.00  0.00    +0.169 C 
ATOM     20  O   UNL     1      -1.868   0.708  23.765  0.00  0.00    -0.348 OA
ATOM     21  C   UNL     1      -1.633   1.078  24.465  0.00  0.00    +0.187 C 
ENDROOT
BRANCH  18  22
ATOM     22  N   UNL     1      -0.956  -0.917  24.805  0.00  0.00    -0.210 N 
ATOM     23  N   UNL     1      -0.155  -1.084  24.917  0.00  0.00    -0.043 NA
ATOM     24  N   UNL     1      -0.093  -1.858  25.194  0.00  0.00    -0.023 NA
ATOM     25  N   UNL     1      -0.854  -2.170  25.253  0.00  0.00    -0.108 NA
ATOM     26  C   UNL     1      -1.387  -1.588  25.012  0.00  0.00    +0.184 A 
BRANCH  26  27
ATOM     27  C   UNL     1      -2.208  -1.665  24.984  0.00  0.00    +0.037 A 
ATOM     28  C   UNL     1      -2.665  -1.457  25.640  0.00  0.00    +0.003 A 
ATOM     29  C   UNL     1      -3.485  -1.534  25.612  0.00  0.00    +0.000 A 
ATOM     30  C   UNL     1      -3.850  -1.818  24.928  0.00  0.00    +0.000 A 
ATOM     31  C   UNL     1      -3.393  -2.026  24.273  0.00  0.00    +0.000 A 
ATOM     32  C   UNL     1      -2.573  -1.949  24.302  0.00  0.00    +0.003 A 
ENDBRANCH  26  27
ENDBRANCH  18  22
BRANCH  14  13
ATOM     13  O   UNL     1      -1.941   2.510  24.598  0.00  0.00    -0.432 OA
BRANCH  13  11
ATOM     10  N   UNL     1      -3.342   2.773  24.509  0.00  0.00    -0.142 NA
ATOM     11  C   UNL     1      -2.634   2.809  24.930  0.00  0.00    +0.425 C 
ATOM     12  O   UNL     1      -2.619   3.145  25.684  0.00  0.00    -0.224 OA
BRANCH  10   9
ATOM      5  C   UNL     1      -5.320   2.857  25.429  0.00  0.00    +0.073 A 
ATOM      6  C   UNL     1      -5.423   3.672  25.504  0.00  0.00    +0.004 A 
ATOM      7  C   UNL     1      -4.832   4.188  25.247  0.00  0.00    +0.001 A 
ATOM      8  C   UNL     1      -4.138   3.888  24.915  0.00  0.00    +0.017 A 
ATOM      9  C   UNL     1      -4.036   3.073  24.841  0.00  0.00    +0.077 A 
ATOM     33  C   UNL     1      -4.626   2.558  25.097  0.00  0.00    +0.021 A 
BRANCH   5   2
ATOM      1  F   UNL     1      -6.502   1.827  25.944  0.00  0.00    -0.166 F 
ATOM      2  C   UNL     1      -5.911   2.343  25.686  0.00  0.00    +0.419 C 
ATOM      3  F   UNL     1      -5.698   2.490  26.469  0.00  0.00    -0.166 F 
ATOM      4  F   UNL     1      -6.124   2.194  24.903  0.00  0.00    -0.166 F 
ENDBRANCH   5   2
ENDBRANCH  10   9
ENDBRANCH  13  11
ENDBRANCH  14  13
TORSDOF 6
ENDMDL
