MODEL 1
REMARK VINA RESULT:     -11.3      0.000      0.000
REMARK  Name = 
REMARK  6 active torsions:
REMARK  status: ('A' for Active; 'I' for Inactive)
REMARK    1  A    between atoms: C_2  and  C_22
REMARK    2  A    between atoms: C_9  and  N_10
REMARK    3  A    between atoms: C_11  and  C_13
REMARK    4  A    between atoms: C_13  and  O_14
REMARK    5  A    between atoms: C_22  and  C_24
REMARK    6  A    between atoms: N_26  and  C_27
REMARK                            x       y       z     vdW  Elec       q    Type
REMARK                         _______ _______ _______ _____ _____    ______ ____
ROOT
ATOM      1  C   UNL     1      -4.078   2.594  24.357  0.00  0.00    +0.052 C 
ATOM      2  C   UNL     1      -4.666   2.623  24.934  0.00  0.00    -0.001 C 
ATOM      3  C   UNL     1      -4.978   1.922  25.239  0.00  0.00    -0.000 C 
ATOM      4  C   UNL     1      -4.702   1.194  24.968  0.00  0.00    -0.001 C 
ATOM      5  C   UNL     1      -5.291   1.223  25.545  0.00  0.00    -0.000 C 
ATOM      6  C   UNL     1      -5.014   0.494  25.273  0.00  0.00    +0.002 C 
ATOM      7  C   UNL     1      -4.738  -0.234  25.002  0.00  0.00    +0.022 C 
ATOM      8  C   UNL     1      -4.149  -0.262  24.424  0.00  0.00    +0.095 C 
ATOM     15  C   UNL     1      -3.837   0.437  24.118  0.00  0.00    +0.019 C 
ATOM     16  C   UNL     1      -3.249   0.409  23.542  0.00  0.00    +0.002 C 
ATOM     17  C   UNL     1      -4.113   1.166  24.390  0.00  0.00    +0.045 C 
ATOM     18  C   UNL     1      -3.801   1.865  24.084  0.00  0.00    +0.145 C 
ATOM     19  O   UNL     1      -3.213   1.837  23.508  0.00  0.00    -0.224 OA
ENDROOT
BRANCH   8   9
ATOM      9  N   UNL     1      -3.872  -0.990  24.152  0.00  0.00    -0.205 NA
ATOM     10  C   UNL     1      -3.647  -1.573  24.691  0.00  0.00    +0.272 C 
ATOM     11  O   UNL     1      -3.699  -1.428  25.502  0.00  0.00    -0.271 OA
BRANCH  10  12
ATOM     12  C   UNL     1      -3.370  -2.302  24.420  0.00  0.00    +0.229 C 
BRANCH  12  13
ATOM     13  O   UNL     1      -2.725  -2.661  24.788  0.00  0.00    -0.342 OA
ATOM     14  C   UNL     1      -2.169  -3.071  24.338  0.00  0.00    +0.175 C 
ENDBRANCH  12  13
ENDBRANCH  10  12
ENDBRANCH   8   9
BRANCH   1  20
ATOM     20  C   UNL     1      -3.765   3.294  24.051  0.00  0.00    +0.077 C 
ATOM     21  C   UNL     1      -4.005   3.563  23.310  0.00  0.00    +0.009 C 
BRANCH  20  22
ATOM     22  C   UNL     1      -3.212   3.724  24.487  0.00  0.00    +0.241 C 
ATOM     23  O   UNL     1      -3.437   4.090  25.192  0.00  0.00    -0.273 OA
ATOM     24  N   UNL     1      -2.435   3.787  24.219  0.00  0.00    -0.207 NA
BRANCH  24  25
ATOM     25  C   UNL     1      -1.882   4.217  24.656  0.00  0.00    +0.095 C 
ATOM     26  C   UNL     1      -1.269   3.899  25.107  0.00  0.00    +0.022 C 
ATOM     27  C   UNL     1      -0.853   4.525  25.448  0.00  0.00    +0.002 C 
ATOM     28  C   UNL     1      -1.209   5.230  25.207  0.00  0.00    +0.002 C 
ATOM     29  C   UNL     1      -1.845   5.039  24.717  0.00  0.00    +0.022 C 
ENDBRANCH  24  25
ENDBRANCH  20  22
ENDBRANCH   1  20
TORSDOF 6
ENDMDL
MODEL 2
REMARK VINA RESULT:     -11.0      2.449      5.927
REMARK  Name = 
REMARK  6 active torsions:
REMARK  status: ('A' for Active; 'I' for Inactive)
REMARK    1  A    between atoms: C_2  and  C_22
REMARK    2  A    between atoms: C_9  and  N_10
REMARK    3  A    between atoms: C_11  and  C_13
REMARK    4  A    between atoms: C_13  and  O_14
REMARK    5  A    between atoms: C_22  and  C_24
REMARK    6  A    between atoms: N_26  and  C_27
REMARK                            x       y       z     vdW  Elec       q    Type
REMARK                         _______ _______ _______ _____ _____    ______ ____
ROOT
ATOM      1  C   UNL     1      -0.762  -0.730  24.761  0.00  0.00    +0.052 C 
ATOM      2  C   UNL     1      -0.304  -0.793  24.078  0.00  0.00    -0.001 C 
ATOM      3  C   UNL     1       0.053  -0.121  23.757  0.00  0.00    -0.000 C 
ATOM      4  C   UNL     1      -0.048   0.612  24.120  0.00  0.00    -0.001 C 
ATOM      5  C   UNL     1       0.411   0.549  23.436  0.00  0.00    -0.000 C 
ATOM      6  C   UNL     1       0.309   1.284  23.799  0.00  0.00    +0.002 C 
ATOM      7  C   UNL     1       0.208   2.018  24.161  0.00  0.00    +0.022 C 
ATOM      8  C   UNL     1      -0.250   2.081  24.844  0.00  0.00    +0.095 C 
ATOM     15  C   UNL     1      -0.608   1.410  25.165  0.00  0.00    +0.019 C 
ATOM     16  C   UNL     1      -1.065   1.473  25.848  0.00  0.00    +0.002 C 
ATOM     17  C   UNL     1      -0.506   0.676  24.803  0.00  0.00    +0.045 C 
ATOM     18  C   UNL     1      -0.864   0.005  25.124  0.00  0.00    +0.145 C 
ATOM     19  O   UNL     1      -1.321   0.068  25.806  0.00  0.00    -0.224 OA
ENDROOT
BRANCH   8   9
ATOM      9  N   UNL     1      -0.352   2.815  25.207  0.00  0.00    -0.205 NA
ATOM     10  C   UNL     1      -0.619   3.459  24.766  0.00  0.00    +0.272 C 
ATOM     11  O   UNL     1      -0.784   3.369  23.963  0.00  0.00    -0.271 OA
BRANCH  10  12
ATOM     12  C   UNL     1      -0.721   4.194  25.129  0.00  0.00    +0.229 C 
BRANCH  12  13
ATOM     13  O   UNL     1      -1.132   4.792  24.738  0.00  0.00    -0.342 OA
ATOM     14  C   UNL     1      -1.458   5.416  25.169  0.00  0.00    +0.175 C 
ENDBRANCH  12  13
ENDBRANCH  10  12
ENDBRANCH   8   9
BRANCH   1  20
ATOM     20  C   UNL     1      -1.120  -1.400  25.082  0.00  0.00    +0.077 C 
ATOM     21  C   UNL     1      -0.839  -1.719  25.788  0.00  0.00    +0.009 C 
BRANCH  20  22
ATOM     22  C   UNL     1      -1.759  -1.752  24.695  0.00  0.00    +0.241 C 
ATOM     23  O   UNL     1      -1.633  -2.207  24.019  0.00  0.00    -0.273 OA
ATOM     24  N   UNL     1      -2.524  -1.646  24.985  0.00  0.00    -0.207 NA
BRANCH  24  25
ATOM     25  C   UNL     1      -3.163  -1.998  24.598  0.00  0.00    +0.095 C 
ATOM     26  C   UNL     1      -3.368  -2.796  24.628  0.00  0.00    +0.022 C 
ATOM     27  C   UNL     1      -4.040  -2.904  24.163  0.00  0.00    +0.002 C 
ATOM     28  C   UNL     1      -4.252  -2.172  23.846  0.00  0.00    +0.002 C 
ATOM     29  C   UNL     1      -3.709  -1.611  24.115  0.00  0.00    +0.022 C 
ENDBRANCH  24  25
ENDBRANCH  20  22
ENDBRANCH   1  20
TORSDOF 6
ENDMDL
MODEL 3
REMARK VINA RESULT:     -10.9      2.653      4.011
REMARK  Name = 
REMARK  6 active torsions:
REMARK  status: ('A' for Active; 'I' for Inactive)
REMARK    1  A    between atoms: C_2  and  C_22
REMARK    2  A    between atoms: C_9  and  N_10
REMARK    3  A    between atoms: C_11  and  C_13
REMARK    4  A    between atoms: C_13  and  O_14
REMARK    5  A    between atoms: C_22  and  C_24
REMARK    6  A    between atoms: N_26  and  C_27
REMARK                            x       y       z     vdW  Elec       q    Type
REMARK                         _______ _______ _______ _____ _____    ______ ____
ROOT
ATOM      1  C   UNL     1      -3.381  -0.059  24.773  0.00  0.00    +0.052 C 
ATOM      2  C   UNL     1      -3.212  -0.535  25.426  0.00  0.00    -0.001 C 
ATOM      3  C   UNL     1      -2.428  -0.703  25.620  0.00  0.00    -0.000 C 
ATOM      4  C   UNL     1      -1.814  -0.397  25.163  0.00  0.00    -0.001 C 
ATOM      5  C   UNL     1      -1.644  -0.873  25.815  0.00  0.00    -0.000 C 
ATOM      6  C   UNL     1      -1.030  -0.566  25.357  0.00  0.00    +0.002 C 
ATOM      7  C   UNL     1      -0.416  -0.260  24.900  0.00  0.00    +0.022 C 
ATOM      8  C   UNL     1      -0.585   0.216  24.248  0.00  0.00    +0.095 C 
ATOM     15  C   UNL     1      -1.368   0.386  24.053  0.00  0.00    +0.019 C 
ATOM     16  C   UNL     1      -1.538   0.861  23.401  0.00  0.00    +0.002 C 
ATOM     17  C   UNL     1      -1.983   0.079  24.511  0.00  0.00    +0.045 C 
ATOM     18  C   UNL     1      -2.766   0.248  24.315  0.00  0.00    +0.145 C 
ATOM     19  O   UNL     1      -2.936   0.723  23.664  0.00  0.00    -0.224 OA
ENDROOT
BRANCH   8   9
ATOM      9  N   UNL     1       0.029   0.523  23.790  0.00  0.00    -0.205 NA
ATOM     10  C   UNL     1       0.603   0.018  23.479  0.00  0.00    +0.272 C 
ATOM     11  O   UNL     1       0.562  -0.793  23.625  0.00  0.00    -0.271 OA
BRANCH  10  12
ATOM     12  C   UNL     1       1.217   0.325  23.020  0.00  0.00    +0.229 C 
BRANCH  12  13
ATOM     13  O   UNL     1       1.807  -0.176  22.734  0.00  0.00    -0.342 OA
ATOM     14  C   UNL     1       2.481   0.142  22.381  0.00  0.00    +0.175 C 
ENDBRANCH  12  13
ENDBRANCH  10  12
ENDBRANCH   8   9
BRANCH   1  20
ATOM     20  C   UNL     1      -4.164   0.111  24.578  0.00  0.00    +0.077 C 
ATOM     21  C   UNL     1      -4.530  -0.289  23.957  0.00  0.00    +0.009 C 
BRANCH  20  22
ATOM     22  C   UNL     1      -4.581   0.681  25.005  0.00  0.00    +0.241 C 
ATOM     23  O   UNL     1      -4.801   0.533  25.787  0.00  0.00    -0.273 OA
ATOM     24  N   UNL     1      -4.779   1.399  24.650  0.00  0.00    -0.207 NA
BRANCH  24  25
ATOM     25  C   UNL     1      -5.196   1.969  25.077  0.00  0.00    +0.095 C 
ATOM     26  C   UNL     1      -4.885   2.671  25.380  0.00  0.00    +0.022 C 
ATOM     27  C   UNL     1      -5.493   3.072  25.766  0.00  0.00    +0.002 C 
ATOM     28  C   UNL     1      -6.180   2.619  25.702  0.00  0.00    +0.002 C 
ATOM     29  C   UNL     1      -5.996   1.937  25.276  0.00  0.00    +0.022 C 
ENDBRANCH  24  25
ENDBRANCH  20  22
ENDBRANCH   1  20
TORSDOF 6
ENDMDL
MODEL 4
REMARK VINA RESULT:     -10.8      0.945      4.954
REMARK  Name = 
REMARK  6 active torsions:
REMARK  status: ('A' for Active; 'I' for Inactive)
REMARK    1  A    between atoms: C_2  and  C_22
REMARK    2  A    between atoms: C_9  and  N_10
REMARK    3  A    between atoms: C_11  and  C_13
REMARK    4  A    between atoms: C_13  and  O_14
REMARK    5  A    between atoms: C_22  and  C_24
REMARK    6  A    between atoms: N_26  and  C_27
REMARK                            x       y       z     vdW  Elec       q    Type
REMARK                         _______ _______ _______ _____ _____    ______ ____
ROOT
ATOM      1  C   UNL     1      -4.052   0.666  24.144  0.00  0.00    +0.052 C 
ATOM      2  C   UNL     1      -4.711   0.721  24.637  0.00  0.00    -0.001 C 
ATOM      3  C   UNL     1      -4.870   1.426  25.036  0.00  0.00    -0.000 C 
ATOM      4  C   UNL     1      -4.371   2.075  24.942  0.00  0.00    -0.001 C 
ATOM      5  C   UNL     1      -5.030   2.129  25.435  0.00  0.00    -0.000 C 
ATOM      6  C   UNL     1      -4.530   2.779  25.341  0.00  0.00    +0.002 C 
ATOM      7  C   UNL     1      -4.030   3.429  25.247  0.00  0.00    +0.022 C 
ATOM      8  C   UNL     1      -3.371   3.374  24.754  0.00  0.00    +0.095 C 
ATOM     15  C   UNL     1      -3.211   2.670  24.355  0.00  0.00    +0.019 C 
ATOM     16  C   UNL     1      -2.553   2.615  23.862  0.00  0.00    +0.002 C 
ATOM     17  C   UNL     1      -3.712   2.020  24.449  0.00  0.00    +0.045 C 
ATOM     18  C   UNL     1      -3.552   1.316  24.050  0.00  0.00    +0.145 C 
ATOM     19  O   UNL     1      -2.894   1.261  23.557  0.00  0.00    -0.224 OA
ENDROOT
BRANCH   8   9
ATOM      9  N   UNL     1      -2.871   4.023  24.660  0.00  0.00    -0.205 NA
ATOM     10  C   UNL     1      -2.505   4.361  25.318  0.00  0.00    +0.272 C 
ATOM     11  O   UNL     1      -2.640   4.049  26.070  0.00  0.00    -0.271 OA
BRANCH  10  12
ATOM     12  C   UNL     1      -2.004   5.010  25.224  0.00  0.00    +0.229 C 
BRANCH  12  13
ATOM     13  O   UNL     1      -1.190   4.919  25.315  0.00  0.00    -0.342 OA
ATOM     14  C   UNL     1      -0.672   5.423  24.918  0.00  0.00    +0.175 C 
ENDBRANCH  12  13
ENDBRANCH  10  12
ENDBRANCH   8   9
BRANCH   1  20
ATOM     20  C   UNL     1      -3.892  -0.038  23.745  0.00  0.00    +0.077 C 
ATOM     21  C   UNL     1      -3.703  -0.024  22.943  0.00  0.00    +0.009 C 
BRANCH  20  22
ATOM     22  C   UNL     1      -3.922  -0.757  24.149  0.00  0.00    +0.241 C 
ATOM     23  O   UNL     1      -4.651  -1.087  24.352  0.00  0.00    -0.273 OA
ATOM     24  N   UNL     1      -3.223  -1.145  24.351  0.00  0.00    -0.207 NA
BRANCH  24  25
ATOM     25  C   UNL     1      -3.252  -1.864  24.756  0.00  0.00    +0.095 C 
ATOM     26  C   UNL     1      -3.383  -2.605  24.418  0.00  0.00    +0.022 C 
ATOM     27  C   UNL     1      -3.368  -3.166  25.021  0.00  0.00    +0.002 C 
ATOM     28  C   UNL     1      -3.228  -2.773  25.733  0.00  0.00    +0.002 C 
ATOM     29  C   UNL     1      -3.156  -1.968  25.569  0.00  0.00    +0.022 C 
ENDBRANCH  24  25
ENDBRANCH  20  22
ENDBRANCH   1  20
TORSDOF 6
ENDMDL
MODEL 5
REMARK VINA RESULT:     -10.7      2.519      4.077
REMARK  Name = 
REMARK  6 active torsions:
REMARK  status: ('A' for Active; 'I' for Inactive)
REMARK    1  A    between atoms: C_2  and  C_22
REMARK    2  A    between atoms: C_9  and  N_10
REMARK    3  A    between atoms: C_11  and  C_13
REMARK    4  A    between atoms: C_13  and  O_14
REMARK    5  A    between atoms: C_22  and  C_24
REMARK    6  A    between atoms: N_26  and  C_27
REMARK                            x       y       z     vdW  Elec       q    Type
REMARK                         _______ _______ _______ _____ _____    ______ ____
ROOT
ATOM      1  C   UNL     1      -2.533   3.208  24.897  0.00  0.00    +0.052 C 
ATOM      2  C   UNL     1      -2.136   3.518  25.550  0.00  0.00    -0.001 C 
ATOM      3  C   UNL     1      -1.380   3.247  25.739  0.00  0.00    -0.000 C 
ATOM      4  C   UNL     1      -1.021   2.667  25.275  0.00  0.00    -0.001 C 
ATOM      5  C   UNL     1      -0.624   2.977  25.928  0.00  0.00    -0.000 C 
ATOM      6  C   UNL     1      -0.265   2.396  25.464  0.00  0.00    +0.002 C 
ATOM      7  C   UNL     1       0.094   1.816  25.000  0.00  0.00    +0.022 C 
ATOM      8  C   UNL     1      -0.304   1.506  24.347  0.00  0.00    +0.095 C 
ATOM     15  C   UNL     1      -1.060   1.776  24.158  0.00  0.00    +0.019 C 
ATOM     16  C   UNL     1      -1.457   1.467  23.505  0.00  0.00    +0.002 C 
ATOM     17  C   UNL     1      -1.419   2.357  24.622  0.00  0.00    +0.045 C 
ATOM     18  C   UNL     1      -2.175   2.627  24.432  0.00  0.00    +0.145 C 
ATOM     19  O   UNL     1      -2.572   2.318  23.780  0.00  0.00    -0.224 OA
ENDROOT
BRANCH   8   9
ATOM      9  N   UNL     1       0.054   0.926  23.883  0.00  0.00    -0.205 NA
ATOM     10  C   UNL     1       0.855   0.987  23.691  0.00  0.00    +0.272 C 
ATOM     11  O   UNL     1       1.296   1.629  23.964  0.00  0.00    -0.271 OA
BRANCH  10  12
ATOM     12  C   UNL     1       1.214   0.407  23.227  0.00  0.00    +0.229 C 
BRANCH  12  13
ATOM     13  O   UNL     1       1.956   0.545  22.895  0.00  0.00    -0.342 OA
ATOM     14  C   UNL     1       2.304  -0.026  22.413  0.00  0.00    +0.175 C 
ENDBRANCH  12  13
ENDBRANCH  10  12
ENDBRANCH   8   9
BRANCH   1  20
ATOM     20  C   UNL     1      -3.289   3.478  24.707  0.00  0.00    +0.077 C 
ATOM     21  C   UNL     1      -3.394   4.007  24.084  0.00  0.00    +0.009 C 
BRANCH  20  22
ATOM     22  C   UNL     1      -3.941   3.217  25.142  0.00  0.00    +0.241 C 
ATOM     23  O   UNL     1      -4.002   3.399  25.944  0.00  0.00    -0.273 OA
ATOM     24  N   UNL     1      -4.531   2.775  24.773  0.00  0.00    -0.207 NA
BRANCH  24  25
ATOM     25  C   UNL     1      -5.183   2.514  25.207  0.00  0.00    +0.095 C 
ATOM     26  C   UNL     1      -5.387   1.727  25.349  0.00  0.00    +0.022 C 
ATOM     27  C   UNL     1      -6.075   1.721  25.805  0.00  0.00    +0.002 C 
ATOM     28  C   UNL     1      -6.296   2.504  25.945  0.00  0.00    +0.002 C 
ATOM     29  C   UNL     1      -5.745   2.994  25.575  0.00  0.00    +0.022 C 
ENDBRANCH  24  25
ENDBRANCH  20  22
ENDBRANCH   1  20
TORSDOF 6
ENDMDL
MODEL 6
REMARK VINA RESULT:     -10.1      2.510      3.400
REMARK  Name = 
REMARK  6 active torsions:
REMARK  status: ('A' for Active; 'I' for Inactive)
REMARK    1  A    between atoms: C_2  and  C_22
REMARK    2  A    between atoms: C_9  and  N_10
REMARK    3  A    between atoms: C_11  and  C_13
REMARK    4  A    between atoms: C_13  and  O_14
REMARK    5  A    between atoms: C_22  and  C_24
REMARK    6  A    between atoms: N_26  and  C_27
REMARK                            x       y       z     vdW  Elec       q    Type
REMARK                         _______ _______ _______ _____ _____    ______ ____
ROOT
ATOM      1  C   UNL     1      -0.145   1.798  25.097  0.00  0.00    +0.052 C 
ATOM      2  C   UNL     1       0.282   1.763  24.392  0.00  0.00    -0.001 C 
ATOM      3  C   UNL     1       0.283   1.069  23.945  0.00  0.00    -0.000 C 
ATOM      4  C   UNL     1      -0.141   0.411  24.203  0.00  0.00    -0.001 C 
ATOM      5  C   UNL     1       0.286   0.376  23.498  0.00  0.00    -0.000 C 
ATOM      6  C   UNL     1      -0.139  -0.283  23.757  0.00  0.00    +0.002 C 
ATOM      7  C   UNL     1      -0.564  -0.941  24.014  0.00  0.00    +0.022 C 
ATOM      8  C   UNL     1      -0.991  -0.906  24.720  0.00  0.00    +0.095 C 
ATOM     15  C   UNL     1      -0.993  -0.212  25.167  0.00  0.00    +0.019 C 
ATOM     16  C   UNL     1      -1.419  -0.177  25.871  0.00  0.00    +0.002 C 
ATOM     17  C   UNL     1      -0.568   0.446  24.908  0.00  0.00    +0.045 C 
ATOM     18  C   UNL     1      -0.570   1.139  25.356  0.00  0.00    +0.145 C 
ATOM     19  O   UNL     1      -0.996   1.174  26.060  0.00  0.00    -0.224 OA
ENDROOT
BRANCH   8   9
ATOM      9  N   UNL     1      -1.415  -1.563  24.978  0.00  0.00    -0.205 NA
ATOM     10  C   UNL     1      -1.989  -1.902  24.490  0.00  0.00    +0.272 C 
ATOM     11  O   UNL     1      -2.137  -1.582  23.744  0.00  0.00    -0.271 OA
BRANCH  10  12
ATOM     12  C   UNL     1      -2.415  -2.560  24.749  0.00  0.00    +0.229 C 
BRANCH  12  13
ATOM     13  O   UNL     1      -3.107  -2.782  24.359  0.00  0.00    -0.342 OA
ATOM     14  C   UNL     1      -3.699  -3.185  24.769  0.00  0.00    +0.175 C 
ENDBRANCH  12  13
ENDBRANCH  10  12
ENDBRANCH   8   9
BRANCH   1  20
ATOM     20  C   UNL     1      -0.147   2.491  25.544  0.00  0.00    +0.077 C 
ATOM     21  C   UNL     1       0.252   2.519  26.265  0.00  0.00    +0.009 C 
BRANCH  20  22
ATOM     22  C   UNL     1      -0.550   3.158  25.270  0.00  0.00    +0.241 C 
ATOM     23  O   UNL     1      -0.374   3.469  24.526  0.00  0.00    -0.273 OA
ATOM     24  N   UNL     1      -1.128   3.512  25.739  0.00  0.00    -0.207 NA
BRANCH  24  25
ATOM     25  C   UNL     1      -1.531   4.178  25.464  0.00  0.00    +0.095 C 
ATOM     26  C   UNL     1      -1.187   4.894  25.242  0.00  0.00    +0.022 C 
ATOM     27  C   UNL     1      -1.791   5.403  25.004  0.00  0.00    +0.002 C 
ATOM     28  C   UNL     1      -2.508   5.002  25.080  0.00  0.00    +0.002 C 
ATOM     29  C   UNL     1      -2.348   4.245  25.365  0.00  0.00    +0.022 C 
ENDBRANCH  24  25
ENDBRANCH  20  22
ENDBRANCH   1  20
TORSDOF 6
ENDMDL
MODEL 7
REMARK VINA RESULT:      -9.4      2.562      4.391
REMARK  Name = 
REMARK  6 active torsions:
REMARK  status: ('A' for Active; 'I' for Inactive)
REMARK    1  A    between atoms: C_2  and  C_22
REMARK    2  A    between atoms: C_9  and  N_10
REMARK    3  A    between atoms: C_11  and  C_13
REMARK    4  A    between atoms: C_13  and  O_14
REMARK    5  A    between atoms: C_22  and  C_24
REMARK    6  A    between atoms: N_26  and  C_27
REMARK                            x       y       z     vdW  Elec       q    Type
REMARK                         _______ _______ _______ _____ _____    ______ ____
ROOT
ATOM      1  C   UNL     1      -1.863  -0.478  24.918  0.00  0.00    +0.052 C 
ATOM      2  C   UNL     1      -2.287  -1.176  24.798  0.00  0.00    -0.001 C 
ATOM      3  C   UNL     1      -3.100  -1.146  24.661  0.00  0.00    -0.000 C 
ATOM      4  C   UNL     1      -3.490  -0.420  24.646  0.00  0.00    -0.001 C 
ATOM      5  C   UNL     1      -3.913  -1.117  24.525  0.00  0.00    -0.000 C 
ATOM      6  C   UNL     1      -4.303  -0.390  24.509  0.00  0.00    +0.002 C 
ATOM      7  C   UNL     1      -4.693   0.336  24.493  0.00  0.00    +0.022 C 
ATOM      8  C   UNL     1      -4.269   1.034  24.614  0.00  0.00    +0.095 C 
ATOM     15  C   UNL     1      -3.456   1.006  24.750  0.00  0.00    +0.019 C 
ATOM     16  C   UNL     1      -3.034   1.703  24.870  0.00  0.00    +0.002 C 
ATOM     17  C   UNL     1      -3.066   0.278  24.766  0.00  0.00    +0.045 C 
ATOM     18  C   UNL     1      -2.253   0.250  24.902  0.00  0.00    +0.145 C 
ATOM     19  O   UNL     1      -1.831   0.947  25.023  0.00  0.00    -0.224 OA
ENDROOT
BRANCH   8   9
ATOM      9  N   UNL     1      -4.659   1.761  24.598  0.00  0.00    -0.205 NA
ATOM     10  C   UNL     1      -5.294   1.900  25.107  0.00  0.00    +0.272 C 
ATOM     11  O   UNL     1      -5.539   1.311  25.631  0.00  0.00    -0.271 OA
BRANCH  10  12
ATOM     12  C   UNL     1      -5.684   2.628  25.092  0.00  0.00    +0.229 C 
BRANCH  12  13
ATOM     13  O   UNL     1      -5.709   3.095  25.771  0.00  0.00    -0.342 OA
ATOM     14  C   UNL     1      -5.815   3.911  25.704  0.00  0.00    +0.175 C 
ENDBRANCH  12  13
ENDBRANCH  10  12
ENDBRANCH   8   9
BRANCH   1  20
ATOM     20  C   UNL     1      -1.050  -0.506  25.055  0.00  0.00    +0.077 C 
ATOM     21  C   UNL     1      -0.757  -0.424  25.820  0.00  0.00    +0.009 C 
BRANCH  20  22
ATOM     22  C   UNL     1      -0.530  -0.617  24.423  0.00  0.00    +0.241 C 
ATOM     23  O   UNL     1      -0.460  -1.360  24.072  0.00  0.00    -0.273 OA
ATOM     24  N   UNL     1      -0.081   0.016  24.144  0.00  0.00    -0.207 NA
BRANCH  24  25
ATOM     25  C   UNL     1       0.439  -0.095  23.512  0.00  0.00    +0.095 C 
ATOM     26  C   UNL     1       1.258  -0.173  23.568  0.00  0.00    +0.022 C 
ATOM     27  C   UNL     1       1.556  -0.274  22.805  0.00  0.00    +0.002 C 
ATOM     28  C   UNL     1       0.922  -0.257  22.278  0.00  0.00    +0.002 C 
ATOM     29  C   UNL     1       0.231  -0.147  22.715  0.00  0.00    +0.022 C 
ENDBRANCH  24  25
ENDBRANCH  20  22
ENDBRANCH   1  20
TORSDOF 6
ENDMDL
MODEL 8
REMARK VINA RESULT:      -9.4      1.929      5.133
REMARK  Name = 
REMARK  6 active torsions:
REMARK  status: ('A' for Active; 'I' for Inactive)
REMARK    1  A    between atoms: C_2  and  C_22
REMARK    2  A    between atoms: C_9  and  N_10
REMARK    3  A    between atoms: C_11  and  C_13
REMARK    4  A    between atoms: C_13  and  O_14
REMARK    5  A    between atoms: C_22  and  C_24
REMARK    6  A    between atoms: N_26  and  C_27
REMARK                            x       y       z     vdW  Elec       q    Type
REMARK                         _______ _______ _______ _____ _____    ______ ____
ROOT
ATOM      1  C   UNL     1      -0.868   1.136  24.697  0.00  0.00    +0.052 C 
ATOM      2  C   UNL     1      -0.387   1.418  25.305  0.00  0.00    -0.001 C 
ATOM      3  C   UNL     1      -0.594   2.107  25.708  0.00  0.00    -0.000 C 
ATOM      4  C   UNL     1      -1.281   2.515  25.504  0.00  0.00    -0.001 C 
ATOM      5  C   UNL     1      -0.800   2.797  26.112  0.00  0.00    -0.000 C 
ATOM      6  C   UNL     1      -1.487   3.205  25.907  0.00  0.00    +0.002 C 
ATOM      7  C   UNL     1      -2.174   3.613  25.702  0.00  0.00    +0.022 C 
ATOM      8  C   UNL     1      -2.655   3.331  25.094  0.00  0.00    +0.095 C 
ATOM     15  C   UNL     1      -2.450   2.642  24.691  0.00  0.00    +0.019 C 
ATOM     16  C   UNL     1      -2.930   2.360  24.083  0.00  0.00    +0.002 C 
ATOM     17  C   UNL     1      -1.762   2.233  24.896  0.00  0.00    +0.045 C 
ATOM     18  C   UNL     1      -1.556   1.544  24.492  0.00  0.00    +0.145 C 
ATOM     19  O   UNL     1      -2.037   1.263  23.885  0.00  0.00    -0.224 OA
ENDROOT
BRANCH   8   9
ATOM      9  N   UNL     1      -3.342   3.738  24.889  0.00  0.00    -0.205 NA
ATOM     10  C   UNL     1      -3.948   3.831  25.443  0.00  0.00    +0.272 C 
ATOM     11  O   UNL     1      -3.865   3.516  26.201  0.00  0.00    -0.271 OA
BRANCH  10  12
ATOM     12  C   UNL     1      -4.636   4.238  25.238  0.00  0.00    +0.229 C 
BRANCH  12  13
ATOM     13  O   UNL     1      -5.345   4.069  25.624  0.00  0.00    -0.342 OA
ATOM     14  C   UNL     1      -6.027   4.494  25.437  0.00  0.00    +0.175 C 
ENDBRANCH  12  13
ENDBRANCH  10  12
ENDBRANCH   8   9
BRANCH   1  20
ATOM     20  C   UNL     1      -0.663   0.447  24.294  0.00  0.00    +0.077 C 
ATOM     21  C   UNL     1      -0.219   0.491  23.601  0.00  0.00    +0.009 C 
BRANCH  20  22
ATOM     22  C   UNL     1      -0.902  -0.288  24.584  0.00  0.00    +0.241 C 
ATOM     23  O   UNL     1      -0.581  -0.579  25.286  0.00  0.00    -0.273 OA
ATOM     24  N   UNL     1      -1.463  -0.731  24.172  0.00  0.00    -0.207 NA
BRANCH  24  25
ATOM     25  C   UNL     1      -1.703  -1.466  24.463  0.00  0.00    +0.095 C 
ATOM     26  C   UNL     1      -1.288  -2.175  24.388  0.00  0.00    +0.022 C 
ATOM     27  C   UNL     1      -1.728  -2.767  24.758  0.00  0.00    +0.002 C 
ATOM     28  C   UNL     1      -2.414  -2.424  25.062  0.00  0.00    +0.002 C 
ATOM     29  C   UNL     1      -2.399  -1.619  24.879  0.00  0.00    +0.022 C 
ENDBRANCH  24  25
ENDBRANCH  20  22
ENDBRANCH   1  20
TORSDOF 6
ENDMDL
