REMARK  Name = 
REMARK  7 active torsions:
REMARK  status: ('A' for Active; 'I' for Inactive)
REMARK    1  A    between atoms: C_5  and  C_8
REMARK    2  A    between atoms: C_10  and  C_11
REMARK    3  A    between atoms: C_11  and  C_12
REMARK    4  A    between atoms: C_17  and  C_18
REMARK    5  A    between atoms: C_18  and  C_19
REMARK    6  A    between atoms: N_21  and  C_22
REMARK    7  A    between atoms: C_22  and  C_23
REMARK                            x       y       z     vdW  Elec       q    Type
REMARK                         _______ _______ _______ _____ _____    ______ ____
ROOT
ATOM     12  C   UNL     1       6.612  -5.625   0.000  0.00  0.00    +0.024 C 
ATOM     13  C   UNL     1       6.948  -4.871   0.000  0.00  0.00    +0.089 C 
ATOM     14  N   UNL     1       7.769  -4.785   0.000  0.00  0.00    -0.218 NA
ATOM     15  C   UNL     1       8.254  -5.452   0.000  0.00  0.00    +0.089 C 
ATOM     16  C   UNL     1       7.918  -6.206   0.000  0.00  0.00    +0.019 C 
ATOM     17  C   UNL     1       7.097  -6.292   0.000  0.00  0.00    +0.012 C 
ENDROOT
BRANCH  12  11
ATOM     11  C   UNL     1       5.792  -5.711   0.000  0.00  0.00    +0.051 C 
BRANCH  11  10
ATOM      8  C   UNL     1       4.895  -3.774   0.000  0.00  0.00    +0.177 A 
ATOM      9  C   UNL     1       5.562  -4.259   0.000  0.00  0.00    +0.058 A 
ATOM     10  C   UNL     1       5.307  -5.044   0.000  0.00  0.00    +0.101 A 
ATOM     29  N   UNL     1       4.482  -5.044   0.000  0.00  0.00    -0.081 NA
ATOM     30  O   UNL     1       4.227  -4.259   0.000  0.00  0.00    -0.354 OA
BRANCH   8   5
ATOM      1  F   UNL     1       4.895  -0.474   0.000  0.00  0.00    -0.204 F 
ATOM      2  C   UNL     1       4.895  -1.299   0.000  0.00  0.00    +0.140 A 
ATOM      3  C   UNL     1       5.609  -1.712   0.000  0.00  0.00    +0.030 A 
ATOM      4  C   UNL     1       5.609  -2.537   0.000  0.00  0.00    +0.005 A 
ATOM      5  C   UNL     1       4.895  -2.949   0.000  0.00  0.00    +0.037 A 
ATOM      6  C   UNL     1       4.180  -2.537   0.000  0.00  0.00    +0.005 A 
ATOM      7  C   UNL     1       4.180  -1.712   0.000  0.00  0.00    +0.030 A 
ENDBRANCH   8   5
ENDBRANCH  11  10
ENDBRANCH  12  11
BRANCH  17  18
ATOM     18  C   UNL     1       6.762  -7.046   0.000  0.00  0.00    +0.087 C 
BRANCH  18  19
ATOM     19  C   UNL     1       7.247  -7.713   0.000  0.00  0.00    +0.242 C 
ATOM     20  O   UNL     1       8.067  -7.627   0.000  0.00  0.00    -0.273 OA
ATOM     21  N   UNL     1       6.911  -8.467   0.000  0.00  0.00    -0.201 NA
BRANCH  21  22
ATOM     22  C   UNL     1       7.396  -9.134   0.000  0.00  0.00    +0.141 C 
BRANCH  22  23
ATOM     23  C   UNL     1       7.061  -9.888   0.000  0.00  0.00    -0.001 A 
ATOM     24  C   UNL     1       7.545 -10.556   0.000  0.00  0.00    -0.003 A 
ATOM     25  C   UNL     1       7.210 -11.309   0.000  0.00  0.00    -0.000 A 
ATOM     26  C   UNL     1       6.389 -11.396   0.000  0.00  0.00    -0.000 A 
ATOM     27  C   UNL     1       5.905 -10.728   0.000  0.00  0.00    -0.000 A 
ATOM     28  C   UNL     1       6.240  -9.974   0.000  0.00  0.00    -0.003 A 
ENDBRANCH  22  23
ENDBRANCH  21  22
ENDBRANCH  18  19
ENDBRANCH  17  18
TORSDOF 7
