REMARK  Name = 
REMARK  11 active torsions:
REMARK  status: ('A' for Active; 'I' for Inactive)
REMARK    1  A    between atoms: O_2  and  C_3
REMARK    2  A    between atoms: C_3  and  C_4
REMARK    3  A    between atoms: C_4  and  N_5
REMARK    4  A    between atoms: C_6  and  C_8
REMARK    5  A    between atoms: C_8  and  C_9
REMARK    6  A    between atoms: C_11  and  C_12
REMARK    7  A    between atoms: C_15  and  C_16
REMARK    8  A    between atoms: C_16  and  N_17
REMARK    9  A    between atoms: N_17  and  S_18
REMARK   10  A    between atoms: S_18  and  C_21
REMARK   11  A    between atoms: C_25  and  C_27
REMARK                            x       y       z     vdW  Elec       q    Type
REMARK                         _______ _______ _______ _____ _____    ______ ____
ROOT
ATOM      9  C   UNL     1       5.001  -8.662   0.000  0.00  0.00    +0.027 C 
ATOM     10  C   UNL     1       5.716  -8.250   0.000  0.00  0.00    +0.005 C 
ATOM     11  C   UNL     1       6.430  -8.662   0.000  0.00  0.00    +0.006 C 
ATOM     15  C   UNL     1       6.430  -9.488   0.000  0.00  0.00    +0.041 C 
ATOM     29  C   UNL     1       5.716  -9.900   0.000  0.00  0.00    -0.033 C 
ATOM     30  C   UNL     1       5.001  -9.488   0.000  0.00  0.00    -0.048 C 
ATOM     31  C   UNL     1       4.287  -9.900   0.000  0.00  0.00    +0.026 C 
ENDROOT
BRANCH  11  12
ATOM     12  C   UNL     1       7.145  -8.250   0.000  0.00  0.00    +0.000 C 
ATOM     13  C   UNL     1       7.859  -8.662   0.000  0.00  0.00    +0.000 C 
ATOM     14  C   UNL     1       7.145  -7.425   0.000  0.00  0.00    +0.000 C 
ENDBRANCH  11  12
BRANCH   9   8
ATOM      8  C   UNL     1       4.287  -8.250   0.000  0.00  0.00    +0.091 C 
BRANCH   8   6
ATOM      5  N   UNL     1       2.858  -8.250   0.000  0.00  0.00    -0.203 NA
ATOM      6  C   UNL     1       3.572  -8.662   0.000  0.00  0.00    +0.242 C 
ATOM      7  O   UNL     1       3.572  -9.488   0.000  0.00  0.00    -0.273 OA
BRANCH   5   4
ATOM      4  C   UNL     1       2.143  -8.662   0.000  0.00  0.00    +0.147 C 
BRANCH   4   3
ATOM      3  C   UNL     1       1.429  -8.250   0.000  0.00  0.00    +0.166 C 
BRANCH   3   2
ATOM      1  C   UNL     1       0.000  -8.250   0.000  0.00  0.00    +0.174 C 
ATOM      2  O   UNL     1       0.715  -8.662   0.000  0.00  0.00    -0.349 OA
ENDBRANCH   3   2
ENDBRANCH   4   3
ENDBRANCH   5   4
ENDBRANCH   8   6
ENDBRANCH   9   8
BRANCH  15  16
ATOM     16  C   UNL     1       7.145  -9.900   0.000  0.00  0.00    +0.120 C 
BRANCH  16  17
ATOM     17  N   UNL     1       7.145 -10.725   0.000  0.00  0.00    -0.077 NA
BRANCH  17  18
ATOM     18  S   UNL     1       7.859 -11.137   0.000  0.00  0.00    +0.077 S 
ATOM     19  O   UNL     1       7.447 -11.852   0.000  0.00  0.00    -0.152 OA
ATOM     20  O   UNL     1       8.272 -10.423   0.000  0.00  0.00    -0.152 OA
BRANCH  18  21
ATOM     21  C   UNL     1       8.574 -11.550   0.000  0.00  0.00    +0.124 A 
ATOM     22  C   UNL     1       9.288 -11.137   0.000  0.00  0.00    +0.020 A 
ATOM     23  C   UNL     1      10.003 -11.550   0.000  0.00  0.00    +0.002 A 
ATOM     24  C   UNL     1      10.003 -12.375   0.000  0.00  0.00    +0.010 A 
ATOM     25  C   UNL     1       9.288 -12.787   0.000  0.00  0.00    +0.070 A 
ATOM     26  C   UNL     1       8.574 -12.375   0.000  0.00  0.00    +0.030 A 
BRANCH  25  27
ATOM     27  C   UNL     1       9.288 -13.613   0.000  0.00  0.00    +0.100 C 
ATOM     28  N   UNL     1       9.288 -14.438   0.000  0.00  0.00    -0.191 NA
ENDBRANCH  25  27
ENDBRANCH  18  21
ENDBRANCH  17  18
ENDBRANCH  16  17
ENDBRANCH  15  16
TORSDOF 11
