MODEL 1
REMARK VINA RESULT:     -10.8      0.000      0.000
REMARK  Name = 
REMARK  6 active torsions:
REMARK  status: ('A' for Active; 'I' for Inactive)
REMARK    1  A    between atoms: C_2  and  N_3
REMARK    2  A    between atoms: C_2  and  C_28
REMARK    3  A    between atoms: C_4  and  C_6
REMARK    4  A    between atoms: C_8  and  N_19
REMARK    5  A    between atoms: C_12  and  C_14
REMARK    6  A    between atoms: C_20  and  C_22
REMARK                            x       y       z     vdW  Elec       q    Type
REMARK                         _______ _______ _______ _____ _____    ______ ____
ROOT
ATOM      6  C   UNL     1      -3.798   2.260  24.361  0.00  0.00    +0.155 C 
ATOM      7  C   UNL     1      -4.000   1.462  24.405  0.00  0.00    +0.051 C 
ATOM      8  C   UNL     1      -3.470   0.919  24.732  0.00  0.00    +0.100 C 
ATOM      9  C   UNL     1      -2.739   1.176  25.014  0.00  0.00    +0.043 C 
ATOM     10  C   UNL     1      -2.537   1.974  24.970  0.00  0.00    +0.096 C 
ATOM     11  N   UNL     1      -3.067   2.517  24.643  0.00  0.00    -0.267 N 
ATOM     12  C   UNL     1      -2.865   3.315  24.599  0.00  0.00    +0.284 C 
ATOM     13  O   UNL     1      -3.394   3.857  24.272  0.00  0.00    -0.267 OA
ENDROOT
BRANCH  12  14
ATOM     14  C   UNL     1      -2.134   3.572  24.881  0.00  0.00    +0.199 A 
ATOM     15  C   UNL     1      -1.999   3.966  25.594  0.00  0.00    +0.045 A 
ATOM     16  C   UNL     1      -1.191   4.117  25.653  0.00  0.00    +0.044 A 
ATOM     17  C   UNL     1      -0.825   3.818  24.978  0.00  0.00    +0.180 A 
ATOM     18  O   UNL     1      -1.407   3.481  24.501  0.00  0.00    -0.446 OA
ENDBRANCH  12  14
BRANCH   6   4
ATOM      3  N   UNL     1      -5.057   2.936  24.396  0.00  0.00    -0.196 NA
ATOM      4  C   UNL     1      -4.328   2.802  24.034  0.00  0.00    +0.260 C 
ATOM      5  O   UNL     1      -4.129   3.210  23.346  0.00  0.00    -0.272 OA
BRANCH   3   2
ATOM      1  C   UNL     1      -5.172   1.708  25.119  0.00  0.00    +0.033 C 
ATOM      2  C   UNL     1      -5.256   2.528  25.086  0.00  0.00    +0.174 C 
BRANCH   2  28
ATOM     28  C   UNL     1      -5.540   2.941  25.742  0.00  0.00    +0.281 C 
ATOM     29  N   UNL     1      -5.699   2.540  26.444  0.00  0.00    -0.086 NA
ATOM     30  O   UNL     1      -5.663   3.755  25.695  0.00  0.00    -0.270 OA
ENDBRANCH   2  28
ENDBRANCH   3   2
ENDBRANCH   6   4
BRANCH   8  19
ATOM     19  N   UNL     1      -3.673   0.121  24.776  0.00  0.00    -0.202 NA
ATOM     20  C   UNL     1      -3.247  -0.439  24.343  0.00  0.00    +0.284 C 
ATOM     21  O   UNL     1      -2.618  -0.199  23.866  0.00  0.00    -0.267 OA
BRANCH  20  22
ATOM     22  C   UNL     1      -3.450  -1.236  24.388  0.00  0.00    +0.155 A 
ATOM     23  C   UNL     1      -4.003  -1.551  23.863  0.00  0.00    +0.123 A 
ATOM     24  N   UNL     1      -4.206  -2.350  23.907  0.00  0.00    -0.239 NA
ATOM     25  C   UNL     1      -3.856  -2.833  24.476  0.00  0.00    +0.120 A 
ATOM     26  C   UNL     1      -3.302  -2.518  25.002  0.00  0.00    +0.120 A 
ATOM     27  N   UNL     1      -3.100  -1.720  24.957  0.00  0.00    -0.236 NA
ENDBRANCH  20  22
ENDBRANCH   8  19
TORSDOF 6
ENDMDL
MODEL 2
REMARK VINA RESULT:      -9.9      1.274      2.605
REMARK  Name = 
REMARK  6 active torsions:
REMARK  status: ('A' for Active; 'I' for Inactive)
REMARK    1  A    between atoms: C_2  and  N_3
REMARK    2  A    between atoms: C_2  and  C_28
REMARK    3  A    between atoms: C_4  and  C_6
REMARK    4  A    between atoms: C_8  and  N_19
REMARK    5  A    between atoms: C_12  and  C_14
REMARK    6  A    between atoms: C_20  and  C_22
REMARK                            x       y       z     vdW  Elec       q    Type
REMARK                         _______ _______ _______ _____ _____    ______ ____
ROOT
ATOM      6  C   UNL     1      -3.196   1.720  23.879  0.00  0.00    +0.155 C 
ATOM      7  C   UNL     1      -3.057   0.908  23.921  0.00  0.00    +0.051 C 
ATOM      8  C   UNL     1      -3.441   0.453  24.494  0.00  0.00    +0.100 C 
ATOM      9  C   UNL     1      -3.963   0.810  25.022  0.00  0.00    +0.043 C 
ATOM     10  C   UNL     1      -4.102   1.621  24.980  0.00  0.00    +0.096 C 
ATOM     11  N   UNL     1      -3.718   2.077  24.408  0.00  0.00    -0.267 N 
ATOM     12  C   UNL     1      -3.858   2.889  24.366  0.00  0.00    +0.284 C 
ATOM     13  O   UNL     1      -3.475   3.344  23.794  0.00  0.00    -0.267 OA
ENDROOT
BRANCH  12  14
ATOM     14  C   UNL     1      -4.380   3.246  24.895  0.00  0.00    +0.199 A 
ATOM     15  C   UNL     1      -4.171   3.696  25.555  0.00  0.00    +0.045 A 
ATOM     16  C   UNL     1      -4.865   3.944  25.925  0.00  0.00    +0.044 A 
ATOM     17  C   UNL     1      -5.503   3.648  25.495  0.00  0.00    +0.180 A 
ATOM     18  O   UNL     1      -5.204   3.217  24.858  0.00  0.00    -0.446 OA
ENDBRANCH  12  14
BRANCH   6   4
ATOM      3  N   UNL     1      -1.991   2.247  23.320  0.00  0.00    -0.196 NA
ATOM      4  C   UNL     1      -2.813   2.175  23.307  0.00  0.00    +0.260 C 
ATOM      5  O   UNL     1      -3.251   2.557  22.722  0.00  0.00    -0.272 OA
BRANCH   3   2
ATOM      1  C   UNL     1      -1.660   1.058  24.040  0.00  0.00    +0.033 C 
ATOM      2  C   UNL     1      -1.553   1.865  23.906  0.00  0.00    +0.174 C 
BRANCH   2  28
ATOM     28  C   UNL     1      -1.007   2.290  24.356  0.00  0.00    +0.281 C 
ATOM     29  N   UNL     1      -0.629   2.947  24.034  0.00  0.00    -0.086 NA
ATOM     30  O   UNL     1      -0.840   2.055  25.129  0.00  0.00    -0.270 OA
ENDBRANCH   2  28
ENDBRANCH   3   2
ENDBRANCH   6   4
BRANCH   8  19
ATOM     19  N   UNL     1      -3.301  -0.359  24.536  0.00  0.00    -0.202 NA
ATOM     20  C   UNL     1      -3.922  -0.892  24.427  0.00  0.00    +0.284 C 
ATOM     21  O   UNL     1      -4.684  -0.612  24.276  0.00  0.00    -0.267 OA
BRANCH  20  22
ATOM     22  C   UNL     1      -3.782  -1.703  24.469  0.00  0.00    +0.155 A 
ATOM     23  C   UNL     1      -4.041  -2.198  23.863  0.00  0.00    +0.123 A 
ATOM     24  N   UNL     1      -3.901  -3.011  23.904  0.00  0.00    -0.239 NA
ATOM     25  C   UNL     1      -3.502  -3.327  24.553  0.00  0.00    +0.120 A 
ATOM     26  C   UNL     1      -3.242  -2.832  25.160  0.00  0.00    +0.120 A 
ATOM     27  N   UNL     1      -3.383  -2.020  25.118  0.00  0.00    -0.236 NA
ENDBRANCH  20  22
ENDBRANCH   8  19
TORSDOF 6
ENDMDL
MODEL 3
REMARK VINA RESULT:      -9.6      1.844      3.385
REMARK  Name = 
REMARK  6 active torsions:
REMARK  status: ('A' for Active; 'I' for Inactive)
REMARK    1  A    between atoms: C_2  and  N_3
REMARK    2  A    between atoms: C_2  and  C_28
REMARK    3  A    between atoms: C_4  and  C_6
REMARK    4  A    between atoms: C_8  and  N_19
REMARK    5  A    between atoms: C_12  and  C_14
REMARK    6  A    between atoms: C_20  and  C_22
REMARK                            x       y       z     vdW  Elec       q    Type
REMARK                         _______ _______ _______ _____ _____    ______ ____
ROOT
ATOM      6  C   UNL     1      -3.209   2.964  24.653  0.00  0.00    +0.155 C 
ATOM      7  C   UNL     1      -2.501   2.553  24.562  0.00  0.00    +0.051 C 
ATOM      8  C   UNL     1      -2.456   1.756  24.771  0.00  0.00    +0.100 C 
ATOM      9  C   UNL     1      -3.120   1.371  25.072  0.00  0.00    +0.043 C 
ATOM     10  C   UNL     1      -3.829   1.782  25.164  0.00  0.00    +0.096 C 
ATOM     11  N   UNL     1      -3.873   2.580  24.954  0.00  0.00    -0.267 N 
ATOM     12  C   UNL     1      -4.583   2.991  25.046  0.00  0.00    +0.284 C 
ATOM     13  O   UNL     1      -4.628   3.787  24.837  0.00  0.00    -0.267 OA
ENDROOT
BRANCH  12  14
ATOM     14  C   UNL     1      -5.247   2.606  25.347  0.00  0.00    +0.199 A 
ATOM     15  C   UNL     1      -5.788   2.158  24.912  0.00  0.00    +0.045 A 
ATOM     16  C   UNL     1      -6.362   1.877  25.432  0.00  0.00    +0.044 A 
ATOM     17  C   UNL     1      -6.178   2.149  26.188  0.00  0.00    +0.180 A 
ATOM     18  O   UNL     1      -5.489   2.600  26.136  0.00  0.00    -0.446 OA
ENDBRANCH  12  14
BRANCH   6   4
ATOM      3  N   UNL     1      -2.775   4.315  24.824  0.00  0.00    -0.196 NA
ATOM      4  C   UNL     1      -3.254   3.761  24.444  0.00  0.00    +0.260 C 
ATOM      5  O   UNL     1      -3.777   4.005  23.855  0.00  0.00    -0.272 OA
BRANCH   3   2
ATOM      1  C   UNL     1      -2.518   3.595  26.032  0.00  0.00    +0.033 C 
ATOM      2  C   UNL     1      -2.251   4.072  25.414  0.00  0.00    +0.174 C 
BRANCH   2  28
ATOM     28  C   UNL     1      -1.460   4.306  25.385  0.00  0.00    +0.281 C 
ATOM     29  N   UNL     1      -1.249   4.997  24.988  0.00  0.00    -0.086 NA
ATOM     30  O   UNL     1      -0.881   3.848  25.753  0.00  0.00    -0.270 OA
ENDBRANCH   2  28
ENDBRANCH   3   2
ENDBRANCH   6   4
BRANCH   8  19
ATOM     19  N   UNL     1      -1.746   1.344  24.679  0.00  0.00    -0.202 NA
ATOM     20  C   UNL     1      -1.671   0.776  24.086  0.00  0.00    +0.284 C 
ATOM     21  O   UNL     1      -2.308   0.617  23.584  0.00  0.00    -0.267 OA
BRANCH  20  22
ATOM     22  C   UNL     1      -0.962   0.365  23.995  0.00  0.00    +0.155 A 
ATOM     23  C   UNL     1      -0.876  -0.387  24.321  0.00  0.00    +0.123 A 
ATOM     24  N   UNL     1      -0.166  -0.798  24.230  0.00  0.00    -0.239 NA
ATOM     25  C   UNL     1       0.457  -0.456  23.811  0.00  0.00    +0.120 A 
ATOM     26  C   UNL     1       0.371   0.297  23.484  0.00  0.00    +0.120 A 
ATOM     27  N   UNL     1      -0.339   0.707  23.576  0.00  0.00    -0.236 NA
ENDBRANCH  20  22
ENDBRANCH   8  19
TORSDOF 6
ENDMDL
MODEL 4
REMARK VINA RESULT:      -9.4      1.865      4.444
REMARK  Name = 
REMARK  6 active torsions:
REMARK  status: ('A' for Active; 'I' for Inactive)
REMARK    1  A    between atoms: C_2  and  N_3
REMARK    2  A    between atoms: C_2  and  C_28
REMARK    3  A    between atoms: C_4  and  C_6
REMARK    4  A    between atoms: C_8  and  N_19
REMARK    5  A    between atoms: C_12  and  C_14
REMARK    6  A    between atoms: C_20  and  C_22
REMARK                            x       y       z     vdW  Elec       q    Type
REMARK                         _______ _______ _______ _____ _____    ______ ____
ROOT
ATOM      6  C   UNL     1      -2.274  -0.102  25.191  0.00  0.00    +0.155 C 
ATOM      7  C   UNL     1      -2.932   0.390  25.251  0.00  0.00    +0.051 C 
ATOM      8  C   UNL     1      -2.976   1.078  24.797  0.00  0.00    +0.100 C 
ATOM      9  C   UNL     1      -2.362   1.273  24.283  0.00  0.00    +0.043 C 
ATOM     10  C   UNL     1      -1.703   0.781  24.223  0.00  0.00    +0.096 C 
ATOM     11  N   UNL     1      -1.659   0.092  24.677  0.00  0.00    -0.267 N 
ATOM     12  C   UNL     1      -1.000  -0.400  24.616  0.00  0.00    +0.284 C 
ATOM     13  O   UNL     1      -0.956  -1.088  25.070  0.00  0.00    -0.267 OA
ENDROOT
BRANCH  12  14
ATOM     14  C   UNL     1      -0.385  -0.206  24.102  0.00  0.00    +0.199 A 
ATOM     15  C   UNL     1      -0.160  -0.632  23.432  0.00  0.00    +0.045 A 
ATOM     16  C   UNL     1       0.477  -0.240  23.083  0.00  0.00    +0.044 A 
ATOM     17  C   UNL     1       0.646   0.427  23.537  0.00  0.00    +0.180 A 
ATOM     18  O   UNL     1       0.113   0.449  24.167  0.00  0.00    -0.446 OA
ENDBRANCH  12  14
BRANCH   6   4
ATOM      3  N   UNL     1      -2.790  -1.387  25.545  0.00  0.00    -0.196 NA
ATOM      4  C   UNL     1      -2.230  -0.790  25.645  0.00  0.00    +0.260 C 
ATOM      5  O   UNL     1      -1.625  -0.881  26.199  0.00  0.00    -0.272 OA
BRANCH   3   2
ATOM      1  C   UNL     1      -3.845  -0.605  24.981  0.00  0.00    +0.033 C 
ATOM      2  C   UNL     1      -3.395  -1.296  24.991  0.00  0.00    +0.174 C 
BRANCH   2  28
ATOM     28  C   UNL     1      -3.550  -1.897  24.447  0.00  0.00    +0.281 C 
ATOM     29  N   UNL     1      -3.368  -2.679  24.633  0.00  0.00    -0.086 NA
ATOM     30  O   UNL     1      -3.886  -1.714  23.716  0.00  0.00    -0.270 OA
ENDBRANCH   2  28
ENDBRANCH   3   2
ENDBRANCH   6   4
BRANCH   8  19
ATOM     19  N   UNL     1      -3.635   1.571  24.858  0.00  0.00    -0.202 NA
ATOM     20  C   UNL     1      -3.561   2.324  25.188  0.00  0.00    +0.284 C 
ATOM     21  O   UNL     1      -2.825   2.585  25.457  0.00  0.00    -0.267 OA
BRANCH  20  22
ATOM     22  C   UNL     1      -4.220   2.815  25.248  0.00  0.00    +0.155 A 
ATOM     23  C   UNL     1      -4.202   3.572  24.921  0.00  0.00    +0.123 A 
ATOM     24  N   UNL     1      -4.861   4.064  24.981  0.00  0.00    -0.239 NA
ATOM     25  C   UNL     1      -5.539   3.799  25.370  0.00  0.00    +0.120 A 
ATOM     26  C   UNL     1      -5.557   3.041  25.698  0.00  0.00    +0.120 A 
ATOM     27  N   UNL     1      -4.897   2.550  25.637  0.00  0.00    -0.236 NA
ENDBRANCH  20  22
ENDBRANCH   8  19
TORSDOF 6
ENDMDL
MODEL 5
REMARK VINA RESULT:      -9.4      1.795      4.644
REMARK  Name = 
REMARK  6 active torsions:
REMARK  status: ('A' for Active; 'I' for Inactive)
REMARK    1  A    between atoms: C_2  and  N_3
REMARK    2  A    between atoms: C_2  and  C_28
REMARK    3  A    between atoms: C_4  and  C_6
REMARK    4  A    between atoms: C_8  and  N_19
REMARK    5  A    between atoms: C_12  and  C_14
REMARK    6  A    between atoms: C_20  and  C_22
REMARK                            x       y       z     vdW  Elec       q    Type
REMARK                         _______ _______ _______ _____ _____    ______ ____
ROOT
ATOM      6  C   UNL     1      -1.403   0.830  24.453  0.00  0.00    +0.155 C 
ATOM      7  C   UNL     1      -1.934   1.421  24.675  0.00  0.00    +0.051 C 
ATOM      8  C   UNL     1      -2.652   1.218  25.030  0.00  0.00    +0.100 C 
ATOM      9  C   UNL     1      -2.837   0.426  25.162  0.00  0.00    +0.043 C 
ATOM     10  C   UNL     1      -2.306  -0.165  24.941  0.00  0.00    +0.096 C 
ATOM     11  N   UNL     1      -1.588   0.038  24.586  0.00  0.00    -0.267 N 
ATOM     12  C   UNL     1      -1.056  -0.553  24.364  0.00  0.00    +0.284 C 
ATOM     13  O   UNL     1      -0.339  -0.351  24.010  0.00  0.00    -0.267 OA
ENDROOT
BRANCH  12  14
ATOM     14  C   UNL     1      -1.241  -1.345  24.497  0.00  0.00    +0.199 A 
ATOM     15  C   UNL     1      -0.913  -1.830  25.079  0.00  0.00    +0.045 A 
ATOM     16  C   UNL     1      -1.256  -2.577  25.012  0.00  0.00    +0.044 A 
ATOM     17  C   UNL     1      -1.796  -2.555  24.390  0.00  0.00    +0.180 A 
ATOM     18  O   UNL     1      -1.787  -1.794  24.071  0.00  0.00    -0.446 OA
ENDBRANCH  12  14
BRANCH   6   4
ATOM      3  N   UNL     1      -0.137   1.490  24.510  0.00  0.00    -0.196 NA
ATOM      4  C   UNL     1      -0.686   1.033  24.099  0.00  0.00    +0.260 C 
ATOM      5  O   UNL     1      -0.517   0.778  23.333  0.00  0.00    -0.272 OA
BRANCH   3   2
ATOM      1  C   UNL     1      -0.603   1.214  25.833  0.00  0.00    +0.033 C 
ATOM      2  C   UNL     1      -0.305   1.746  25.277  0.00  0.00    +0.174 C 
BRANCH   2  28
ATOM     28  C   UNL     1      -0.174   2.534  25.488  0.00  0.00    +0.281 C 
ATOM     29  N   UNL     1      -0.074   2.737  26.280  0.00  0.00    -0.086 NA
ATOM     30  O   UNL     1      -0.144   3.116  24.904  0.00  0.00    -0.270 OA
ENDBRANCH   2  28
ENDBRANCH   3   2
ENDBRANCH   6   4
BRANCH   8  19
ATOM     19  N   UNL     1      -3.183   1.809  25.251  0.00  0.00    -0.202 NA
ATOM     20  C   UNL     1      -3.854   1.955  24.793  0.00  0.00    +0.284 C 
ATOM     21  O   UNL     1      -3.994   1.509  24.112  0.00  0.00    -0.267 OA
BRANCH  20  22
ATOM     22  C   UNL     1      -4.385   2.546  25.015  0.00  0.00    +0.155 A 
ATOM     23  C   UNL     1      -4.190   3.339  24.902  0.00  0.00    +0.123 A 
ATOM     24  N   UNL     1      -4.721   3.931  25.124  0.00  0.00    -0.239 NA
ATOM     25  C   UNL     1      -5.447   3.728  25.459  0.00  0.00    +0.120 A 
ATOM     26  C   UNL     1      -5.643   2.934  25.571  0.00  0.00    +0.120 A 
ATOM     27  N   UNL     1      -5.111   2.343  25.349  0.00  0.00    -0.236 NA
ENDBRANCH  20  22
ENDBRANCH   8  19
TORSDOF 6
ENDMDL
MODEL 6
REMARK VINA RESULT:      -9.3      1.798      3.304
REMARK  Name = 
REMARK  6 active torsions:
REMARK  status: ('A' for Active; 'I' for Inactive)
REMARK    1  A    between atoms: C_2  and  N_3
REMARK    2  A    between atoms: C_2  and  C_28
REMARK    3  A    between atoms: C_4  and  C_6
REMARK    4  A    between atoms: C_8  and  N_19
REMARK    5  A    between atoms: C_12  and  C_14
REMARK    6  A    between atoms: C_20  and  C_22
REMARK                            x       y       z     vdW  Elec       q    Type
REMARK                         _______ _______ _______ _____ _____    ______ ____
ROOT
ATOM      6  C   UNL     1      -1.400   1.306  25.136  0.00  0.00    +0.155 C 
ATOM      7  C   UNL     1      -1.704   0.586  24.874  0.00  0.00    +0.051 C 
ATOM      8  C   UNL     1      -2.490   0.537  24.625  0.00  0.00    +0.100 C 
ATOM      9  C   UNL     1      -2.970   1.207  24.638  0.00  0.00    +0.043 C 
ATOM     10  C   UNL     1      -2.665   1.927  24.900  0.00  0.00    +0.096 C 
ATOM     11  N   UNL     1      -1.879   1.976  25.150  0.00  0.00    -0.267 N 
ATOM     12  C   UNL     1      -1.575   2.697  25.412  0.00  0.00    +0.284 C 
ATOM     13  O   UNL     1      -0.790   2.746  25.661  0.00  0.00    -0.267 OA
ENDROOT
BRANCH  12  14
ATOM     14  C   UNL     1      -2.054   3.368  25.426  0.00  0.00    +0.199 A 
ATOM     15  C   UNL     1      -2.436   3.678  26.088  0.00  0.00    +0.045 A 
ATOM     16  C   UNL     1      -2.854   4.349  25.851  0.00  0.00    +0.044 A 
ATOM     17  C   UNL     1      -2.731   4.453  25.042  0.00  0.00    +0.180 A 
ATOM     18  O   UNL     1      -2.237   3.847  24.779  0.00  0.00    -0.446 OA
ENDBRANCH  12  14
BRANCH   6   4
ATOM      3  N   UNL     1      -0.003   1.173  24.862  0.00  0.00    -0.196 NA
ATOM      4  C   UNL     1      -0.615   1.355  25.385  0.00  0.00    +0.260 C 
ATOM      5  O   UNL     1      -0.440   1.587  26.157  0.00  0.00    -0.272 OA
BRANCH   3   2
ATOM      1  C   UNL     1      -0.718   1.375  23.640  0.00  0.00    +0.033 C 
ATOM      2  C   UNL     1      -0.178   0.942  24.089  0.00  0.00    +0.174 C 
BRANCH   2  28
ATOM     28  C   UNL     1       0.189   0.277  23.765  0.00  0.00    +0.281 C 
ATOM     29  N   UNL     1       0.441   0.286  22.980  0.00  0.00    -0.086 NA
ATOM     30  O   UNL     1       0.303  -0.397  24.227  0.00  0.00    -0.270 OA
ENDBRANCH   2  28
ENDBRANCH   3   2
ENDBRANCH   6   4
BRANCH   8  19
ATOM     19  N   UNL     1      -2.795  -0.184  24.362  0.00  0.00    -0.202 NA
ATOM     20  C   UNL     1      -3.220  -0.666  24.880  0.00  0.00    +0.284 C 
ATOM     21  O   UNL     1      -3.340  -0.428  25.661  0.00  0.00    -0.267 OA
BRANCH  20  22
ATOM     22  C   UNL     1      -3.524  -1.386  24.617  0.00  0.00    +0.155 A 
ATOM     23  C   UNL     1      -3.274  -2.091  24.965  0.00  0.00    +0.123 A 
ATOM     24  N   UNL     1      -3.578  -2.812  24.702  0.00  0.00    -0.239 NA
ATOM     25  C   UNL     1      -4.132  -2.827  24.091  0.00  0.00    +0.120 A 
ATOM     26  C   UNL     1      -4.382  -2.122  23.743  0.00  0.00    +0.120 A 
ATOM     27  N   UNL     1      -4.078  -1.402  24.006  0.00  0.00    -0.236 NA
ENDBRANCH  20  22
ENDBRANCH   8  19
TORSDOF 6
ENDMDL
