MODEL 1
REMARK VINA RESULT:     -12.1      0.000      0.000
REMARK  Name = 
REMARK  6 active torsions:
REMARK  status: ('A' for Active; 'I' for Inactive)
REMARK    1  A    between atoms: O_2  and  C_3
REMARK    2  A    between atoms: C_6  and  C_9
REMARK    3  A    between atoms: C_11  and  C_12
REMARK    4  A    between atoms: C_12  and  C_13
REMARK    5  A    between atoms: C_15  and  N_16
REMARK    6  A    between atoms: N_16  and  C_17
REMARK                            x       y       z     vdW  Elec       q    Type
REMARK                         _______ _______ _______ _____ _____    ______ ____
ROOT
ATOM     12  C   UNL     1      -4.525   2.249  24.607  0.00  0.00    +0.049 C 
ENDROOT
BRANCH  12  13
ATOM     13  C   UNL     1      -4.029   2.799  24.967  0.00  0.00    +0.009 C 
ATOM     14  C   UNL     1      -3.216   2.943  24.964  0.00  0.00    +0.018 C 
ATOM     15  C   UNL     1      -3.326   3.578  25.478  0.00  0.00    +0.073 C 
ATOM     23  C   UNL     1      -4.139   3.436  25.482  0.00  0.00    +0.015 C 
ATOM     24  C   UNL     1      -4.435   4.021  25.982  0.00  0.00    +0.001 C 
ATOM     25  C   UNL     1      -4.954   3.445  25.605  0.00  0.00    +0.001 C 
BRANCH  15  16
ATOM     16  N   UNL     1      -2.829   4.129  25.839  0.00  0.00    -0.221 NA
BRANCH  16  17
ATOM     17  C   UNL     1      -2.048   4.210  25.584  0.00  0.00    +0.078 C 
ATOM     18  C   UNL     1      -1.818   4.882  25.163  0.00  0.00    +0.050 C 
ATOM     19  C   UNL     1      -1.038   4.962  24.909  0.00  0.00    +0.144 C 
ATOM     20  O   UNL     1      -0.486   4.371  25.075  0.00  0.00    -0.354 OA
ATOM     21  C   UNL     1      -0.716   3.699  25.495  0.00  0.00    +0.144 C 
ATOM     22  C   UNL     1      -1.497   3.619  25.750  0.00  0.00    +0.050 C 
ENDBRANCH  16  17
ENDBRANCH  15  16
ENDBRANCH  12  13
BRANCH  12  11
ATOM      9  C   UNL     1      -3.904   0.235  24.260  0.00  0.00    +0.177 A 
ATOM     10  C   UNL     1      -4.290   0.801  24.720  0.00  0.00    +0.058 A 
ATOM     11  C   UNL     1      -4.219   1.530  24.340  0.00  0.00    +0.101 A 
ATOM     26  N   UNL     1      -3.789   1.413  23.645  0.00  0.00    -0.081 NA
ATOM     27  O   UNL     1      -3.594   0.614  23.596  0.00  0.00    -0.354 OA
BRANCH   9   6
ATOM      3  C   UNL     1      -3.709  -2.177  24.781  0.00  0.00    +0.139 A 
ATOM      4  C   UNL     1      -4.034  -1.935  24.062  0.00  0.00    +0.037 A 
ATOM      5  C   UNL     1      -4.099  -1.131  23.889  0.00  0.00    +0.006 A 
ATOM      6  C   UNL     1      -3.839  -0.569  24.434  0.00  0.00    +0.037 A 
ATOM      7  C   UNL     1      -3.514  -0.811  25.153  0.00  0.00    +0.006 A 
ATOM      8  C   UNL     1      -3.449  -1.615  25.327  0.00  0.00    +0.037 A 
BRANCH   3   2
ATOM      1  C   UNL     1      -3.087  -3.444  24.558  0.00  0.00    +0.252 C 
ATOM      2  O   UNL     1      -3.644  -2.981  24.954  0.00  0.00    -0.471 OA
ENDBRANCH   3   2
ENDBRANCH   9   6
ENDBRANCH  12  11
TORSDOF 6
ENDMDL
MODEL 2
REMARK VINA RESULT:     -11.0      1.779      5.055
REMARK  Name = 
REMARK  6 active torsions:
REMARK  status: ('A' for Active; 'I' for Inactive)
REMARK    1  A    between atoms: O_2  and  C_3
REMARK    2  A    between atoms: C_6  and  C_9
REMARK    3  A    between atoms: C_11  and  C_12
REMARK    4  A    between atoms: C_12  and  C_13
REMARK    5  A    between atoms: C_15  and  N_16
REMARK    6  A    between atoms: N_16  and  C_17
REMARK                            x       y       z     vdW  Elec       q    Type
REMARK                         _______ _______ _______ _____ _____    ______ ____
ROOT
ATOM     12  C   UNL     1      -4.502  -0.199  24.277  0.00  0.00    +0.049 C 
ENDROOT
BRANCH  12  13
ATOM     13  C   UNL     1      -3.885  -0.739  24.361  0.00  0.00    +0.009 C 
ATOM     14  C   UNL     1      -3.108  -0.700  24.635  0.00  0.00    +0.018 C 
ATOM     15  C   UNL     1      -3.012  -1.503  24.479  0.00  0.00    +0.073 C 
ATOM     23  C   UNL     1      -3.789  -1.544  24.204  0.00  0.00    +0.015 C 
ATOM     24  C   UNL     1      -3.876  -2.335  23.988  0.00  0.00    +0.001 C 
ATOM     25  C   UNL     1      -4.521  -1.770  23.901  0.00  0.00    +0.001 C 
BRANCH  15  16
ATOM     16  N   UNL     1      -2.394  -2.044  24.563  0.00  0.00    -0.221 NA
BRANCH  16  17
ATOM     17  C   UNL     1      -1.627  -1.775  24.709  0.00  0.00    +0.078 C 
ATOM     18  C   UNL     1      -1.127  -1.591  24.079  0.00  0.00    +0.050 C 
ATOM     19  C   UNL     1      -0.362  -1.323  24.225  0.00  0.00    +0.144 C 
ATOM     20  O   UNL     1      -0.095  -1.238  25.002  0.00  0.00    -0.354 OA
ATOM     21  C   UNL     1      -0.594  -1.422  25.632  0.00  0.00    +0.144 C 
ATOM     22  C   UNL     1      -1.361  -1.691  25.485  0.00  0.00    +0.050 C 
ENDBRANCH  16  17
ENDBRANCH  15  16
ENDBRANCH  12  13
BRANCH  12  11
ATOM      9  C   UNL     1      -4.080   1.790  24.928  0.00  0.00    +0.177 A 
ATOM     10  C   UNL     1      -3.942   1.152  24.423  0.00  0.00    +0.058 A 
ATOM     11  C   UNL     1      -4.454   0.542  24.637  0.00  0.00    +0.101 A 
ATOM     26  N   UNL     1      -4.910   0.804  25.273  0.00  0.00    -0.081 NA
ATOM     27  O   UNL     1      -4.680   1.574  25.453  0.00  0.00    -0.354 OA
BRANCH   9   6
ATOM      3  C   UNL     1      -2.909   3.970  24.875  0.00  0.00    +0.139 A 
ATOM      4  C   UNL     1      -3.625   3.877  24.475  0.00  0.00    +0.037 A 
ATOM      5  C   UNL     1      -4.015   3.150  24.493  0.00  0.00    +0.006 A 
ATOM      6  C   UNL     1      -3.689   2.517  24.910  0.00  0.00    +0.037 A 
ATOM      7  C   UNL     1      -2.974   2.610  25.310  0.00  0.00    +0.006 A 
ATOM      8  C   UNL     1      -2.583   3.337  25.292  0.00  0.00    +0.037 A 
BRANCH   3   2
ATOM      1  C   UNL     1      -1.768   4.770  25.193  0.00  0.00    +0.252 C 
ATOM      2  O   UNL     1      -2.518   4.697  24.857  0.00  0.00    -0.471 OA
ENDBRANCH   3   2
ENDBRANCH   9   6
ENDBRANCH  12  11
TORSDOF 6
ENDMDL
MODEL 3
REMARK VINA RESULT:     -10.8      1.737      2.769
REMARK  Name = 
REMARK  6 active torsions:
REMARK  status: ('A' for Active; 'I' for Inactive)
REMARK    1  A    between atoms: O_2  and  C_3
REMARK    2  A    between atoms: C_6  and  C_9
REMARK    3  A    between atoms: C_11  and  C_12
REMARK    4  A    between atoms: C_12  and  C_13
REMARK    5  A    between atoms: C_15  and  N_16
REMARK    6  A    between atoms: N_16  and  C_17
REMARK                            x       y       z     vdW  Elec       q    Type
REMARK                         _______ _______ _______ _____ _____    ______ ____
ROOT
ATOM     12  C   UNL     1      -0.729   1.467  25.104  0.00  0.00    +0.049 C 
ENDROOT
BRANCH  12  13
ATOM     13  C   UNL     1      -1.193   2.148  25.135  0.00  0.00    +0.009 C 
ATOM     14  C   UNL     1      -2.003   2.302  25.165  0.00  0.00    +0.018 C 
ATOM     15  C   UNL     1      -1.848   3.112  25.180  0.00  0.00    +0.073 C 
ATOM     23  C   UNL     1      -1.038   2.959  25.150  0.00  0.00    +0.015 C 
ATOM     24  C   UNL     1      -0.699   3.711  25.158  0.00  0.00    +0.001 C 
ATOM     25  C   UNL     1      -0.215   2.998  25.125  0.00  0.00    +0.001 C 
BRANCH  15  16
ATOM     16  N   UNL     1      -2.312   3.794  25.211  0.00  0.00    -0.221 NA
BRANCH  16  17
ATOM     17  C   UNL     1      -3.135   3.735  25.182  0.00  0.00    +0.078 C 
ATOM     18  C   UNL     1      -3.572   3.705  25.881  0.00  0.00    +0.050 C 
ATOM     19  C   UNL     1      -4.394   3.647  25.851  0.00  0.00    +0.144 C 
ATOM     20  O   UNL     1      -4.780   3.618  25.123  0.00  0.00    -0.354 OA
ATOM     21  C   UNL     1      -4.343   3.647  24.423  0.00  0.00    +0.144 C 
ATOM     22  C   UNL     1      -3.520   3.706  24.453  0.00  0.00    +0.050 C 
ENDBRANCH  16  17
ENDBRANCH  15  16
ENDBRANCH  12  13
BRANCH  12  11
ATOM      9  C   UNL     1      -1.713  -0.407  25.389  0.00  0.00    +0.177 A 
ATOM     10  C   UNL     1      -1.541   0.254  24.926  0.00  0.00    +0.058 A 
ATOM     11  C   UNL     1      -1.039   0.745  25.358  0.00  0.00    +0.101 A 
ATOM     26  N   UNL     1      -0.901   0.387  26.088  0.00  0.00    -0.081 NA
ATOM     27  O   UNL     1      -1.316  -0.324  26.108  0.00  0.00    -0.354 OA
BRANCH   9   6
ATOM      3  C   UNL     1      -3.162  -2.305  24.739  0.00  0.00    +0.139 A 
ATOM      4  C   UNL     1      -3.461  -1.703  25.217  0.00  0.00    +0.037 A 
ATOM      5  C   UNL     1      -2.978  -1.070  25.433  0.00  0.00    +0.006 A 
ATOM      6  C   UNL     1      -2.196  -1.040  25.172  0.00  0.00    +0.037 A 
ATOM      7  C   UNL     1      -1.897  -1.642  24.694  0.00  0.00    +0.006 A 
ATOM      8  C   UNL     1      -2.380  -2.275  24.477  0.00  0.00    +0.037 A 
BRANCH   3   2
ATOM      1  C   UNL     1      -4.178  -2.854  23.897  0.00  0.00    +0.252 C 
ATOM      2  O   UNL     1      -3.646  -2.938  24.522  0.00  0.00    -0.471 OA
ENDBRANCH   3   2
ENDBRANCH   9   6
ENDBRANCH  12  11
TORSDOF 6
ENDMDL
MODEL 4
REMARK VINA RESULT:     -10.6      2.301      4.610
REMARK  Name = 
REMARK  6 active torsions:
REMARK  status: ('A' for Active; 'I' for Inactive)
REMARK    1  A    between atoms: O_2  and  C_3
REMARK    2  A    between atoms: C_6  and  C_9
REMARK    3  A    between atoms: C_11  and  C_12
REMARK    4  A    between atoms: C_12  and  C_13
REMARK    5  A    between atoms: C_15  and  N_16
REMARK    6  A    between atoms: N_16  and  C_17
REMARK                            x       y       z     vdW  Elec       q    Type
REMARK                         _______ _______ _______ _____ _____    ______ ____
ROOT
ATOM     12  C   UNL     1      -3.450  -1.345  25.000  0.00  0.00    +0.049 C 
ENDROOT
BRANCH  12  13
ATOM     13  C   UNL     1      -2.634  -1.293  24.893  0.00  0.00    +0.009 C 
ATOM     14  C   UNL     1      -2.096  -0.674  24.801  0.00  0.00    +0.018 C 
ATOM     15  C   UNL     1      -1.480  -1.219  24.741  0.00  0.00    +0.073 C 
ATOM     23  C   UNL     1      -2.017  -1.838  24.832  0.00  0.00    +0.015 C 
ATOM     24  C   UNL     1      -1.543  -2.512  24.795  0.00  0.00    +0.001 C 
ATOM     25  C   UNL     1      -2.396  -2.566  24.907  0.00  0.00    +0.001 C 
BRANCH  15  16
ATOM     16  N   UNL     1      -0.663  -1.167  24.633  0.00  0.00    -0.221 NA
BRANCH  16  17
ATOM     17  C   UNL     1      -0.329  -0.471  24.339  0.00  0.00    +0.078 C 
ATOM     18  C   UNL     1      -0.343   0.217  24.792  0.00  0.00    +0.050 C 
ATOM     19  C   UNL     1      -0.009   0.911  24.498  0.00  0.00    +0.144 C 
ATOM     20  O   UNL     1       0.339   0.918  23.749  0.00  0.00    -0.354 OA
ATOM     21  C   UNL     1       0.352   0.229  23.296  0.00  0.00    +0.144 C 
ATOM     22  C   UNL     1       0.018  -0.467  23.590  0.00  0.00    +0.050 C 
ENDBRANCH  16  17
ENDBRANCH  15  16
ENDBRANCH  12  13
BRANCH  12  11
ATOM      9  C   UNL     1      -4.595   0.438  24.737  0.00  0.00    +0.177 A 
ATOM     10  C   UNL     1      -4.072  -0.024  25.177  0.00  0.00    +0.058 A 
ATOM     11  C   UNL     1      -3.938  -0.723  24.761  0.00  0.00    +0.101 A 
ATOM     26  N   UNL     1      -4.378  -0.692  24.063  0.00  0.00    -0.081 NA
ATOM     27  O   UNL     1      -4.784   0.025  24.048  0.00  0.00    -0.354 OA
BRANCH   9   6
ATOM      3  C   UNL     1      -5.448   2.674  25.371  0.00  0.00    +0.139 A 
ATOM      4  C   UNL     1      -5.790   1.995  25.693  0.00  0.00    +0.037 A 
ATOM      5  C   UNL     1      -5.505   1.251  25.481  0.00  0.00    +0.006 A 
ATOM      6  C   UNL     1      -4.879   1.184  24.948  0.00  0.00    +0.037 A 
ATOM      7  C   UNL     1      -4.537   1.862  24.627  0.00  0.00    +0.006 A 
ATOM      8  C   UNL     1      -4.822   2.608  24.838  0.00  0.00    +0.037 A 
BRANCH   3   2
ATOM      1  C   UNL     1      -5.231   4.074  25.556  0.00  0.00    +0.252 C 
ATOM      2  O   UNL     1      -5.732   3.419  25.582  0.00  0.00    -0.471 OA
ENDBRANCH   3   2
ENDBRANCH   9   6
ENDBRANCH  12  11
TORSDOF 6
ENDMDL
