MODEL 1
REMARK VINA RESULT:      -9.5      0.000      0.000
REMARK  Name = 
REMARK  3 active torsions:
REMARK  status: ('A' for Active; 'I' for Inactive)
REMARK    1  A    between atoms: O_2  and  C_3
REMARK    2  A    between atoms: C_10  and  C_12
REMARK    3  A    between atoms: C_16  and  O_17
REMARK                            x       y       z     vdW  Elec       q    Type
REMARK                         _______ _______ _______ _____ _____    ______ ____
ROOT
ATOM      3  C   UNL     1      -4.100   2.339  24.502  0.00  0.00    +0.165 C 
ATOM      4  C   UNL     1      -3.628   2.558  23.862  0.00  0.00    +0.173 C 
ATOM      5  O   UNL     1      -3.194   2.074  23.354  0.00  0.00    -0.349 OA
ATOM      6  C   UNL     1      -3.124   1.252  23.359  0.00  0.00    +0.164 C 
ATOM      7  C   UNL     1      -3.472   0.711  23.875  0.00  0.00    +0.126 C 
ATOM      8  N   UNL     1      -3.975   0.857  24.512  0.00  0.00    -0.271 N 
ATOM      9  C   UNL     1      -4.255   1.582  24.792  0.00  0.00    +0.126 C 
ATOM     10  C   UNL     1      -4.233   0.191  24.925  0.00  0.00    +0.249 C 
ATOM     11  O   UNL     1      -4.738   0.277  25.572  0.00  0.00    -0.270 OA
ENDROOT
BRANCH  10  12
ATOM     12  C   UNL     1      -3.986  -0.561  24.692  0.00  0.00    +0.057 A 
ATOM     13  C   UNL     1      -4.418  -0.979  24.126  0.00  0.00    +0.005 A 
ATOM     14  C   UNL     1      -4.171  -1.731  23.892  0.00  0.00    +0.003 A 
ATOM     15  C   UNL     1      -3.492  -2.064  24.224  0.00  0.00    +0.037 A 
ATOM     16  C   UNL     1      -3.061  -1.645  24.789  0.00  0.00    +0.139 A 
ATOM     19  C   UNL     1      -3.308  -0.893  25.023  0.00  0.00    +0.041 A 
BRANCH  16  17
ATOM     17  O   UNL     1      -2.382  -1.978  25.120  0.00  0.00    -0.471 OA
ATOM     18  C   UNL     1      -1.827  -2.351  24.637  0.00  0.00    +0.252 C 
ENDBRANCH  16  17
ENDBRANCH  10  12
BRANCH   3   2
ATOM      1  C   UNL     1      -4.052   3.656  25.053  0.00  0.00    +0.174 C 
ATOM      2  O   UNL     1      -4.466   2.958  24.906  0.00  0.00    -0.349 OA
ENDBRANCH   3   2
TORSDOF 3
ENDMDL
MODEL 2
REMARK VINA RESULT:      -9.3      0.844      1.135
REMARK  Name = 
REMARK  3 active torsions:
REMARK  status: ('A' for Active; 'I' for Inactive)
REMARK    1  A    between atoms: O_2  and  C_3
REMARK    2  A    between atoms: C_10  and  C_12
REMARK    3  A    between atoms: C_16  and  O_17
REMARK                            x       y       z     vdW  Elec       q    Type
REMARK                         _______ _______ _______ _____ _____    ______ ____
ROOT
ATOM      3  C   UNL     1      -3.786   2.502  24.114  0.00  0.00    +0.165 C 
ATOM      4  C   UNL     1      -3.093   2.567  23.670  0.00  0.00    +0.173 C 
ATOM      5  O   UNL     1      -2.551   1.977  23.475  0.00  0.00    -0.349 OA
ATOM      6  C   UNL     1      -2.566   1.177  23.675  0.00  0.00    +0.164 C 
ATOM      7  C   UNL     1      -3.128   0.769  24.121  0.00  0.00    +0.126 C 
ATOM      8  N   UNL     1      -3.813   1.061  24.476  0.00  0.00    -0.271 N 
ATOM      9  C   UNL     1      -4.106   1.832  24.473  0.00  0.00    +0.126 C 
ATOM     10  C   UNL     1      -4.266   0.507  24.889  0.00  0.00    +0.249 C 
ATOM     11  O   UNL     1      -4.962   0.742  25.264  0.00  0.00    -0.270 OA
ENDROOT
BRANCH  10  12
ATOM     12  C   UNL     1      -4.022  -0.280  24.926  0.00  0.00    +0.057 A 
ATOM     13  C   UNL     1      -3.546  -0.535  25.550  0.00  0.00    +0.005 A 
ATOM     14  C   UNL     1      -3.302  -1.322  25.588  0.00  0.00    +0.003 A 
ATOM     15  C   UNL     1      -3.534  -1.854  25.001  0.00  0.00    +0.037 A 
ATOM     16  C   UNL     1      -4.010  -1.599  24.378  0.00  0.00    +0.139 A 
ATOM     19  C   UNL     1      -4.254  -0.811  24.340  0.00  0.00    +0.041 A 
BRANCH  16  17
ATOM     17  O   UNL     1      -4.242  -2.131  23.791  0.00  0.00    -0.471 OA
ATOM     18  C   UNL     1      -4.021  -2.924  23.842  0.00  0.00    +0.252 C 
ENDBRANCH  16  17
ENDBRANCH  10  12
BRANCH   3   2
ATOM      1  C   UNL     1      -3.829   3.891  24.448  0.00  0.00    +0.174 C 
ATOM      2  O   UNL     1      -4.214   3.200  24.212  0.00  0.00    -0.349 OA
ENDBRANCH   3   2
TORSDOF 3
ENDMDL
MODEL 3
REMARK VINA RESULT:      -9.1      3.277      4.305
REMARK  Name = 
REMARK  3 active torsions:
REMARK  status: ('A' for Active; 'I' for Inactive)
REMARK    1  A    between atoms: O_2  and  C_3
REMARK    2  A    between atoms: C_10  and  C_12
REMARK    3  A    between atoms: C_16  and  O_17
REMARK                            x       y       z     vdW  Elec       q    Type
REMARK                         _______ _______ _______ _____ _____    ______ ____
ROOT
ATOM      3  C   UNL     1      -4.876   3.047  25.368  0.00  0.00    +0.165 C 
ATOM      4  C   UNL     1      -4.961   2.720  24.615  0.00  0.00    +0.173 C 
ATOM      5  O   UNL     1      -4.397   2.653  24.017  0.00  0.00    -0.349 OA
ATOM      6  C   UNL     1      -3.609   2.897  24.022  0.00  0.00    +0.164 C 
ATOM      7  C   UNL     1      -3.190   3.269  24.629  0.00  0.00    +0.126 C 
ATOM      8  N   UNL     1      -3.456   3.487  25.378  0.00  0.00    -0.271 N 
ATOM      9  C   UNL     1      -4.206   3.389  25.708  0.00  0.00    +0.126 C 
ATOM     10  C   UNL     1      -2.897   3.853  25.864  0.00  0.00    +0.249 C 
ATOM     11  O   UNL     1      -3.107   4.094  26.624  0.00  0.00    -0.270 OA
ENDROOT
BRANCH  10  12
ATOM     12  C   UNL     1      -2.130   3.978  25.588  0.00  0.00    +0.057 A 
ATOM     13  C   UNL     1      -1.921   4.709  25.266  0.00  0.00    +0.005 A 
ATOM     14  C   UNL     1      -1.154   4.834  24.991  0.00  0.00    +0.003 A 
ATOM     15  C   UNL     1      -0.595   4.228  25.036  0.00  0.00    +0.037 A 
ATOM     16  C   UNL     1      -0.805   3.498  25.358  0.00  0.00    +0.139 A 
ATOM     19  C   UNL     1      -1.572   3.373  25.634  0.00  0.00    +0.041 A 
BRANCH  16  17
ATOM     17  O   UNL     1      -0.246   2.892  25.403  0.00  0.00    -0.471 OA
ATOM     18  C   UNL     1       0.117   2.719  26.124  0.00  0.00    +0.252 C 
ENDBRANCH  16  17
ENDBRANCH  10  12
BRANCH   3   2
ATOM      1  C   UNL     1      -6.001   2.342  25.896  0.00  0.00    +0.174 C 
ATOM      2  O   UNL     1      -5.550   3.031  25.843  0.00  0.00    -0.349 OA
ENDBRANCH   3   2
TORSDOF 3
ENDMDL
MODEL 4
REMARK VINA RESULT:      -8.6      1.106      3.912
REMARK  Name = 
REMARK  3 active torsions:
REMARK  status: ('A' for Active; 'I' for Inactive)
REMARK    1  A    between atoms: O_2  and  C_3
REMARK    2  A    between atoms: C_10  and  C_12
REMARK    3  A    between atoms: C_16  and  O_17
REMARK                            x       y       z     vdW  Elec       q    Type
REMARK                         _______ _______ _______ _____ _____    ______ ____
ROOT
ATOM      3  C   UNL     1      -3.770  -0.699  24.520  0.00  0.00    +0.165 C 
ATOM      4  C   UNL     1      -2.958  -0.823  24.440  0.00  0.00    +0.173 C 
ATOM      5  O   UNL     1      -2.355  -0.262  24.390  0.00  0.00    -0.349 OA
ATOM      6  C   UNL     1      -2.414   0.561  24.406  0.00  0.00    +0.164 C 
ATOM      7  C   UNL     1      -3.092   1.026  24.477  0.00  0.00    +0.126 C 
ATOM      8  N   UNL     1      -3.876   0.784  24.549  0.00  0.00    -0.271 N 
ATOM      9  C   UNL     1      -4.179   0.016  24.568  0.00  0.00    +0.126 C 
ATOM     10  C   UNL     1      -4.434   1.390  24.610  0.00  0.00    +0.249 C 
ATOM     11  O   UNL     1      -5.235   1.207  24.684  0.00  0.00    -0.270 OA
ENDROOT
BRANCH  10  12
ATOM     12  C   UNL     1      -4.190   2.178  24.597  0.00  0.00    +0.057 A 
ATOM     13  C   UNL     1      -4.062   2.557  23.875  0.00  0.00    +0.005 A 
ATOM     14  C   UNL     1      -3.818   3.345  23.862  0.00  0.00    +0.003 A 
ATOM     15  C   UNL     1      -3.702   3.754  24.570  0.00  0.00    +0.037 A 
ATOM     16  C   UNL     1      -3.830   3.373  25.291  0.00  0.00    +0.139 A 
ATOM     19  C   UNL     1      -4.074   2.585  25.304  0.00  0.00    +0.041 A 
BRANCH  16  17
ATOM     17  O   UNL     1      -3.715   3.782  25.999  0.00  0.00    -0.471 OA
ATOM     18  C   UNL     1      -3.000   4.170  26.139  0.00  0.00    +0.252 C 
ENDBRANCH  16  17
ENDBRANCH  10  12
BRANCH   3   2
ATOM      1  C   UNL     1      -4.007  -2.056  24.141  0.00  0.00    +0.174 C 
ATOM      2  O   UNL     1      -4.234  -1.380  24.555  0.00  0.00    -0.349 OA
ENDBRANCH   3   2
TORSDOF 3
ENDMDL
MODEL 5
REMARK VINA RESULT:      -8.5      1.606      3.930
REMARK  Name = 
REMARK  3 active torsions:
REMARK  status: ('A' for Active; 'I' for Inactive)
REMARK    1  A    between atoms: O_2  and  C_3
REMARK    2  A    between atoms: C_10  and  C_12
REMARK    3  A    between atoms: C_16  and  O_17
REMARK                            x       y       z     vdW  Elec       q    Type
REMARK                         _______ _______ _______ _____ _____    ______ ____
ROOT
ATOM      3  C   UNL     1      -1.470  -0.305  24.822  0.00  0.00    +0.165 C 
ATOM      4  C   UNL     1      -0.906   0.119  25.251  0.00  0.00    +0.173 C 
ATOM      5  O   UNL     1      -0.922   0.913  25.475  0.00  0.00    -0.349 OA
ATOM      6  C   UNL     1      -1.503   1.479  25.326  0.00  0.00    +0.164 C 
ATOM      7  C   UNL     1      -2.214   1.390  24.915  0.00  0.00    +0.126 C 
ATOM      8  N   UNL     1      -2.518   0.714  24.554  0.00  0.00    -0.271 N 
ATOM      9  C   UNL     1      -2.187  -0.041  24.512  0.00  0.00    +0.126 C 
ATOM     10  C   UNL     1      -3.251   0.805  24.184  0.00  0.00    +0.249 C 
ATOM     11  O   UNL     1      -3.603   0.162  23.806  0.00  0.00    -0.270 OA
ENDROOT
BRANCH  10  12
ATOM     12  C   UNL     1      -3.630   1.537  24.194  0.00  0.00    +0.057 A 
ATOM     13  C   UNL     1      -3.417   2.118  23.647  0.00  0.00    +0.005 A 
ATOM     14  C   UNL     1      -3.796   2.851  23.656  0.00  0.00    +0.003 A 
ATOM     15  C   UNL     1      -4.388   3.003  24.212  0.00  0.00    +0.037 A 
ATOM     16  C   UNL     1      -4.599   2.421  24.758  0.00  0.00    +0.139 A 
ATOM     19  C   UNL     1      -4.220   1.689  24.748  0.00  0.00    +0.041 A 
BRANCH  16  17
ATOM     17  O   UNL     1      -5.191   2.573  25.313  0.00  0.00    -0.471 OA
ATOM     18  C   UNL     1      -5.308   3.341  25.591  0.00  0.00    +0.252 C 
ENDBRANCH  16  17
ENDBRANCH  10  12
BRANCH   3   2
ATOM      1  C   UNL     1      -0.633  -1.442  25.044  0.00  0.00    +0.174 C 
ATOM      2  O   UNL     1      -1.292  -1.099  24.686  0.00  0.00    -0.349 OA
ENDBRANCH   3   2
TORSDOF 3
ENDMDL
