MODEL 1
REMARK VINA RESULT:      -8.6      0.000      0.000
REMARK  Name = 
REMARK  6 active torsions:
REMARK  status: ('A' for Active; 'I' for Inactive)
REMARK    1  A    between atoms: C_1  and  N_2
REMARK    2  A    between atoms: C_1  and  C_23
REMARK    3  A    between atoms: N_2  and  C_3
REMARK    4  A    between atoms: C_7  and  N_11
REMARK    5  A    between atoms: C_14  and  C_18
REMARK    6  A    between atoms: C_26  and  C_29
REMARK                            x       y       z     vdW  Elec       q    Type
REMARK                         _______ _______ _______ _____ _____    ______ ____
ROOT
ATOM      3  C   UNL     1      -0.715  -0.051  23.946  0.00  0.00    +0.132 C 
ATOM      4  C   UNL     1      -0.427  -0.464  24.599  0.00  0.00    +0.162 C 
ATOM      5  O   UNL     1       0.370  -0.627  24.465  0.00  0.00    -0.350 OA
ATOM      6  C   UNL     1       0.575  -0.316  23.730  0.00  0.00    +0.166 C 
ATOM      7  C   UNL     1       1.194  -0.224  23.192  0.00  0.00    +0.154 C 
ATOM      8  C   UNL     1       0.906   0.188  22.539  0.00  0.00    +0.166 C 
ATOM      9  O   UNL     1       0.108   0.352  22.672  0.00  0.00    -0.350 OA
ATOM     10  C   UNL     1      -0.096   0.040  23.409  0.00  0.00    +0.162 C 
ENDROOT
BRANCH   7  11
ATOM     11  N   UNL     1       1.966  -0.498  23.291  0.00  0.00    -0.200 NA
ATOM     12  C   UNL     1       2.603   0.012  23.170  0.00  0.00    +0.237 A 
ATOM     13  N   UNL     1       3.375  -0.260  23.269  0.00  0.00    -0.209 NA
ATOM     14  C   UNL     1       4.012   0.250  23.148  0.00  0.00    +0.120 A 
ATOM     15  C   UNL     1       3.877   1.033  22.928  0.00  0.00    +0.043 A 
ATOM     16  C   UNL     1       3.104   1.306  22.829  0.00  0.00    +0.104 A 
ATOM     17  N   UNL     1       2.468   0.796  22.950  0.00  0.00    -0.211 NA
BRANCH  14  18
ATOM     18  C   UNL     1       4.784  -0.023  23.247  0.00  0.00    +0.163 A 
ATOM     19  C   UNL     1       5.051  -0.513  23.855  0.00  0.00    +0.042 A 
ATOM     20  C   UNL     1       5.857  -0.647  23.739  0.00  0.00    +0.044 A 
ATOM     21  C   UNL     1       6.087  -0.240  23.060  0.00  0.00    +0.180 A 
ATOM     22  O   UNL     1       5.424   0.146  22.756  0.00  0.00    -0.449 OA
ENDBRANCH  14  18
ENDBRANCH   7  11
BRANCH   3   2
ATOM      2  N   UNL     1      -1.488   0.222  23.847  0.00  0.00    -0.210 NA
BRANCH   2   1
ATOM      1  C   UNL     1      -2.105  -0.123  24.272  0.00  0.00    +0.115 C 
BRANCH   1  23
ATOM     23  C   UNL     1      -2.781   0.317  24.447  0.00  0.00    -0.005 A 
ATOM     24  C   UNL     1      -3.310   0.049  25.021  0.00  0.00    -0.003 A 
ATOM     25  C   UNL     1      -3.985   0.489  25.197  0.00  0.00    -0.000 A 
ATOM     26  C   UNL     1      -4.132   1.196  24.798  0.00  0.00    -0.000 A 
ATOM     27  C   UNL     1      -3.604   1.464  24.224  0.00  0.00    -0.000 A 
ATOM     28  C   UNL     1      -2.928   1.024  24.049  0.00  0.00    -0.003 A 
BRANCH  26  29
ATOM     29  C   UNL     1      -4.809   1.636  24.974  0.00  0.00    -0.000 A 
ATOM     30  C   UNL     1      -5.556   1.311  24.846  0.00  0.00    -0.000 A 
ATOM     31  C   UNL     1      -6.231   1.751  25.022  0.00  0.00    +0.000 A 
ATOM     32  C   UNL     1      -6.160   2.515  25.325  0.00  0.00    +0.000 A 
ATOM     33  C   UNL     1      -5.412   2.839  25.452  0.00  0.00    +0.000 A 
ATOM     34  C   UNL     1      -4.736   2.400  25.277  0.00  0.00    -0.000 A 
ENDBRANCH  26  29
ENDBRANCH   1  23
ENDBRANCH   2   1
ENDBRANCH   3   2
TORSDOF 6
ENDMDL
MODEL 2
REMARK VINA RESULT:      -8.2      1.646      7.877
REMARK  Name = 
REMARK  6 active torsions:
REMARK  status: ('A' for Active; 'I' for Inactive)
REMARK    1  A    between atoms: C_1  and  N_2
REMARK    2  A    between atoms: C_1  and  C_23
REMARK    3  A    between atoms: N_2  and  C_3
REMARK    4  A    between atoms: C_7  and  N_11
REMARK    5  A    between atoms: C_14  and  C_18
REMARK    6  A    between atoms: C_26  and  C_29
REMARK                            x       y       z     vdW  Elec       q    Type
REMARK                         _______ _______ _______ _____ _____    ______ ____
ROOT
ATOM      3  C   UNL     1       0.069   0.784  23.624  0.00  0.00    +0.132 C 
ATOM      4  C   UNL     1      -0.398   0.134  23.427  0.00  0.00    +0.162 C 
ATOM      5  O   UNL     1      -1.138   0.237  23.775  0.00  0.00    -0.350 OA
ATOM      6  C   UNL     1      -1.129   0.951  24.187  0.00  0.00    +0.166 C 
ATOM      7  C   UNL     1      -1.580   1.457  24.657  0.00  0.00    +0.154 C 
ATOM      8  C   UNL     1      -1.114   2.108  24.854  0.00  0.00    +0.166 C 
ATOM      9  O   UNL     1      -0.373   2.004  24.506  0.00  0.00    -0.350 OA
ATOM     10  C   UNL     1      -0.383   1.289  24.093  0.00  0.00    +0.162 C 
ENDROOT
BRANCH   7  11
ATOM     11  N   UNL     1      -2.363   1.334  24.889  0.00  0.00    -0.200 NA
ATOM     12  C   UNL     1      -2.935   1.908  24.734  0.00  0.00    +0.237 A 
ATOM     13  N   UNL     1      -3.717   1.784  24.966  0.00  0.00    -0.209 NA
ATOM     14  C   UNL     1      -4.289   2.358  24.811  0.00  0.00    +0.120 A 
ATOM     15  C   UNL     1      -4.079   3.055  24.424  0.00  0.00    +0.043 A 
ATOM     16  C   UNL     1      -3.297   3.179  24.191  0.00  0.00    +0.104 A 
ATOM     17  N   UNL     1      -2.725   2.605  24.347  0.00  0.00    -0.211 NA
BRANCH  14  18
ATOM     18  C   UNL     1      -5.070   2.235  25.043  0.00  0.00    +0.163 A 
ATOM     19  C   UNL     1      -5.423   2.524  25.731  0.00  0.00    +0.042 A 
ATOM     20  C   UNL     1      -6.208   2.269  25.741  0.00  0.00    +0.044 A 
ATOM     21  C   UNL     1      -6.340   1.823  25.060  0.00  0.00    +0.180 A 
ATOM     22  O   UNL     1      -5.637   1.802  24.629  0.00  0.00    -0.449 OA
ENDBRANCH  14  18
ENDBRANCH   7  11
BRANCH   3   2
ATOM      2  N   UNL     1       0.851   0.908  23.391  0.00  0.00    -0.210 NA
BRANCH   2   1
ATOM      1  C   UNL     1       1.248   0.331  22.956  0.00  0.00    +0.115 C 
BRANCH   1  23
ATOM     23  C   UNL     1       2.060   0.222  23.058  0.00  0.00    -0.005 A 
ATOM     24  C   UNL     1       2.359  -0.532  23.212  0.00  0.00    -0.003 A 
ATOM     25  C   UNL     1       3.169  -0.641  23.314  0.00  0.00    -0.000 A 
ATOM     26  C   UNL     1       3.682   0.004  23.263  0.00  0.00    -0.000 A 
ATOM     27  C   UNL     1       3.384   0.757  23.110  0.00  0.00    -0.000 A 
ATOM     28  C   UNL     1       2.572   0.866  23.008  0.00  0.00    -0.003 A 
BRANCH  26  29
ATOM     29  C   UNL     1       4.494  -0.105  23.366  0.00  0.00    -0.000 A 
ATOM     30  C   UNL     1       5.029   0.390  22.980  0.00  0.00    -0.000 A 
ATOM     31  C   UNL     1       5.840   0.281  23.083  0.00  0.00    +0.000 A 
ATOM     32  C   UNL     1       6.116  -0.324  23.571  0.00  0.00    +0.000 A 
ATOM     33  C   UNL     1       5.582  -0.819  23.957  0.00  0.00    +0.000 A 
ATOM     34  C   UNL     1       4.770  -0.710  23.854  0.00  0.00    -0.000 A 
ENDBRANCH  26  29
ENDBRANCH   1  23
ENDBRANCH   2   1
ENDBRANCH   3   2
TORSDOF 6
ENDMDL
MODEL 3
REMARK VINA RESULT:      -7.2     14.831     15.788
REMARK  Name = 
REMARK  6 active torsions:
REMARK  status: ('A' for Active; 'I' for Inactive)
REMARK    1  A    between atoms: C_1  and  N_2
REMARK    2  A    between atoms: C_1  and  C_23
REMARK    3  A    between atoms: N_2  and  C_3
REMARK    4  A    between atoms: C_7  and  N_11
REMARK    5  A    between atoms: C_14  and  C_18
REMARK    6  A    between atoms: C_26  and  C_29
REMARK                            x       y       z     vdW  Elec       q    Type
REMARK                         _______ _______ _______ _____ _____    ______ ____
ROOT
ATOM      3  C   UNL     1      -6.323 -10.324  15.372  0.00  0.00    +0.132 C 
ATOM      4  C   UNL     1      -5.573 -10.002  15.483  0.00  0.00    +0.162 C 
ATOM      5  O   UNL     1      -5.202  -9.962  14.747  0.00  0.00    -0.350 OA
ATOM      6  C   UNL     1      -5.722 -10.259  14.182  0.00  0.00    +0.166 C 
ATOM      7  C   UNL     1      -5.816 -10.419  13.378  0.00  0.00    +0.154 C 
ATOM      8  C   UNL     1      -6.567 -10.741  13.267  0.00  0.00    +0.166 C 
ATOM      9  O   UNL     1      -6.938 -10.781  14.002  0.00  0.00    -0.350 OA
ATOM     10  C   UNL     1      -6.416 -10.483  14.568  0.00  0.00    +0.162 C 
ENDROOT
BRANCH   7  11
ATOM     11  N   UNL     1      -5.256 -10.279  12.788  0.00  0.00    -0.200 NA
ATOM     12  C   UNL     1      -5.448  -9.805  12.140  0.00  0.00    +0.237 A 
ATOM     13  N   UNL     1      -4.888  -9.666  11.551  0.00  0.00    -0.209 NA
ATOM     14  C   UNL     1      -5.080  -9.192  10.903  0.00  0.00    +0.120 A 
ATOM     15  C   UNL     1      -5.831  -8.857  10.846  0.00  0.00    +0.043 A 
ATOM     16  C   UNL     1      -6.391  -8.996  11.436  0.00  0.00    +0.104 A 
ATOM     17  N   UNL     1      -6.199  -9.470  12.083  0.00  0.00    -0.211 NA
BRANCH  14  18
ATOM     18  C   UNL     1      -4.520  -9.053  10.314  0.00  0.00    +0.163 A 
ATOM     19  C   UNL     1      -3.723  -9.265  10.341  0.00  0.00    +0.042 A 
ATOM     20  C   UNL     1      -3.370  -9.020   9.638  0.00  0.00    +0.044 A 
ATOM     21  C   UNL     1      -3.947  -8.657   9.176  0.00  0.00    +0.180 A 
ATOM     22  O   UNL     1      -4.658  -8.676   9.593  0.00  0.00    -0.449 OA
ENDBRANCH  14  18
ENDBRANCH   7  11
BRANCH   3   2
ATOM      2  N   UNL     1      -6.884 -10.464  15.962  0.00  0.00    -0.210 NA
BRANCH   2   1
ATOM      1  C   UNL     1      -6.893  -9.995  16.640  0.00  0.00    +0.115 C 
BRANCH   1  23
ATOM     23  C   UNL     1      -7.508 -10.071  17.186  0.00  0.00    -0.005 A 
ATOM     24  C   UNL     1      -7.507 -10.695  17.725  0.00  0.00    -0.003 A 
ATOM     25  C   UNL     1      -8.121 -10.771  18.269  0.00  0.00    -0.000 A 
ATOM     26  C   UNL     1      -8.737 -10.222  18.276  0.00  0.00    -0.000 A 
ATOM     27  C   UNL     1      -8.738  -9.597  17.737  0.00  0.00    -0.000 A 
ATOM     28  C   UNL     1      -8.124  -9.522  17.192  0.00  0.00    -0.003 A 
BRANCH  26  29
ATOM     29  C   UNL     1      -9.352 -10.298  18.821  0.00  0.00    -0.000 A 
ATOM     30  C   UNL     1     -10.100  -9.998  18.644  0.00  0.00    -0.000 A 
ATOM     31  C   UNL     1     -10.714 -10.074  19.189  0.00  0.00    +0.000 A 
ATOM     32  C   UNL     1     -10.581 -10.449  19.912  0.00  0.00    +0.000 A 
ATOM     33  C   UNL     1      -9.833 -10.749  20.089  0.00  0.00    +0.000 A 
ATOM     34  C   UNL     1      -9.218 -10.673  19.543  0.00  0.00    -0.000 A 
ENDBRANCH  26  29
ENDBRANCH   1  23
ENDBRANCH   2   1
ENDBRANCH   3   2
TORSDOF 6
ENDMDL
MODEL 4
REMARK VINA RESULT:      -6.2     14.814     17.095
REMARK  Name = 
REMARK  6 active torsions:
REMARK  status: ('A' for Active; 'I' for Inactive)
REMARK    1  A    between atoms: C_1  and  N_2
REMARK    2  A    between atoms: C_1  and  C_23
REMARK    3  A    between atoms: N_2  and  C_3
REMARK    4  A    between atoms: C_7  and  N_11
REMARK    5  A    between atoms: C_14  and  C_18
REMARK    6  A    between atoms: C_26  and  C_29
REMARK                            x       y       z     vdW  Elec       q    Type
REMARK                         _______ _______ _______ _____ _____    ______ ____
ROOT
ATOM      3  C   UNL     1      -5.895 -10.699  13.411  0.00  0.00    +0.132 C 
ATOM      4  C   UNL     1      -6.597 -10.612  12.987  0.00  0.00    +0.162 C 
ATOM      5  O   UNL     1      -7.215 -10.549  13.530  0.00  0.00    -0.350 OA
ATOM      6  C   UNL     1      -6.895 -10.597  14.288  0.00  0.00    +0.166 C 
ATOM      7  C   UNL     1      -7.078 -10.588  15.093  0.00  0.00    +0.154 C 
ATOM      8  C   UNL     1      -6.375 -10.675  15.516  0.00  0.00    +0.166 C 
ATOM      9  O   UNL     1      -5.758 -10.738  14.973  0.00  0.00    -0.350 OA
ATOM     10  C   UNL     1      -6.078 -10.690  14.214  0.00  0.00    +0.162 C 
ENDROOT
BRANCH   7  11
ATOM     11  N   UNL     1      -7.832 -10.506  15.417  0.00  0.00    -0.200 NA
ATOM     12  C   UNL     1      -7.939 -10.067  16.108  0.00  0.00    +0.237 A 
ATOM     13  N   UNL     1      -8.693  -9.985  16.432  0.00  0.00    -0.209 NA
ATOM     14  C   UNL     1      -8.800  -9.547  17.123  0.00  0.00    +0.120 A 
ATOM     15  C   UNL     1      -8.153  -9.190  17.489  0.00  0.00    +0.043 A 
ATOM     16  C   UNL     1      -7.398  -9.272  17.165  0.00  0.00    +0.104 A 
ATOM     17  N   UNL     1      -7.292  -9.711  16.474  0.00  0.00    -0.211 NA
BRANCH  14  18
ATOM     18  C   UNL     1      -9.554  -9.465  17.447  0.00  0.00    +0.163 A 
ATOM     19  C   UNL     1     -10.006  -8.774  17.455  0.00  0.00    +0.042 A 
ATOM     20  C   UNL     1     -10.719  -8.941  17.833  0.00  0.00    +0.044 A 
ATOM     21  C   UNL     1     -10.709  -9.734  18.058  0.00  0.00    +0.180 A 
ATOM     22  O   UNL     1      -9.989 -10.058  17.819  0.00  0.00    -0.449 OA
ENDBRANCH  14  18
ENDBRANCH   7  11
BRANCH   3   2
ATOM      2  N   UNL     1      -5.140 -10.781  13.086  0.00  0.00    -0.210 NA
BRANCH   2   1
ATOM      1  C   UNL     1      -5.003 -10.566  12.302  0.00  0.00    +0.115 C 
BRANCH   1  23
ATOM     23  C   UNL     1      -4.253 -10.311  12.070  0.00  0.00    -0.005 A 
ATOM     24  C   UNL     1      -4.177  -9.721  11.497  0.00  0.00    -0.003 A 
ATOM     25  C   UNL     1      -3.428  -9.467  11.265  0.00  0.00    -0.000 A 
ATOM     26  C   UNL     1      -2.754  -9.801  11.605  0.00  0.00    -0.000 A 
ATOM     27  C   UNL     1      -2.830 -10.390  12.177  0.00  0.00    -0.000 A 
ATOM     28  C   UNL     1      -3.580 -10.645  12.410  0.00  0.00    -0.003 A 
BRANCH  26  29
ATOM     29  C   UNL     1      -2.004  -9.545  11.372  0.00  0.00    -0.000 A 
ATOM     30  C   UNL     1      -1.349  -9.701  11.849  0.00  0.00    -0.000 A 
ATOM     31  C   UNL     1      -0.601  -9.446  11.617  0.00  0.00    +0.000 A 
ATOM     32  C   UNL     1      -0.506  -9.035  10.907  0.00  0.00    +0.000 A 
ATOM     33  C   UNL     1      -1.161  -8.880  10.431  0.00  0.00    +0.000 A 
ATOM     34  C   UNL     1      -1.911  -9.135  10.663  0.00  0.00    -0.000 A 
ENDBRANCH  26  29
ENDBRANCH   1  23
ENDBRANCH   2   1
ENDBRANCH   3   2
TORSDOF 6
ENDMDL
MODEL 5
REMARK VINA RESULT:      -5.9     14.924     17.210
REMARK  Name = 
REMARK  6 active torsions:
REMARK  status: ('A' for Active; 'I' for Inactive)
REMARK    1  A    between atoms: C_1  and  N_2
REMARK    2  A    between atoms: C_1  and  C_23
REMARK    3  A    between atoms: N_2  and  C_3
REMARK    4  A    between atoms: C_7  and  N_11
REMARK    5  A    between atoms: C_14  and  C_18
REMARK    6  A    between atoms: C_26  and  C_29
REMARK                            x       y       z     vdW  Elec       q    Type
REMARK                         _______ _______ _______ _____ _____    ______ ____
ROOT
ATOM      3  C   UNL     1      -4.486 -10.673  12.648  0.00  0.00    +0.132 C 
ATOM      4  C   UNL     1      -5.104 -10.625  12.105  0.00  0.00    +0.162 C 
ATOM      5  O   UNL     1      -5.814 -10.636  12.525  0.00  0.00    -0.350 OA
ATOM      6  C   UNL     1      -5.634 -10.690  13.328  0.00  0.00    +0.166 C 
ATOM      7  C   UNL     1      -5.961 -10.730  14.085  0.00  0.00    +0.154 C 
ATOM      8  C   UNL     1      -5.342 -10.777  14.628  0.00  0.00    +0.166 C 
ATOM      9  O   UNL     1      -4.633 -10.767  14.207  0.00  0.00    -0.350 OA
ATOM     10  C   UNL     1      -4.813 -10.713  13.404  0.00  0.00    +0.162 C 
ENDROOT
BRANCH   7  11
ATOM     11  N   UNL     1      -6.766 -10.723  14.266  0.00  0.00    -0.200 NA
ATOM     12  C   UNL     1      -7.032 -10.343  14.948  0.00  0.00    +0.237 A 
ATOM     13  N   UNL     1      -7.837 -10.336  15.129  0.00  0.00    -0.209 NA
ATOM     14  C   UNL     1      -8.103  -9.956  15.811  0.00  0.00    +0.120 A 
ATOM     15  C   UNL     1      -7.565  -9.582  16.312  0.00  0.00    +0.043 A 
ATOM     16  C   UNL     1      -6.759  -9.589  16.131  0.00  0.00    +0.104 A 
ATOM     17  N   UNL     1      -6.494  -9.969  15.449  0.00  0.00    -0.211 NA
BRANCH  14  18
ATOM     18  C   UNL     1      -8.907  -9.949  15.993  0.00  0.00    +0.163 A 
ATOM     19  C   UNL     1      -9.291 -10.460  16.515  0.00  0.00    +0.042 A 
ATOM     20  C   UNL     1     -10.091 -10.257  16.529  0.00  0.00    +0.044 A 
ATOM     21  C   UNL     1     -10.201  -9.621  16.015  0.00  0.00    +0.180 A 
ATOM     22  O   UNL     1      -9.470  -9.431  15.684  0.00  0.00    -0.449 OA
ENDBRANCH  14  18
ENDBRANCH   7  11
BRANCH   3   2
ATOM      2  N   UNL     1      -3.681 -10.680  12.467  0.00  0.00    -0.210 NA
BRANCH   2   1
ATOM      1  C   UNL     1      -3.425 -10.453  11.716  0.00  0.00    +0.115 C 
BRANCH   1  23
ATOM     23  C   UNL     1      -2.692 -10.085  11.624  0.00  0.00    -0.005 A 
ATOM     24  C   UNL     1      -2.610  -9.458  11.093  0.00  0.00    -0.003 A 
ATOM     25  C   UNL     1      -1.877  -9.091  11.001  0.00  0.00    -0.000 A 
ATOM     26  C   UNL     1      -1.227  -9.349  11.438  0.00  0.00    -0.000 A 
ATOM     27  C   UNL     1      -1.310  -9.975  11.969  0.00  0.00    -0.000 A 
ATOM     28  C   UNL     1      -2.043 -10.343  12.061  0.00  0.00    -0.003 A 
BRANCH  26  29
ATOM     29  C   UNL     1      -0.494  -8.980  11.346  0.00  0.00    -0.000 A 
ATOM     30  C   UNL     1      -0.281  -8.356  11.841  0.00  0.00    -0.000 A 
ATOM     31  C   UNL     1       0.451  -7.988  11.748  0.00  0.00    +0.000 A 
ATOM     32  C   UNL     1       0.970  -8.244  11.160  0.00  0.00    +0.000 A 
ATOM     33  C   UNL     1       0.757  -8.869  10.665  0.00  0.00    +0.000 A 
ATOM     34  C   UNL     1       0.024  -9.237  10.758  0.00  0.00    -0.000 A 
ENDBRANCH  26  29
ENDBRANCH   1  23
ENDBRANCH   2   1
ENDBRANCH   3   2
TORSDOF 6
ENDMDL
MODEL 6
REMARK VINA RESULT:      -5.7     14.355     15.041
REMARK  Name = 
REMARK  6 active torsions:
REMARK  status: ('A' for Active; 'I' for Inactive)
REMARK    1  A    between atoms: C_1  and  N_2
REMARK    2  A    between atoms: C_1  and  C_23
REMARK    3  A    between atoms: N_2  and  C_3
REMARK    4  A    between atoms: C_7  and  N_11
REMARK    5  A    between atoms: C_14  and  C_18
REMARK    6  A    between atoms: C_26  and  C_29
REMARK                            x       y       z     vdW  Elec       q    Type
REMARK                         _______ _______ _______ _____ _____    ______ ____
ROOT
ATOM      3  C   UNL     1      -5.190 -10.643  16.155  0.00  0.00    +0.132 C 
ATOM      4  C   UNL     1      -4.479 -10.483  16.541  0.00  0.00    +0.162 C 
ATOM      5  O   UNL     1      -3.895 -10.382  15.968  0.00  0.00    -0.350 OA
ATOM      6  C   UNL     1      -4.244 -10.479  15.228  0.00  0.00    +0.166 C 
ATOM      7  C   UNL     1      -4.099 -10.477  14.415  0.00  0.00    +0.154 C 
ATOM      8  C   UNL     1      -4.810 -10.637  14.029  0.00  0.00    +0.166 C 
ATOM      9  O   UNL     1      -5.394 -10.738  14.602  0.00  0.00    -0.350 OA
ATOM     10  C   UNL     1      -5.044 -10.641  15.343  0.00  0.00    +0.162 C 
ENDROOT
BRANCH   7  11
ATOM     11  N   UNL     1      -3.370 -10.339  14.053  0.00  0.00    -0.200 NA
ATOM     12  C   UNL     1      -3.318 -10.304  13.231  0.00  0.00    +0.237 A 
ATOM     13  N   UNL     1      -2.590 -10.167  12.869  0.00  0.00    -0.209 NA
ATOM     14  C   UNL     1      -2.538 -10.132  12.046  0.00  0.00    +0.120 A 
ATOM     15  C   UNL     1      -3.215 -10.235  11.585  0.00  0.00    +0.043 A 
ATOM     16  C   UNL     1      -3.943 -10.373  11.947  0.00  0.00    +0.104 A 
ATOM     17  N   UNL     1      -3.995 -10.407  12.770  0.00  0.00    -0.211 NA
BRANCH  14  18
ATOM     18  C   UNL     1      -1.810  -9.994  11.684  0.00  0.00    +0.163 A 
ATOM     19  C   UNL     1      -1.585  -9.301  11.296  0.00  0.00    +0.042 A 
ATOM     20  C   UNL     1      -0.815  -9.404  11.018  0.00  0.00    +0.044 A 
ATOM     21  C   UNL     1      -0.564 -10.159  11.235  0.00  0.00    +0.180 A 
ATOM     22  O   UNL     1      -1.180 -10.523  11.646  0.00  0.00    -0.449 OA
ENDBRANCH  14  18
ENDBRANCH   7  11
BRANCH   3   2
ATOM      2  N   UNL     1      -5.919 -10.781  16.517  0.00  0.00    -0.210 NA
BRANCH   2   1
ATOM      1  C   UNL     1      -6.083 -10.446  17.252  0.00  0.00    +0.115 C 
BRANCH   1  23
ATOM     23  C   UNL     1      -6.854 -10.457  17.547  0.00  0.00    -0.005 A 
ATOM     24  C   UNL     1      -7.474 -10.156  17.093  0.00  0.00    -0.003 A 
ATOM     25  C   UNL     1      -8.244 -10.167  17.387  0.00  0.00    -0.000 A 
ATOM     26  C   UNL     1      -8.395 -10.478  18.136  0.00  0.00    -0.000 A 
ATOM     27  C   UNL     1      -7.776 -10.779  18.591  0.00  0.00    -0.000 A 
ATOM     28  C   UNL     1      -7.005 -10.768  18.296  0.00  0.00    -0.003 A 
BRANCH  26  29
ATOM     29  C   UNL     1      -9.166 -10.489  18.431  0.00  0.00    -0.000 A 
ATOM     30  C   UNL     1      -9.806 -10.493  17.911  0.00  0.00    -0.000 A 
ATOM     31  C   UNL     1     -10.576 -10.503  18.206  0.00  0.00    +0.000 A 
ATOM     32  C   UNL     1     -10.707 -10.510  19.020  0.00  0.00    +0.000 A 
ATOM     33  C   UNL     1     -10.067 -10.506  19.540  0.00  0.00    +0.000 A 
ATOM     34  C   UNL     1      -9.296 -10.496  19.246  0.00  0.00    -0.000 A 
ENDBRANCH  26  29
ENDBRANCH   1  23
ENDBRANCH   2   1
ENDBRANCH   3   2
TORSDOF 6
ENDMDL
MODEL 7
REMARK VINA RESULT:      -5.7     14.724     15.870
REMARK  Name = 
REMARK  6 active torsions:
REMARK  status: ('A' for Active; 'I' for Inactive)
REMARK    1  A    between atoms: C_1  and  N_2
REMARK    2  A    between atoms: C_1  and  C_23
REMARK    3  A    between atoms: N_2  and  C_3
REMARK    4  A    between atoms: C_7  and  N_11
REMARK    5  A    between atoms: C_14  and  C_18
REMARK    6  A    between atoms: C_26  and  C_29
REMARK                            x       y       z     vdW  Elec       q    Type
REMARK                         _______ _______ _______ _____ _____    ______ ____
ROOT
ATOM      3  C   UNL     1      -4.406 -10.621  14.633  0.00  0.00    +0.132 C 
ATOM      4  C   UNL     1      -3.650 -10.414  14.374  0.00  0.00    +0.162 C 
ATOM      5  O   UNL     1      -3.682 -10.305  13.557  0.00  0.00    -0.350 OA
ATOM      6  C   UNL     1      -4.456 -10.445  13.311  0.00  0.00    +0.166 C 
ATOM      7  C   UNL     1      -4.956 -10.465  12.654  0.00  0.00    +0.154 C 
ATOM      8  C   UNL     1      -5.711 -10.672  12.913  0.00  0.00    +0.166 C 
ATOM      9  O   UNL     1      -5.679 -10.781  13.730  0.00  0.00    -0.350 OA
ATOM     10  C   UNL     1      -4.903 -10.641  13.976  0.00  0.00    +0.162 C 
ENDROOT
BRANCH   7  11
ATOM     11  N   UNL     1      -4.737 -10.305  11.874  0.00  0.00    -0.200 NA
ATOM     12  C   UNL     1      -5.115  -9.704  11.455  0.00  0.00    +0.237 A 
ATOM     13  N   UNL     1      -4.897  -9.544  10.676  0.00  0.00    -0.209 NA
ATOM     14  C   UNL     1      -5.274  -8.943  10.256  0.00  0.00    +0.120 A 
ATOM     15  C   UNL     1      -5.871  -8.501  10.616  0.00  0.00    +0.043 A 
ATOM     16  C   UNL     1      -6.090  -8.661  11.396  0.00  0.00    +0.104 A 
ATOM     17  N   UNL     1      -5.711  -9.262  11.815  0.00  0.00    -0.211 NA
BRANCH  14  18
ATOM     18  C   UNL     1      -5.056  -8.783   9.477  0.00  0.00    +0.163 A 
ATOM     19  C   UNL     1      -5.324  -9.183   8.806  0.00  0.00    +0.042 A 
ATOM     20  C   UNL     1      -4.965  -8.842   8.147  0.00  0.00    +0.044 A 
ATOM     21  C   UNL     1      -4.476  -8.233   8.409  0.00  0.00    +0.180 A 
ATOM     22  O   UNL     1      -4.532  -8.196   9.231  0.00  0.00    -0.449 OA
ENDBRANCH  14  18
ENDBRANCH   7  11
BRANCH   3   2
ATOM      2  N   UNL     1      -4.624 -10.781  15.412  0.00  0.00    -0.210 NA
BRANCH   2   1
ATOM      1  C   UNL     1      -4.356 -10.296  16.024  0.00  0.00    +0.115 C 
BRANCH   1  23
ATOM     23  C   UNL     1      -4.680 -10.367  16.779  0.00  0.00    -0.005 A 
ATOM     24  C   UNL     1      -4.188 -10.492  17.429  0.00  0.00    -0.003 A 
ATOM     25  C   UNL     1      -4.512 -10.563  18.184  0.00  0.00    -0.000 A 
ATOM     26  C   UNL     1      -5.329 -10.509  18.290  0.00  0.00    -0.000 A 
ATOM     27  C   UNL     1      -5.821 -10.384  17.640  0.00  0.00    -0.000 A 
ATOM     28  C   UNL     1      -5.497 -10.313  16.884  0.00  0.00    -0.003 A 
BRANCH  26  29
ATOM     29  C   UNL     1      -5.653 -10.580  19.045  0.00  0.00    -0.000 A 
ATOM     30  C   UNL     1      -6.471 -10.543  19.148  0.00  0.00    -0.000 A 
ATOM     31  C   UNL     1      -6.794 -10.614  19.903  0.00  0.00    +0.000 A 
ATOM     32  C   UNL     1      -6.301 -10.722  20.556  0.00  0.00    +0.000 A 
ATOM     33  C   UNL     1      -5.483 -10.759  20.453  0.00  0.00    +0.000 A 
ATOM     34  C   UNL     1      -5.159 -10.688  19.697  0.00  0.00    -0.000 A 
ENDBRANCH  26  29
ENDBRANCH   1  23
ENDBRANCH   2   1
ENDBRANCH   3   2
TORSDOF 6
ENDMDL
MODEL 8
REMARK VINA RESULT:      -5.4     14.115     16.362
REMARK  Name = 
REMARK  6 active torsions:
REMARK  status: ('A' for Active; 'I' for Inactive)
REMARK    1  A    between atoms: C_1  and  N_2
REMARK    2  A    between atoms: C_1  and  C_23
REMARK    3  A    between atoms: N_2  and  C_3
REMARK    4  A    between atoms: C_7  and  N_11
REMARK    5  A    between atoms: C_14  and  C_18
REMARK    6  A    between atoms: C_26  and  C_29
REMARK                            x       y       z     vdW  Elec       q    Type
REMARK                         _______ _______ _______ _____ _____    ______ ____
ROOT
ATOM      3  C   UNL     1      -4.036 -10.627  14.125  0.00  0.00    +0.132 C 
ATOM      4  C   UNL     1      -4.754 -10.618  13.720  0.00  0.00    +0.162 C 
ATOM      5  O   UNL     1      -5.361 -10.620  14.279  0.00  0.00    -0.350 OA
ATOM      6  C   UNL     1      -5.018 -10.631  15.028  0.00  0.00    +0.166 C 
ATOM      7  C   UNL     1      -5.180 -10.640  15.837  0.00  0.00    +0.154 C 
ATOM      8  C   UNL     1      -4.462 -10.649  16.242  0.00  0.00    +0.166 C 
ATOM      9  O   UNL     1      -3.855 -10.647  15.683  0.00  0.00    -0.350 OA
ATOM     10  C   UNL     1      -4.199 -10.636  14.933  0.00  0.00    +0.162 C 
ENDROOT
BRANCH   7  11
ATOM     11  N   UNL     1      -5.931 -10.638  16.181  0.00  0.00    -0.200 NA
ATOM     12  C   UNL     1      -6.009 -10.666  17.002  0.00  0.00    +0.237 A 
ATOM     13  N   UNL     1      -6.758 -10.665  17.346  0.00  0.00    -0.209 NA
ATOM     14  C   UNL     1      -6.836 -10.693  18.167  0.00  0.00    +0.120 A 
ATOM     15  C   UNL     1      -6.164 -10.722  18.644  0.00  0.00    +0.043 A 
ATOM     16  C   UNL     1      -5.413 -10.723  18.300  0.00  0.00    +0.104 A 
ATOM     17  N   UNL     1      -5.336 -10.695  17.479  0.00  0.00    -0.211 NA
BRANCH  14  18
ATOM     18  C   UNL     1      -7.585 -10.692  18.510  0.00  0.00    +0.163 A 
ATOM     19  C   UNL     1      -7.749 -10.740  19.318  0.00  0.00    +0.042 A 
ATOM     20  C   UNL     1      -8.568 -10.720  19.414  0.00  0.00    +0.044 A 
ATOM     21  C   UNL     1      -8.910 -10.660  18.667  0.00  0.00    +0.180 A 
ATOM     22  O   UNL     1      -8.303 -10.642  18.108  0.00  0.00    -0.449 OA
ENDBRANCH  14  18
ENDBRANCH   7  11
BRANCH   3   2
ATOM      2  N   UNL     1      -3.286 -10.628  13.781  0.00  0.00    -0.210 NA
BRANCH   2   1
ATOM      1  C   UNL     1      -3.208 -10.614  12.960  0.00  0.00    +0.115 C 
BRANCH   1  23
ATOM     23  C   UNL     1      -2.549 -10.257  12.613  0.00  0.00    -0.005 A 
ATOM     24  C   UNL     1      -2.602  -9.947  11.851  0.00  0.00    -0.003 A 
ATOM     25  C   UNL     1      -1.944  -9.590  11.505  0.00  0.00    -0.000 A 
ATOM     26  C   UNL     1      -1.233  -9.544  11.921  0.00  0.00    -0.000 A 
ATOM     27  C   UNL     1      -1.180  -9.855  12.684  0.00  0.00    -0.000 A 
ATOM     28  C   UNL     1      -1.839 -10.212  13.030  0.00  0.00    -0.003 A 
BRANCH  26  29
ATOM     29  C   UNL     1      -0.574  -9.187  11.575  0.00  0.00    -0.000 A 
ATOM     30  C   UNL     1      -0.313  -8.453  11.845  0.00  0.00    -0.000 A 
ATOM     31  C   UNL     1       0.345  -8.096  11.499  0.00  0.00    +0.000 A 
ATOM     32  C   UNL     1       0.743  -8.474  10.883  0.00  0.00    +0.000 A 
ATOM     33  C   UNL     1       0.482  -9.209  10.613  0.00  0.00    +0.000 A 
ATOM     34  C   UNL     1      -0.176  -9.566  10.959  0.00  0.00    -0.000 A 
ENDBRANCH  26  29
ENDBRANCH   1  23
ENDBRANCH   2   1
ENDBRANCH   3   2
TORSDOF 6
ENDMDL
MODEL 9
REMARK VINA RESULT:      -5.0     16.300     16.966
REMARK  Name = 
REMARK  6 active torsions:
REMARK  status: ('A' for Active; 'I' for Inactive)
REMARK    1  A    between atoms: C_1  and  N_2
REMARK    2  A    between atoms: C_1  and  C_23
REMARK    3  A    between atoms: N_2  and  C_3
REMARK    4  A    between atoms: C_7  and  N_11
REMARK    5  A    between atoms: C_14  and  C_18
REMARK    6  A    between atoms: C_26  and  C_29
REMARK                            x       y       z     vdW  Elec       q    Type
REMARK                         _______ _______ _______ _____ _____    ______ ____
ROOT
ATOM      3  C   UNL     1      -6.746 -10.461  12.942  0.00  0.00    +0.132 C 
ATOM      4  C   UNL     1      -6.938 -10.333  13.733  0.00  0.00    +0.162 C 
ATOM      5  O   UNL     1      -6.242 -10.376  14.174  0.00  0.00    -0.350 OA
ATOM      6  C   UNL     1      -5.620 -10.529  13.655  0.00  0.00    +0.166 C 
ATOM      7  C   UNL     1      -4.805 -10.651  13.605  0.00  0.00    +0.154 C 
ATOM      8  C   UNL     1      -4.613 -10.778  12.813  0.00  0.00    +0.166 C 
ATOM      9  O   UNL     1      -5.309 -10.736  12.373  0.00  0.00    -0.350 OA
ATOM     10  C   UNL     1      -5.932 -10.582  12.893  0.00  0.00    +0.162 C 
ENDROOT
BRANCH   7  11
ATOM     11  N   UNL     1      -4.275 -10.646  14.238  0.00  0.00    -0.200 NA
ATOM     12  C   UNL     1      -3.468 -10.547  14.100  0.00  0.00    +0.237 A 
ATOM     13  N   UNL     1      -2.938 -10.542  14.731  0.00  0.00    -0.209 NA
ATOM     14  C   UNL     1      -2.131 -10.443  14.593  0.00  0.00    +0.120 A 
ATOM     15  C   UNL     1      -1.854 -10.350  13.822  0.00  0.00    +0.043 A 
ATOM     16  C   UNL     1      -2.384 -10.355  13.189  0.00  0.00    +0.104 A 
ATOM     17  N   UNL     1      -3.191 -10.454  13.328  0.00  0.00    -0.211 NA
BRANCH  14  18
ATOM     18  C   UNL     1      -1.601 -10.438  15.225  0.00  0.00    +0.163 A 
ATOM     19  C   UNL     1      -1.797 -10.522  16.022  0.00  0.00    +0.042 A 
ATOM     20  C   UNL     1      -1.099 -10.484  16.461  0.00  0.00    +0.044 A 
ATOM     21  C   UNL     1      -0.473 -10.376  15.935  0.00  0.00    +0.180 A 
ATOM     22  O   UNL     1      -0.784 -10.348  15.171  0.00  0.00    -0.449 OA
ENDBRANCH  14  18
ENDBRANCH   7  11
BRANCH   3   2
ATOM      2  N   UNL     1      -7.276 -10.466  12.309  0.00  0.00    -0.210 NA
BRANCH   2   1
ATOM      1  C   UNL     1      -7.772  -9.820  12.182  0.00  0.00    +0.115 C 
BRANCH   1  23
ATOM     23  C   UNL     1      -8.244  -9.789  11.505  0.00  0.00    -0.005 A 
ATOM     24  C   UNL     1      -8.178  -9.152  10.985  0.00  0.00    -0.003 A 
ATOM     25  C   UNL     1      -8.650  -9.121  10.309  0.00  0.00    -0.000 A 
ATOM     26  C   UNL     1      -9.187  -9.727  10.153  0.00  0.00    -0.000 A 
ATOM     27  C   UNL     1      -9.253 -10.364  10.672  0.00  0.00    -0.000 A 
ATOM     28  C   UNL     1      -8.781 -10.395  11.349  0.00  0.00    -0.003 A 
BRANCH  26  29
ATOM     29  C   UNL     1      -9.659  -9.696   9.476  0.00  0.00    -0.000 A 
ATOM     30  C   UNL     1      -9.567 -10.262   8.883  0.00  0.00    -0.000 A 
ATOM     31  C   UNL     1     -10.038 -10.231   8.207  0.00  0.00    +0.000 A 
ATOM     32  C   UNL     1     -10.602  -9.634   8.124  0.00  0.00    +0.000 A 
ATOM     33  C   UNL     1     -10.693  -9.068   8.716  0.00  0.00    +0.000 A 
ATOM     34  C   UNL     1     -10.222  -9.099   9.393  0.00  0.00    -0.000 A 
ENDBRANCH  26  29
ENDBRANCH   1  23
ENDBRANCH   2   1
ENDBRANCH   3   2
TORSDOF 6
ENDMDL
