MODEL 1
REMARK VINA RESULT:      -9.1      0.000      0.000
REMARK  Name = 
REMARK  5 active torsions:
REMARK  status: ('A' for Active; 'I' for Inactive)
REMARK    1  A    between atoms: O_2  and  C_3
REMARK    2  A    between atoms: C_6  and  C_9
REMARK    3  A    between atoms: N_14  and  C_15
REMARK    4  A    between atoms: C_19  and  N_23
REMARK    5  A    between atoms: C_24  and  C_26
REMARK                            x       y       z     vdW  Elec       q    Type
REMARK                         _______ _______ _______ _____ _____    ______ ____
ROOT
ATOM     15  C   UNL     1      -0.499   1.519  24.637  0.00  0.00    +0.154 C 
ATOM     16  C   UNL     1       0.002   2.050  25.020  0.00  0.00    +0.166 C 
ATOM     17  O   UNL     1       0.763   1.941  24.721  0.00  0.00    -0.350 OA
ATOM     18  C   UNL     1       0.732   1.344  24.154  0.00  0.00    +0.166 C 
ATOM     19  C   UNL     1       1.182   0.907  23.618  0.00  0.00    +0.155 C 
ATOM     20  C   UNL     1       0.680   0.377  23.234  0.00  0.00    +0.166 C 
ATOM     21  O   UNL     1      -0.080   0.486  23.533  0.00  0.00    -0.350 OA
ATOM     22  C   UNL     1      -0.049   1.083  24.101  0.00  0.00    +0.166 C 
ENDROOT
BRANCH  15  14
ATOM      9  C   UNL     1      -3.097   2.690  24.869  0.00  0.00    +0.086 A 
ATOM     10  C   UNL     1      -2.773   3.436  24.727  0.00  0.00    +0.040 A 
ATOM     11  C   UNL     1      -1.962   3.516  24.597  0.00  0.00    +0.103 A 
ATOM     12  N   UNL     1      -1.474   2.850  24.610  0.00  0.00    -0.211 NA
ATOM     13  C   UNL     1      -1.799   2.105  24.753  0.00  0.00    +0.237 A 
ATOM     14  N   UNL     1      -1.311   1.439  24.766  0.00  0.00    -0.200 NA
ATOM     31  N   UNL     1      -2.609   2.025  24.882  0.00  0.00    -0.212 NA
BRANCH   9   6
ATOM      3  C   UNL     1      -5.530   2.451  25.257  0.00  0.00    +0.139 A 
ATOM      4  C   UNL     1      -5.093   2.996  25.697  0.00  0.00    +0.037 A 
ATOM      5  C   UNL     1      -4.282   3.076  25.567  0.00  0.00    +0.005 A 
ATOM      6  C   UNL     1      -3.907   2.611  24.999  0.00  0.00    +0.018 A 
ATOM      7  C   UNL     1      -4.343   2.065  24.559  0.00  0.00    +0.005 A 
ATOM      8  C   UNL     1      -5.154   1.986  24.688  0.00  0.00    +0.037 A 
BRANCH   3   2
ATOM      1  C   UNL     1      -6.614   1.896  26.002  0.00  0.00    +0.252 C 
ATOM      2  O   UNL     1      -6.340   2.371  25.386  0.00  0.00    -0.471 OA
ENDBRANCH   3   2
ENDBRANCH   9   6
ENDBRANCH  15  14
BRANCH  19  23
ATOM     23  N   UNL     1       1.994   0.987  23.488  0.00  0.00    -0.196 NA
ATOM     24  C   UNL     1       2.388   0.454  22.997  0.00  0.00    +0.300 C 
ATOM     25  O   UNL     1       1.971  -0.159  22.636  0.00  0.00    -0.265 OA
BRANCH  24  26
ATOM     26  C   UNL     1       3.199   0.534  22.868  0.00  0.00    +0.200 A 
ATOM     27  C   UNL     1       3.784   0.011  23.121  0.00  0.00    +0.046 A 
ATOM     28  C   UNL     1       4.514   0.305  22.872  0.00  0.00    +0.044 A 
ATOM     29  C   UNL     1       4.379   1.009  22.466  0.00  0.00    +0.180 A 
ATOM     30  O   UNL     1       3.566   1.151  22.463  0.00  0.00    -0.446 OA
ENDBRANCH  24  26
ENDBRANCH  19  23
TORSDOF 5
ENDMDL
MODEL 2
REMARK VINA RESULT:      -8.5      1.171      7.072
REMARK  Name = 
REMARK  5 active torsions:
REMARK  status: ('A' for Active; 'I' for Inactive)
REMARK    1  A    between atoms: O_2  and  C_3
REMARK    2  A    between atoms: C_6  and  C_9
REMARK    3  A    between atoms: N_14  and  C_15
REMARK    4  A    between atoms: C_19  and  N_23
REMARK    5  A    between atoms: C_24  and  C_26
REMARK                            x       y       z     vdW  Elec       q    Type
REMARK                         _______ _______ _______ _____ _____    ______ ____
ROOT
ATOM     15  C   UNL     1      -0.528   1.056  24.272  0.00  0.00    +0.154 C 
ATOM     16  C   UNL     1      -0.982   0.367  24.280  0.00  0.00    +0.166 C 
ATOM     17  O   UNL     1      -1.776   0.586  24.333  0.00  0.00    -0.350 OA
ATOM     18  C   UNL     1      -1.812   1.409  24.357  0.00  0.00    +0.166 C 
ATOM     19  C   UNL     1      -2.325   2.054  24.405  0.00  0.00    +0.155 C 
ATOM     20  C   UNL     1      -1.871   2.743  24.396  0.00  0.00    +0.166 C 
ATOM     21  O   UNL     1      -1.077   2.524  24.343  0.00  0.00    -0.350 OA
ATOM     22  C   UNL     1      -1.041   1.700  24.319  0.00  0.00    +0.166 C 
ENDROOT
BRANCH  15  14
ATOM      9  C   UNL     1       1.919   0.253  23.031  0.00  0.00    +0.086 A 
ATOM     10  C   UNL     1       1.497  -0.223  22.507  0.00  0.00    +0.040 A 
ATOM     11  C   UNL     1       0.673  -0.261  22.555  0.00  0.00    +0.103 A 
ATOM     12  N   UNL     1       0.273   0.178  23.127  0.00  0.00    -0.211 NA
ATOM     13  C   UNL     1       0.696   0.655  23.652  0.00  0.00    +0.237 A 
ATOM     14  N   UNL     1       0.295   1.093  24.224  0.00  0.00    -0.200 NA
ATOM     31  N   UNL     1       1.518   0.692  23.604  0.00  0.00    -0.212 NA
BRANCH   9   6
ATOM      3  C   UNL     1       4.387   0.365  22.888  0.00  0.00    +0.139 A 
ATOM      4  C   UNL     1       3.931   1.020  22.678  0.00  0.00    +0.037 A 
ATOM      5  C   UNL     1       3.109   0.983  22.726  0.00  0.00    +0.005 A 
ATOM      6  C   UNL     1       2.741   0.291  22.983  0.00  0.00    +0.018 A 
ATOM      7  C   UNL     1       3.196  -0.364  23.193  0.00  0.00    +0.005 A 
ATOM      8  C   UNL     1       4.019  -0.327  23.145  0.00  0.00    +0.037 A 
BRANCH   3   2
ATOM      1  C   UNL     1       5.672   0.089  23.446  0.00  0.00    +0.252 C 
ATOM      2  O   UNL     1       5.209   0.402  22.840  0.00  0.00    -0.471 OA
ENDBRANCH   3   2
ENDBRANCH   9   6
ENDBRANCH  15  14
BRANCH  19  23
ATOM     23  N   UNL     1      -3.148   2.017  24.452  0.00  0.00    -0.196 NA
ATOM     24  C   UNL     1      -3.555   2.526  24.957  0.00  0.00    +0.300 C 
ATOM     25  O   UNL     1      -3.141   3.073  25.415  0.00  0.00    -0.265 OA
BRANCH  24  26
ATOM     26  C   UNL     1      -4.378   2.488  25.005  0.00  0.00    +0.200 A 
ATOM     27  C   UNL     1      -4.861   2.981  25.457  0.00  0.00    +0.046 A 
ATOM     28  C   UNL     1      -5.644   2.749  25.341  0.00  0.00    +0.044 A 
ATOM     29  C   UNL     1      -5.645   2.113  24.816  0.00  0.00    +0.180 A 
ATOM     30  O   UNL     1      -4.863   1.952  24.609  0.00  0.00    -0.446 OA
ENDBRANCH  24  26
ENDBRANCH  19  23
TORSDOF 5
ENDMDL
MODEL 3
REMARK VINA RESULT:      -7.2     15.648     17.270
REMARK  Name = 
REMARK  5 active torsions:
REMARK  status: ('A' for Active; 'I' for Inactive)
REMARK    1  A    between atoms: O_2  and  C_3
REMARK    2  A    between atoms: C_6  and  C_9
REMARK    3  A    between atoms: N_14  and  C_15
REMARK    4  A    between atoms: C_19  and  N_23
REMARK    5  A    between atoms: C_24  and  C_26
REMARK                            x       y       z     vdW  Elec       q    Type
REMARK                         _______ _______ _______ _____ _____    ______ ____
ROOT
ATOM     15  C   UNL     1      -4.994 -10.367  14.281  0.00  0.00    +0.154 C 
ATOM     16  C   UNL     1      -4.320 -10.685  14.633  0.00  0.00    +0.166 C 
ATOM     17  O   UNL     1      -4.469 -10.765  15.441  0.00  0.00    -0.350 OA
ATOM     18  C   UNL     1      -5.234 -10.496  15.588  0.00  0.00    +0.166 C 
ATOM     19  C   UNL     1      -5.799 -10.378  16.177  0.00  0.00    +0.155 C 
ATOM     20  C   UNL     1      -6.474 -10.059  15.824  0.00  0.00    +0.166 C 
ATOM     21  O   UNL     1      -6.325  -9.980  15.017  0.00  0.00    -0.350 OA
ATOM     22  C   UNL     1      -5.559 -10.250  14.870  0.00  0.00    +0.166 C 
ENDROOT
BRANCH  15  14
ATOM      9  C   UNL     1      -3.889 -10.132  11.655  0.00  0.00    +0.086 A 
ATOM     10  C   UNL     1      -3.151 -10.357  11.946  0.00  0.00    +0.040 A 
ATOM     11  C   UNL     1      -3.058 -10.528  12.748  0.00  0.00    +0.103 A 
ATOM     12  N   UNL     1      -3.703 -10.475  13.259  0.00  0.00    -0.211 NA
ATOM     13  C   UNL     1      -4.442 -10.249  12.968  0.00  0.00    +0.237 A 
ATOM     14  N   UNL     1      -5.088 -10.196  13.479  0.00  0.00    -0.200 NA
ATOM     31  N   UNL     1      -4.535 -10.079  12.167  0.00  0.00    -0.212 NA
BRANCH   9   6
ATOM      3  C   UNL     1      -4.168  -9.618   9.250  0.00  0.00    +0.139 A 
ATOM      4  C   UNL     1      -4.091 -10.402   9.499  0.00  0.00    +0.037 A 
ATOM      5  C   UNL     1      -3.998 -10.573  10.300  0.00  0.00    +0.005 A 
ATOM      6  C   UNL     1      -3.982  -9.961  10.854  0.00  0.00    +0.018 A 
ATOM      7  C   UNL     1      -4.059  -9.178  10.606  0.00  0.00    +0.005 A 
ATOM      8  C   UNL     1      -4.152  -9.007   9.804  0.00  0.00    +0.037 A 
BRANCH   3   2
ATOM      1  C   UNL     1      -5.016  -9.393   8.124  0.00  0.00    +0.252 C 
ATOM      2  O   UNL     1      -4.260  -9.448   8.449  0.00  0.00    -0.471 OA
ENDBRANCH   3   2
ENDBRANCH   9   6
ENDBRANCH  15  14
BRANCH  19  23
ATOM     23  N   UNL     1      -5.706 -10.549  16.979  0.00  0.00    -0.196 NA
ATOM     24  C   UNL     1      -6.254 -10.267  17.527  0.00  0.00    +0.300 C 
ATOM     25  O   UNL     1      -6.895  -9.813  17.274  0.00  0.00    -0.265 OA
BRANCH  24  26
ATOM     26  C   UNL     1      -6.161 -10.438  18.329  0.00  0.00    +0.200 A 
ATOM     27  C   UNL     1      -6.759 -10.668  18.848  0.00  0.00    +0.046 A 
ATOM     28  C   UNL     1      -6.421 -10.781  19.593  0.00  0.00    +0.044 A 
ATOM     29  C   UNL     1      -5.615 -10.621  19.533  0.00  0.00    +0.180 A 
ATOM     30  O   UNL     1      -5.454 -10.409  18.752  0.00  0.00    -0.446 OA
ENDBRANCH  24  26
ENDBRANCH  19  23
TORSDOF 5
ENDMDL
MODEL 4
REMARK VINA RESULT:      -7.0     15.351     16.284
REMARK  Name = 
REMARK  5 active torsions:
REMARK  status: ('A' for Active; 'I' for Inactive)
REMARK    1  A    between atoms: O_2  and  C_3
REMARK    2  A    between atoms: C_6  and  C_9
REMARK    3  A    between atoms: N_14  and  C_15
REMARK    4  A    between atoms: C_19  and  N_23
REMARK    5  A    between atoms: C_24  and  C_26
REMARK                            x       y       z     vdW  Elec       q    Type
REMARK                         _______ _______ _______ _____ _____    ______ ____
ROOT
ATOM     15  C   UNL     1      -5.548 -10.438  14.196  0.00  0.00    +0.154 C 
ATOM     16  C   UNL     1      -4.811 -10.781  14.061  0.00  0.00    +0.166 C 
ATOM     17  O   UNL     1      -4.575 -10.584  13.295  0.00  0.00    -0.350 OA
ATOM     18  C   UNL     1      -5.166 -10.119  12.958  0.00  0.00    +0.166 C 
ATOM     19  C   UNL     1      -5.387  -9.709  12.277  0.00  0.00    +0.155 C 
ATOM     20  C   UNL     1      -6.124  -9.365  12.413  0.00  0.00    +0.166 C 
ATOM     21  O   UNL     1      -6.360  -9.562  13.178  0.00  0.00    -0.350 OA
ATOM     22  C   UNL     1      -5.768 -10.028  13.515  0.00  0.00    +0.166 C 
ENDROOT
BRANCH  15  14
ATOM      9  C   UNL     1      -5.679 -10.424  17.052  0.00  0.00    +0.086 A 
ATOM     10  C   UNL     1      -4.864 -10.305  17.089  0.00  0.00    +0.040 A 
ATOM     11  C   UNL     1      -4.423 -10.249  16.393  0.00  0.00    +0.103 A 
ATOM     12  N   UNL     1      -4.798 -10.312  15.660  0.00  0.00    -0.211 NA
ATOM     13  C   UNL     1      -5.614 -10.431  15.624  0.00  0.00    +0.237 A 
ATOM     14  N   UNL     1      -5.989 -10.494  14.892  0.00  0.00    -0.200 NA
ATOM     31  N   UNL     1      -6.054 -10.487  16.319  0.00  0.00    -0.212 NA
BRANCH   9   6
ATOM      3  C   UNL     1      -7.000 -10.592  19.139  0.00  0.00    +0.139 A 
ATOM      4  C   UNL     1      -7.384 -10.539  18.410  0.00  0.00    +0.037 A 
ATOM      5  C   UNL     1      -6.944 -10.483  17.715  0.00  0.00    +0.005 A 
ATOM      6  C   UNL     1      -6.119 -10.480  17.747  0.00  0.00    +0.018 A 
ATOM      7  C   UNL     1      -5.735 -10.533  18.475  0.00  0.00    +0.005 A 
ATOM      8  C   UNL     1      -6.175 -10.589  19.171  0.00  0.00    +0.037 A 
BRANCH   3   2
ATOM      1  C   UNL     1      -8.253 -10.780  19.797  0.00  0.00    +0.252 C 
ATOM      2  O   UNL     1      -7.440 -10.648  19.834  0.00  0.00    -0.471 OA
ENDBRANCH   3   2
ENDBRANCH   9   6
ENDBRANCH  15  14
BRANCH  19  23
ATOM     23  N   UNL     1      -4.946  -9.652  11.581  0.00  0.00    -0.196 NA
ATOM     24  C   UNL     1      -5.047  -9.005  11.080  0.00  0.00    +0.300 C 
ATOM     25  O   UNL     1      -5.589  -8.414  11.274  0.00  0.00    -0.265 OA
BRANCH  24  26
ATOM     26  C   UNL     1      -4.607  -8.949  10.384  0.00  0.00    +0.200 A 
ATOM     27  C   UNL     1      -3.786  -9.004  10.325  0.00  0.00    +0.046 A 
ATOM     28  C   UNL     1      -3.581  -8.917   9.530  0.00  0.00    +0.044 A 
ATOM     29  C   UNL     1      -4.276  -8.808   9.099  0.00  0.00    +0.180 A 
ATOM     30  O   UNL     1      -4.909  -8.828   9.627  0.00  0.00    -0.446 OA
ENDBRANCH  24  26
ENDBRANCH  19  23
TORSDOF 5
ENDMDL
MODEL 5
REMARK VINA RESULT:      -6.9     16.687     17.689
REMARK  Name = 
REMARK  5 active torsions:
REMARK  status: ('A' for Active; 'I' for Inactive)
REMARK    1  A    between atoms: O_2  and  C_3
REMARK    2  A    between atoms: C_6  and  C_9
REMARK    3  A    between atoms: N_14  and  C_15
REMARK    4  A    between atoms: C_19  and  N_23
REMARK    5  A    between atoms: C_24  and  C_26
REMARK                            x       y       z     vdW  Elec       q    Type
REMARK                         _______ _______ _______ _____ _____    ______ ____
ROOT
ATOM     15  C   UNL     1      -4.501 -10.261  11.695  0.00  0.00    +0.154 C 
ATOM     16  C   UNL     1      -3.737 -10.154  11.405  0.00  0.00    +0.166 C 
ATOM     17  O   UNL     1      -3.211 -10.241  12.034  0.00  0.00    -0.350 OA
ATOM     18  C   UNL     1      -3.650 -10.402  12.713  0.00  0.00    +0.166 C 
ATOM     19  C   UNL     1      -3.598 -10.556  13.522  0.00  0.00    +0.155 C 
ATOM     20  C   UNL     1      -4.362 -10.663  13.812  0.00  0.00    +0.166 C 
ATOM     21  O   UNL     1      -4.888 -10.576  13.183  0.00  0.00    -0.350 OA
ATOM     22  C   UNL     1      -4.448 -10.415  12.503  0.00  0.00    +0.166 C 
ENDROOT
BRANCH  15  14
ATOM      9  C   UNL     1      -6.222  -8.842   9.907  0.00  0.00    +0.086 A 
ATOM     10  C   UNL     1      -5.690  -8.212   9.896  0.00  0.00    +0.040 A 
ATOM     11  C   UNL     1      -4.994  -8.251  10.337  0.00  0.00    +0.103 A 
ATOM     12  N   UNL     1      -4.829  -8.921  10.790  0.00  0.00    -0.211 NA
ATOM     13  C   UNL     1      -5.362  -9.552  10.801  0.00  0.00    +0.237 A 
ATOM     14  N   UNL     1      -5.198 -10.222  11.254  0.00  0.00    -0.200 NA
ATOM     31  N   UNL     1      -6.058  -9.512  10.360  0.00  0.00    -0.212 NA
BRANCH   9   6
ATOM      3  C   UNL     1      -8.310  -8.723   8.583  0.00  0.00    +0.139 A 
ATOM      4  C   UNL     1      -8.324  -8.559   9.392  0.00  0.00    +0.037 A 
ATOM      5  C   UNL     1      -7.628  -8.599   9.833  0.00  0.00    +0.005 A 
ATOM      6  C   UNL     1      -6.917  -8.802   9.466  0.00  0.00    +0.018 A 
ATOM      7  C   UNL     1      -6.903  -8.966   8.658  0.00  0.00    +0.005 A 
ATOM      8  C   UNL     1      -7.599  -8.926   8.216  0.00  0.00    +0.037 A 
BRANCH   3   2
ATOM      1  C   UNL     1      -9.671  -8.311   8.455  0.00  0.00    +0.252 C 
ATOM      2  O   UNL     1      -9.005  -8.683   8.142  0.00  0.00    -0.471 OA
ENDBRANCH   3   2
ENDBRANCH   9   6
ENDBRANCH  15  14
BRANCH  19  23
ATOM     23  N   UNL     1      -2.902 -10.596  13.963  0.00  0.00    -0.196 NA
ATOM     24  C   UNL     1      -2.935 -10.591  14.788  0.00  0.00    +0.300 C 
ATOM     25  O   UNL     1      -3.664 -10.548  15.171  0.00  0.00    -0.265 OA
BRANCH  24  26
ATOM     26  C   UNL     1      -2.239 -10.631  15.229  0.00  0.00    +0.200 A 
ATOM     27  C   UNL     1      -2.188 -10.697  16.050  0.00  0.00    +0.046 A 
ATOM     28  C   UNL     1      -1.389 -10.718  16.255  0.00  0.00    +0.044 A 
ATOM     29  C   UNL     1      -0.947 -10.665  15.561  0.00  0.00    +0.180 A 
ATOM     30  O   UNL     1      -1.472 -10.611  14.927  0.00  0.00    -0.446 OA
ENDBRANCH  24  26
ENDBRANCH  19  23
TORSDOF 5
ENDMDL
MODEL 6
REMARK VINA RESULT:      -6.8     15.554     16.375
REMARK  Name = 
REMARK  5 active torsions:
REMARK  status: ('A' for Active; 'I' for Inactive)
REMARK    1  A    between atoms: O_2  and  C_3
REMARK    2  A    between atoms: C_6  and  C_9
REMARK    3  A    between atoms: N_14  and  C_15
REMARK    4  A    between atoms: C_19  and  N_23
REMARK    5  A    between atoms: C_24  and  C_26
REMARK                            x       y       z     vdW  Elec       q    Type
REMARK                         _______ _______ _______ _____ _____    ______ ____
ROOT
ATOM     15  C   UNL     1      -6.430 -10.262  14.028  0.00  0.00    +0.154 C 
ATOM     16  C   UNL     1      -5.684 -10.590  14.156  0.00  0.00    +0.166 C 
ATOM     17  O   UNL     1      -5.224 -10.447  13.487  0.00  0.00    -0.350 OA
ATOM     18  C   UNL     1      -5.685 -10.030  12.945  0.00  0.00    +0.166 C 
ATOM     19  C   UNL     1      -5.687  -9.684  12.196  0.00  0.00    +0.155 C 
ATOM     20  C   UNL     1      -6.432  -9.356  12.068  0.00  0.00    +0.166 C 
ATOM     21  O   UNL     1      -6.892  -9.499  12.737  0.00  0.00    -0.350 OA
ATOM     22  C   UNL     1      -6.430  -9.916  13.279  0.00  0.00    +0.166 C 
ENDROOT
BRANCH  15  14
ATOM      9  C   UNL     1      -7.466  -9.880  16.664  0.00  0.00    +0.086 A 
ATOM     10  C   UNL     1      -6.716  -9.658  16.927  0.00  0.00    +0.040 A 
ATOM     11  C   UNL     1      -6.082  -9.642  16.399  0.00  0.00    +0.103 A 
ATOM     12  N   UNL     1      -6.197  -9.849  15.608  0.00  0.00    -0.211 NA
ATOM     13  C   UNL     1      -6.948 -10.071  15.346  0.00  0.00    +0.237 A 
ATOM     14  N   UNL     1      -7.064 -10.278  14.556  0.00  0.00    -0.200 NA
ATOM     31  N   UNL     1      -7.582 -10.087  15.874  0.00  0.00    -0.212 NA
BRANCH   9   6
ATOM      3  C   UNL     1      -9.367  -9.927  18.249  0.00  0.00    +0.139 A 
ATOM      4  C   UNL     1      -9.250  -9.270  17.762  0.00  0.00    +0.037 A 
ATOM      5  C   UNL     1      -8.617  -9.254  17.234  0.00  0.00    +0.005 A 
ATOM      6  C   UNL     1      -8.099  -9.895  17.192  0.00  0.00    +0.018 A 
ATOM      7  C   UNL     1      -8.215 -10.552  17.678  0.00  0.00    +0.005 A 
ATOM      8  C   UNL     1      -8.849 -10.567  18.206  0.00  0.00    +0.037 A 
BRANCH   3   2
ATOM      1  C   UNL     1      -9.969 -10.425  19.444  0.00  0.00    +0.252 C 
ATOM      2  O   UNL     1     -10.000  -9.942  18.776  0.00  0.00    -0.471 OA
ENDBRANCH   3   2
ENDBRANCH   9   6
ENDBRANCH  15  14
BRANCH  19  23
ATOM     23  N   UNL     1      -5.053  -9.668  11.668  0.00  0.00    -0.196 NA
ATOM     24  C   UNL     1      -5.020  -9.091  11.080  0.00  0.00    +0.300 C 
ATOM     25  O   UNL     1      -5.621  -8.529  11.018  0.00  0.00    -0.265 OA
BRANCH  24  26
ATOM     26  C   UNL     1      -4.386  -9.076  10.552  0.00  0.00    +0.200 A 
ATOM     27  C   UNL     1      -4.416  -8.831   9.765  0.00  0.00    +0.046 A 
ATOM     28  C   UNL     1      -3.659  -8.907   9.444  0.00  0.00    +0.044 A 
ATOM     29  C   UNL     1      -3.161  -9.197  10.034  0.00  0.00    +0.180 A 
ATOM     30  O   UNL     1      -3.610  -9.302  10.718  0.00  0.00    -0.446 OA
ENDBRANCH  24  26
ENDBRANCH  19  23
TORSDOF 5
ENDMDL
MODEL 7
REMARK VINA RESULT:      -5.9     15.774     16.715
REMARK  Name = 
REMARK  5 active torsions:
REMARK  status: ('A' for Active; 'I' for Inactive)
REMARK    1  A    between atoms: O_2  and  C_3
REMARK    2  A    between atoms: C_6  and  C_9
REMARK    3  A    between atoms: N_14  and  C_15
REMARK    4  A    between atoms: C_19  and  N_23
REMARK    5  A    between atoms: C_24  and  C_26
REMARK                            x       y       z     vdW  Elec       q    Type
REMARK                         _______ _______ _______ _____ _____    ______ ____
ROOT
ATOM     15  C   UNL     1      -7.354 -10.004  14.202  0.00  0.00    +0.154 C 
ATOM     16  C   UNL     1      -8.134  -9.894  13.958  0.00  0.00    +0.166 C 
ATOM     17  O   UNL     1      -8.122  -9.667  13.165  0.00  0.00    -0.350 OA
ATOM     18  C   UNL     1      -7.337  -9.637  12.919  0.00  0.00    +0.166 C 
ATOM     19  C   UNL     1      -6.843  -9.479  12.278  0.00  0.00    +0.155 C 
ATOM     20  C   UNL     1      -6.063  -9.589  12.522  0.00  0.00    +0.166 C 
ATOM     21  O   UNL     1      -6.074  -9.816  13.314  0.00  0.00    -0.350 OA
ATOM     22  C   UNL     1      -6.861  -9.846  13.560  0.00  0.00    +0.166 C 
ENDROOT
BRANCH  15  14
ATOM      9  C   UNL     1      -7.636  -9.868  17.044  0.00  0.00    +0.086 A 
ATOM     10  C   UNL     1      -8.265  -9.342  16.956  0.00  0.00    +0.040 A 
ATOM     11  C   UNL     1      -8.510  -9.113  16.201  0.00  0.00    +0.103 A 
ATOM     12  N   UNL     1      -8.125  -9.410  15.535  0.00  0.00    -0.211 NA
ATOM     13  C   UNL     1      -7.494  -9.936  15.623  0.00  0.00    +0.237 A 
ATOM     14  N   UNL     1      -7.109 -10.233  14.957  0.00  0.00    -0.200 NA
ATOM     31  N   UNL     1      -7.251 -10.164  16.377  0.00  0.00    -0.212 NA
BRANCH   9   6
ATOM      3  C   UNL     1      -6.903 -10.553  19.306  0.00  0.00    +0.139 A 
ATOM      4  C   UNL     1      -7.688 -10.661  19.076  0.00  0.00    +0.037 A 
ATOM      5  C   UNL     1      -7.932 -10.433  18.322  0.00  0.00    +0.005 A 
ATOM      6  C   UNL     1      -7.392 -10.096  17.797  0.00  0.00    +0.018 A 
ATOM      7  C   UNL     1      -6.607  -9.987  18.027  0.00  0.00    +0.005 A 
ATOM      8  C   UNL     1      -6.363 -10.216  18.781  0.00  0.00    +0.037 A 
BRANCH   3   2
ATOM      1  C   UNL     1      -5.862 -10.733  20.268  0.00  0.00    +0.252 C 
ATOM      2  O   UNL     1      -6.659 -10.781  20.060  0.00  0.00    -0.471 OA
ENDBRANCH   3   2
ENDBRANCH   9   6
ENDBRANCH  15  14
BRANCH  19  23
ATOM     23  N   UNL     1      -7.087  -9.250  11.523  0.00  0.00    -0.196 NA
ATOM     24  C   UNL     1      -6.533  -8.981  10.974  0.00  0.00    +0.300 C 
ATOM     25  O   UNL     1      -5.735  -8.941  11.179  0.00  0.00    -0.265 OA
BRANCH  24  26
ATOM     26  C   UNL     1      -6.778  -8.753  10.220  0.00  0.00    +0.200 A 
ATOM     27  C   UNL     1      -6.293  -8.669   9.558  0.00  0.00    +0.046 A 
ATOM     28  C   UNL     1      -6.765  -8.432   8.924  0.00  0.00    +0.044 A 
ATOM     29  C   UNL     1      -7.541  -8.369   9.195  0.00  0.00    +0.180 A 
ATOM     30  O   UNL     1      -7.549  -8.567   9.995  0.00  0.00    -0.446 OA
ENDBRANCH  24  26
ENDBRANCH  19  23
TORSDOF 5
ENDMDL
