MODEL 1
REMARK VINA RESULT:     -10.7      0.000      0.000
REMARK  Name = 
REMARK  4 active torsions:
REMARK  status: ('A' for Active; 'I' for Inactive)
REMARK    1  A    between atoms: O_2  and  C_3
REMARK    2  A    between atoms: C_3  and  C_4
REMARK    3  A    between atoms: C_4  and  N_5
REMARK    4  A    between atoms: N_17  and  C_18
REMARK                            x       y       z     vdW  Elec       q    Type
REMARK                         _______ _______ _______ _____ _____    ______ ____
ROOT
ATOM      5  N   UNL     1      -2.696   2.999  24.924  0.00  0.00    -0.272 N 
ATOM      6  C   UNL     1      -3.227   2.368  24.910  0.00  0.00    +0.124 C 
ATOM      7  C   UNL     1      -3.119   1.556  24.809  0.00  0.00    +0.117 C 
ATOM      8  N   UNL     1      -3.859   1.193  24.846  0.00  0.00    -0.258 N 
ATOM      9  C   UNL     1      -4.425   1.780  24.970  0.00  0.00    +0.126 C 
ATOM     10  C   UNL     1      -4.035   2.507  25.009  0.00  0.00    +0.155 C 
ATOM     11  O   UNL     1      -4.310   3.277  25.122  0.00  0.00    -0.343 OA
ATOM     12  C   UNL     1      -3.778   3.907  25.136  0.00  0.00    +0.227 C 
ATOM     13  C   UNL     1      -2.971   3.768  25.037  0.00  0.00    +0.256 C 
ATOM     14  O   UNL     1      -2.440   4.398  25.050  0.00  0.00    -0.272 OA
ATOM     15  C   UNL     1      -4.007   0.384  24.773  0.00  0.00    +0.328 C 
ATOM     16  O   UNL     1      -4.780   0.101  24.823  0.00  0.00    -0.250 OA
ATOM     17  N   UNL     1      -3.382  -0.139  24.650  0.00  0.00    -0.162 NA
ENDROOT
BRANCH  17  18
ATOM     18  C   UNL     1      -3.530  -0.948  24.577  0.00  0.00    +0.075 A 
ATOM     19  C   UNL     1      -3.890  -1.240  23.896  0.00  0.00    +0.019 A 
ATOM     20  C   UNL     1      -4.039  -2.049  23.823  0.00  0.00    +0.031 A 
ATOM     21  C   UNL     1      -3.827  -2.564  24.431  0.00  0.00    +0.140 A 
ATOM     22  F   UNL     1      -3.975  -3.372  24.357  0.00  0.00    -0.204 F 
ATOM     23  C   UNL     1      -3.466  -2.270  25.112  0.00  0.00    +0.031 A 
ATOM     24  C   UNL     1      -3.318  -1.462  25.185  0.00  0.00    +0.019 A 
ENDBRANCH  17  18
BRANCH   5   4
ATOM      4  C   UNL     1      -1.888   2.860  24.824  0.00  0.00    +0.126 C 
BRANCH   4   3
ATOM      3  C   UNL     1      -1.384   2.876  25.476  0.00  0.00    +0.164 C 
BRANCH   3   2
ATOM      1  C   UNL     1      -0.116   2.544  26.046  0.00  0.00    +0.174 C 
ATOM      2  O   UNL     1      -0.584   2.694  25.384  0.00  0.00    -0.349 OA
ENDBRANCH   3   2
ENDBRANCH   4   3
ENDBRANCH   5   4
TORSDOF 4
ENDMDL
MODEL 2
REMARK VINA RESULT:     -10.2      1.034      2.061
REMARK  Name = 
REMARK  4 active torsions:
REMARK  status: ('A' for Active; 'I' for Inactive)
REMARK    1  A    between atoms: O_2  and  C_3
REMARK    2  A    between atoms: C_3  and  C_4
REMARK    3  A    between atoms: C_4  and  N_5
REMARK    4  A    between atoms: N_17  and  C_18
REMARK                            x       y       z     vdW  Elec       q    Type
REMARK                         _______ _______ _______ _____ _____    ______ ____
ROOT
ATOM      5  N   UNL     1      -2.708   3.065  25.323  0.00  0.00    -0.272 N 
ATOM      6  C   UNL     1      -2.508   2.329  25.006  0.00  0.00    +0.124 C 
ATOM      7  C   UNL     1      -2.892   1.599  25.022  0.00  0.00    +0.117 C 
ATOM      8  N   UNL     1      -2.427   1.057  24.608  0.00  0.00    -0.258 N 
ATOM      9  C   UNL     1      -1.755   1.453  24.336  0.00  0.00    +0.126 C 
ATOM     10  C   UNL     1      -1.806   2.240  24.583  0.00  0.00    +0.155 C 
ATOM     11  O   UNL     1      -1.303   2.886  24.476  0.00  0.00    -0.343 OA
ATOM     12  C   UNL     1      -1.503   3.620  24.793  0.00  0.00    +0.227 C 
ATOM     13  C   UNL     1      -2.206   3.710  25.216  0.00  0.00    +0.256 C 
ATOM     14  O   UNL     1      -2.405   4.444  25.533  0.00  0.00    -0.272 OA
ATOM     15  C   UNL     1      -2.602   0.260  24.487  0.00  0.00    +0.328 C 
ATOM     16  O   UNL     1      -2.080  -0.215  24.059  0.00  0.00    -0.250 OA
ATOM     17  N   UNL     1      -3.297  -0.060  24.793  0.00  0.00    -0.162 NA
ENDROOT
BRANCH  17  18
ATOM     18  C   UNL     1      -3.472  -0.857  24.671  0.00  0.00    +0.075 A 
ATOM     19  C   UNL     1      -3.966  -1.081  24.050  0.00  0.00    +0.019 A 
ATOM     20  C   UNL     1      -4.141  -1.878  23.929  0.00  0.00    +0.031 A 
ATOM     21  C   UNL     1      -3.821  -2.451  24.429  0.00  0.00    +0.140 A 
ATOM     22  F   UNL     1      -3.996  -3.248  24.307  0.00  0.00    -0.204 F 
ATOM     23  C   UNL     1      -3.327  -2.227  25.050  0.00  0.00    +0.031 A 
ATOM     24  C   UNL     1      -3.152  -1.430  25.171  0.00  0.00    +0.019 A 
ENDBRANCH  17  18
BRANCH   5   4
ATOM      4  C   UNL     1      -3.411   3.155  25.747  0.00  0.00    +0.126 C 
BRANCH   4   3
ATOM      3  C   UNL     1      -4.069   3.496  25.386  0.00  0.00    +0.164 C 
BRANCH   3   2
ATOM      1  C   UNL     1      -5.461   3.817  25.403  0.00  0.00    +0.174 C 
ATOM      2  O   UNL     1      -4.796   3.501  25.775  0.00  0.00    -0.349 OA
ENDBRANCH   3   2
ENDBRANCH   4   3
ENDBRANCH   5   4
TORSDOF 4
ENDMDL
MODEL 3
REMARK VINA RESULT:      -9.9      2.444      4.789
REMARK  Name = 
REMARK  4 active torsions:
REMARK  status: ('A' for Active; 'I' for Inactive)
REMARK    1  A    between atoms: O_2  and  C_3
REMARK    2  A    between atoms: C_3  and  C_4
REMARK    3  A    between atoms: C_4  and  N_5
REMARK    4  A    between atoms: N_17  and  C_18
REMARK                            x       y       z     vdW  Elec       q    Type
REMARK                         _______ _______ _______ _____ _____    ______ ____
ROOT
ATOM      5  N   UNL     1      -3.011  -0.641  24.961  0.00  0.00    -0.272 N 
ATOM      6  C   UNL     1      -3.120   0.155  24.770  0.00  0.00    +0.124 C 
ATOM      7  C   UNL     1      -2.685   0.832  24.951  0.00  0.00    +0.117 C 
ATOM      8  N   UNL     1      -3.063   1.479  24.607  0.00  0.00    -0.258 N 
ATOM      9  C   UNL     1      -3.733   1.202  24.212  0.00  0.00    +0.126 C 
ATOM     10  C   UNL     1      -3.768   0.383  24.313  0.00  0.00    +0.155 C 
ATOM     11  O   UNL     1      -4.307  -0.184  24.048  0.00  0.00    -0.343 OA
ATOM     12  C   UNL     1      -4.197  -0.978  24.240  0.00  0.00    +0.227 C 
ATOM     13  C   UNL     1      -3.549  -1.207  24.696  0.00  0.00    +0.256 C 
ATOM     14  O   UNL     1      -3.439  -2.001  24.888  0.00  0.00    -0.272 OA
ATOM     15  C   UNL     1      -2.816   2.265  24.649  0.00  0.00    +0.328 C 
ATOM     16  O   UNL     1      -3.254   2.855  24.274  0.00  0.00    -0.250 OA
ATOM     17  N   UNL     1      -2.132   2.459  25.066  0.00  0.00    -0.162 NA
ENDROOT
BRANCH  17  18
ATOM     18  C   UNL     1      -1.885   3.245  25.108  0.00  0.00    +0.075 A 
ATOM     19  C   UNL     1      -1.223   3.493  24.683  0.00  0.00    +0.019 A 
ATOM     20  C   UNL     1      -0.976   4.279  24.725  0.00  0.00    +0.031 A 
ATOM     21  C   UNL     1      -1.391   4.817  25.193  0.00  0.00    +0.140 A 
ATOM     22  F   UNL     1      -1.143   5.603  25.235  0.00  0.00    -0.204 F 
ATOM     23  C   UNL     1      -2.052   4.569  25.618  0.00  0.00    +0.031 A 
ATOM     24  C   UNL     1      -2.300   3.783  25.575  0.00  0.00    +0.019 A 
ENDBRANCH  17  18
BRANCH   5   4
ATOM      4  C   UNL     1      -2.362  -0.869  25.418  0.00  0.00    +0.126 C 
BRANCH   4   3
ATOM      3  C   UNL     1      -1.712  -1.228  25.061  0.00  0.00    +0.164 C 
BRANCH   3   2
ATOM      1  C   UNL     1      -0.328  -1.581  25.115  0.00  0.00    +0.174 C 
ATOM      2  O   UNL     1      -1.028  -1.371  25.498  0.00  0.00    -0.349 OA
ENDBRANCH   3   2
ENDBRANCH   4   3
ENDBRANCH   5   4
TORSDOF 4
ENDMDL
MODEL 4
REMARK VINA RESULT:      -9.4      2.428      4.488
REMARK  Name = 
REMARK  4 active torsions:
REMARK  status: ('A' for Active; 'I' for Inactive)
REMARK    1  A    between atoms: O_2  and  C_3
REMARK    2  A    between atoms: C_3  and  C_4
REMARK    3  A    between atoms: C_4  and  N_5
REMARK    4  A    between atoms: N_17  and  C_18
REMARK                            x       y       z     vdW  Elec       q    Type
REMARK                         _______ _______ _______ _____ _____    ______ ____
ROOT
ATOM      5  N   UNL     1      -2.347  -1.389  24.682  0.00  0.00    -0.272 N 
ATOM      6  C   UNL     1      -3.023  -0.918  24.652  0.00  0.00    +0.124 C 
ATOM      7  C   UNL     1      -3.142  -0.113  24.788  0.00  0.00    +0.117 C 
ATOM      8  N   UNL     1      -3.943   0.050  24.675  0.00  0.00    -0.258 N 
ATOM      9  C   UNL     1      -4.319  -0.655  24.468  0.00  0.00    +0.126 C 
ATOM     10  C   UNL     1      -3.751  -1.253  24.454  0.00  0.00    +0.155 C 
ATOM     11  O   UNL     1      -3.801  -2.060  24.286  0.00  0.00    -0.343 OA
ATOM     12  C   UNL     1      -3.124  -2.530  24.317  0.00  0.00    +0.227 C 
ATOM     13  C   UNL     1      -2.397  -2.195  24.514  0.00  0.00    +0.256 C 
ATOM     14  O   UNL     1      -1.721  -2.666  24.544  0.00  0.00    -0.272 OA
ATOM     15  C   UNL     1      -4.304   0.787  24.754  0.00  0.00    +0.328 C 
ATOM     16  O   UNL     1      -5.115   0.865  24.623  0.00  0.00    -0.250 OA
ATOM     17  N   UNL     1      -3.855   1.445  24.965  0.00  0.00    -0.162 NA
ENDROOT
BRANCH  17  18
ATOM     18  C   UNL     1      -4.217   2.183  25.045  0.00  0.00    +0.075 A 
ATOM     19  C   UNL     1      -4.059   2.780  24.498  0.00  0.00    +0.019 A 
ATOM     20  C   UNL     1      -4.421   3.517  24.578  0.00  0.00    +0.031 A 
ATOM     21  C   UNL     1      -4.940   3.657  25.203  0.00  0.00    +0.140 A 
ATOM     22  F   UNL     1      -5.301   4.395  25.283  0.00  0.00    -0.204 F 
ATOM     23  C   UNL     1      -5.097   3.060  25.749  0.00  0.00    +0.031 A 
ATOM     24  C   UNL     1      -4.736   2.322  25.670  0.00  0.00    +0.019 A 
ENDBRANCH  17  18
BRANCH   5   4
ATOM      4  C   UNL     1      -1.618  -1.054  24.880  0.00  0.00    +0.126 C 
BRANCH   4   3
ATOM      3  C   UNL     1      -1.052  -0.924  24.295  0.00  0.00    +0.164 C 
BRANCH   3   2
ATOM      1  C   UNL     1       0.154  -0.284  23.873  0.00  0.00    +0.174 C 
ATOM      2  O   UNL     1      -0.357  -0.519  24.477  0.00  0.00    -0.349 OA
ENDBRANCH   3   2
ENDBRANCH   4   3
ENDBRANCH   5   4
TORSDOF 4
ENDMDL
