MODEL 1
REMARK VINA RESULT:     -11.5      0.000      0.000
REMARK  Name = 
REMARK  4 active torsions:
REMARK  status: ('A' for Active; 'I' for Inactive)
REMARK    1  A    between atoms: C_7  and  C_8
REMARK    2  A    between atoms: N_10  and  C_11
REMARK    3  A    between atoms: C_17  and  C_18
REMARK    4  A    between atoms: C_21  and  N_24
REMARK                            x       y       z     vdW  Elec       q    Type
REMARK                         _______ _______ _______ _____ _____    ______ ____
ROOT
ATOM     11  C   UNL     1      -4.398   1.898  25.076  0.00  0.00    +0.133 C 
ATOM     12  C   UNL     1      -4.991   2.466  25.143  0.00  0.00    +0.202 C 
ATOM     13  O   UNL     1      -4.878   3.276  25.249  0.00  0.00    -0.219 OA
ATOM     14  C   UNL     1      -5.719   2.082  25.086  0.00  0.00    +0.184 C 
ATOM     15  O   UNL     1      -6.461   2.441  25.124  0.00  0.00    -0.220 OA
ATOM     16  C   UNL     1      -5.575   1.276  24.983  0.00  0.00    +0.042 C 
ATOM     17  C   UNL     1      -4.758   1.162  24.977  0.00  0.00    +0.049 C 
ENDROOT
BRANCH  17  18
ATOM     18  C   UNL     1      -4.369   0.440  24.888  0.00  0.00    -0.001 A 
ATOM     19  C   UNL     1      -4.333   0.080  24.146  0.00  0.00    +0.000 A 
ATOM     20  C   UNL     1      -3.945  -0.642  24.057  0.00  0.00    +0.034 A 
ATOM     21  C   UNL     1      -3.593  -1.005  24.709  0.00  0.00    +0.132 A 
ATOM     22  N   UNL     1      -3.629  -0.645  25.451  0.00  0.00    -0.229 NA
ATOM     23  C   UNL     1      -4.017   0.077  25.540  0.00  0.00    +0.096 A 
BRANCH  21  24
ATOM     24  N   UNL     1      -3.204  -1.727  24.620  0.00  0.00    -0.288 N 
ATOM     25  C   UNL     1      -3.639  -2.427  24.579  0.00  0.00    +0.124 C 
ATOM     26  C   UNL     1      -3.250  -3.149  24.490  0.00  0.00    +0.164 C 
ATOM     27  O   UNL     1      -2.428  -3.172  24.442  0.00  0.00    -0.350 OA
ATOM     28  C   UNL     1      -1.992  -2.473  24.482  0.00  0.00    +0.164 C 
ATOM     29  C   UNL     1      -2.381  -1.750  24.571  0.00  0.00    +0.124 C 
ENDBRANCH  21  24
ENDBRANCH  17  18
BRANCH  11  10
ATOM      8  C   UNL     1      -3.246   2.598  24.599  0.00  0.00    +0.282 C 
ATOM      9  O   UNL     1      -3.720   3.014  24.067  0.00  0.00    -0.267 OA
ATOM     10  N   UNL     1      -3.585   2.040  25.104  0.00  0.00    -0.199 NA
BRANCH   8   7
ATOM      1  C   UNL     1      -2.101   2.434  23.227  0.00  0.00    +0.154 C 
ATOM      2  N   UNL     1      -1.908   2.665  23.995  0.00  0.00    -0.245 N 
ATOM      3  N   UNL     1      -1.154   2.860  24.267  0.00  0.00    -0.173 NA
ATOM      4  C   UNL     1      -1.215   3.056  25.066  0.00  0.00    +0.081 A 
ATOM      5  C   UNL     1      -0.593   3.287  25.557  0.00  0.00    +0.054 C 
ATOM      6  C   UNL     1      -2.006   2.982  25.287  0.00  0.00    +0.040 A 
ATOM      7  C   UNL     1      -2.435   2.740  24.626  0.00  0.00    +0.134 A 
ENDBRANCH   8   7
ENDBRANCH  11  10
TORSDOF 4
ENDMDL
MODEL 2
REMARK VINA RESULT:     -11.1      2.113      3.617
REMARK  Name = 
REMARK  4 active torsions:
REMARK  status: ('A' for Active; 'I' for Inactive)
REMARK    1  A    between atoms: C_7  and  C_8
REMARK    2  A    between atoms: N_10  and  C_11
REMARK    3  A    between atoms: C_17  and  C_18
REMARK    4  A    between atoms: C_21  and  N_24
REMARK                            x       y       z     vdW  Elec       q    Type
REMARK                         _______ _______ _______ _____ _____    ______ ____
ROOT
ATOM     11  C   UNL     1      -1.973   3.729  25.192  0.00  0.00    +0.133 C 
ATOM     12  C   UNL     1      -1.847   4.544  25.196  0.00  0.00    +0.202 C 
ATOM     13  O   UNL     1      -2.422   5.124  25.316  0.00  0.00    -0.219 OA
ATOM     14  C   UNL     1      -1.045   4.678  25.058  0.00  0.00    +0.184 C 
ATOM     15  O   UNL     1      -0.677   5.415  25.016  0.00  0.00    -0.220 OA
ATOM     16  C   UNL     1      -0.676   3.945  24.969  0.00  0.00    +0.042 C 
ATOM     17  C   UNL     1      -1.250   3.359  25.052  0.00  0.00    +0.049 C 
ENDROOT
BRANCH  17  18
ATOM     18  C   UNL     1      -1.122   2.545  25.004  0.00  0.00    -0.001 A 
ATOM     19  C   UNL     1      -1.046   2.098  25.694  0.00  0.00    +0.000 A 
ATOM     20  C   UNL     1      -0.918   1.285  25.645  0.00  0.00    +0.034 A 
ATOM     21  C   UNL     1      -0.868   0.918  24.908  0.00  0.00    +0.132 A 
ATOM     22  N   UNL     1      -0.945   1.365  24.219  0.00  0.00    -0.229 NA
ATOM     23  C   UNL     1      -1.072   2.179  24.267  0.00  0.00    +0.096 A 
BRANCH  21  24
ATOM     24  N   UNL     1      -0.741   0.105  24.860  0.00  0.00    -0.288 N 
ATOM     25  C   UNL     1      -0.255  -0.202  24.268  0.00  0.00    +0.124 C 
ATOM     26  C   UNL     1      -0.127  -1.016  24.220  0.00  0.00    +0.164 C 
ATOM     27  O   UNL     1      -0.486  -1.523  24.763  0.00  0.00    -0.350 OA
ATOM     28  C   UNL     1      -0.972  -1.217  25.355  0.00  0.00    +0.164 C 
ATOM     29  C   UNL     1      -1.099  -0.403  25.404  0.00  0.00    +0.124 C 
ENDBRANCH  21  24
ENDBRANCH  17  18
BRANCH  11  10
ATOM      8  C   UNL     1      -3.350   3.557  24.849  0.00  0.00    +0.282 C 
ATOM      9  O   UNL     1      -3.280   4.144  24.273  0.00  0.00    -0.267 OA
ATOM     10  N   UNL     1      -2.697   3.350  25.309  0.00  0.00    -0.199 NA
BRANCH   8   7
ATOM      1  C   UNL     1      -4.288   2.670  23.602  0.00  0.00    +0.154 C 
ATOM      2  N   UNL     1      -4.505   2.771  24.392  0.00  0.00    -0.245 N 
ATOM      3  N   UNL     1      -5.191   2.481  24.747  0.00  0.00    -0.173 NA
ATOM      4  C   UNL     1      -5.183   2.710  25.539  0.00  0.00    +0.081 A 
ATOM      5  C   UNL     1      -5.765   2.538  26.099  0.00  0.00    +0.054 C 
ATOM      6  C   UNL     1      -4.493   3.141  25.674  0.00  0.00    +0.040 A 
ATOM      7  C   UNL     1      -4.073   3.179  24.965  0.00  0.00    +0.134 A 
ENDBRANCH   8   7
ENDBRANCH  11  10
TORSDOF 4
ENDMDL
MODEL 3
REMARK VINA RESULT:     -11.0      1.691      3.008
REMARK  Name = 
REMARK  4 active torsions:
REMARK  status: ('A' for Active; 'I' for Inactive)
REMARK    1  A    between atoms: C_7  and  C_8
REMARK    2  A    between atoms: N_10  and  C_11
REMARK    3  A    between atoms: C_17  and  C_18
REMARK    4  A    between atoms: C_21  and  N_24
REMARK                            x       y       z     vdW  Elec       q    Type
REMARK                         _______ _______ _______ _____ _____    ______ ____
ROOT
ATOM     11  C   UNL     1      -1.554   2.010  25.375  0.00  0.00    +0.133 C 
ATOM     12  C   UNL     1      -0.920   2.509  25.543  0.00  0.00    +0.202 C 
ATOM     13  O   UNL     1      -0.968   3.316  25.708  0.00  0.00    -0.219 OA
ATOM     14  C   UNL     1      -0.229   2.059  25.519  0.00  0.00    +0.184 C 
ATOM     15  O   UNL     1       0.536   2.338  25.654  0.00  0.00    -0.220 OA
ATOM     16  C   UNL     1      -0.437   1.282  25.335  0.00  0.00    +0.042 C 
ATOM     17  C   UNL     1      -1.256   1.251  25.246  0.00  0.00    +0.049 C 
ENDROOT
BRANCH  17  18
ATOM     18  C   UNL     1      -1.699   0.581  25.061  0.00  0.00    -0.001 A 
ATOM     19  C   UNL     1      -2.141   0.204  25.647  0.00  0.00    +0.000 A 
ATOM     20  C   UNL     1      -2.584  -0.467  25.462  0.00  0.00    +0.034 A 
ATOM     21  C   UNL     1      -2.586  -0.761  24.691  0.00  0.00    +0.132 A 
ATOM     22  N   UNL     1      -2.143  -0.384  24.105  0.00  0.00    -0.229 NA
ATOM     23  C   UNL     1      -1.701   0.287  24.290  0.00  0.00    +0.096 A 
BRANCH  21  24
ATOM     24  N   UNL     1      -3.028  -1.431  24.506  0.00  0.00    -0.288 N 
ATOM     25  C   UNL     1      -2.730  -2.182  24.672  0.00  0.00    +0.124 C 
ATOM     26  C   UNL     1      -3.172  -2.853  24.487  0.00  0.00    +0.164 C 
ATOM     27  O   UNL     1      -3.914  -2.773  24.136  0.00  0.00    -0.350 OA
ATOM     28  C   UNL     1      -4.214  -2.023  23.970  0.00  0.00    +0.164 C 
ATOM     29  C   UNL     1      -3.771  -1.352  24.155  0.00  0.00    +0.124 C 
ENDBRANCH  21  24
ENDBRANCH  17  18
BRANCH  11  10
ATOM      8  C   UNL     1      -2.584   2.856  24.857  0.00  0.00    +0.282 C 
ATOM      9  O   UNL     1      -2.024   3.262  24.408  0.00  0.00    -0.267 OA
ATOM     10  N   UNL     1      -2.349   2.230  25.341  0.00  0.00    -0.199 NA
BRANCH   8   7
ATOM      1  C   UNL     1      -3.574   3.003  23.368  0.00  0.00    +0.154 C 
ATOM      2  N   UNL     1      -3.834   3.144  24.138  0.00  0.00    -0.245 N 
ATOM      3  N   UNL     1      -4.593   3.377  24.360  0.00  0.00    -0.173 NA
ATOM      4  C   UNL     1      -4.607   3.453  25.181  0.00  0.00    +0.081 A 
ATOM      5  C   UNL     1      -5.258   3.676  25.636  0.00  0.00    +0.054 C 
ATOM      6  C   UNL     1      -3.856   3.267  25.467  0.00  0.00    +0.040 A 
ATOM      7  C   UNL     1      -3.378   3.076  24.823  0.00  0.00    +0.134 A 
ENDBRANCH   8   7
ENDBRANCH  11  10
TORSDOF 4
ENDMDL
MODEL 4
REMARK VINA RESULT:     -10.8      1.558      4.201
REMARK  Name = 
REMARK  4 active torsions:
REMARK  status: ('A' for Active; 'I' for Inactive)
REMARK    1  A    between atoms: C_7  and  C_8
REMARK    2  A    between atoms: N_10  and  C_11
REMARK    3  A    between atoms: C_17  and  C_18
REMARK    4  A    between atoms: C_21  and  N_24
REMARK                            x       y       z     vdW  Elec       q    Type
REMARK                         _______ _______ _______ _____ _____    ______ ____
ROOT
ATOM     11  C   UNL     1      -2.731  -1.462  24.421  0.00  0.00    +0.133 C 
ATOM     12  C   UNL     1      -2.631  -2.280  24.383  0.00  0.00    +0.202 C 
ATOM     13  O   UNL     1      -1.934  -2.675  24.187  0.00  0.00    -0.219 OA
ATOM     14  C   UNL     1      -3.351  -2.633  24.575  0.00  0.00    +0.184 C 
ATOM     15  O   UNL     1      -3.501  -3.444  24.605  0.00  0.00    -0.220 OA
ATOM     16  C   UNL     1      -3.896  -2.033  24.732  0.00  0.00    +0.042 C 
ATOM     17  C   UNL     1      -3.513  -1.309  24.637  0.00  0.00    +0.049 C 
ENDROOT
BRANCH  17  18
ATOM     18  C   UNL     1      -3.851  -0.564  24.739  0.00  0.00    -0.001 A 
ATOM     19  C   UNL     1      -4.005  -0.087  24.083  0.00  0.00    +0.000 A 
ATOM     20  C   UNL     1      -4.343   0.658  24.186  0.00  0.00    +0.034 A 
ATOM     21  C   UNL     1      -4.527   0.927  24.943  0.00  0.00    +0.132 A 
ATOM     22  N   UNL     1      -4.374   0.450  25.599  0.00  0.00    -0.229 NA
ATOM     23  C   UNL     1      -4.036  -0.295  25.497  0.00  0.00    +0.096 A 
BRANCH  21  24
ATOM     24  N   UNL     1      -4.866   1.672  25.046  0.00  0.00    -0.288 N 
ATOM     25  C   UNL     1      -5.670   1.740  25.215  0.00  0.00    +0.124 C 
ATOM     26  C   UNL     1      -6.008   2.485  25.318  0.00  0.00    +0.164 C 
ATOM     27  O   UNL     1      -5.543   3.162  25.251  0.00  0.00    -0.350 OA
ATOM     28  C   UNL     1      -4.739   3.095  25.082  0.00  0.00    +0.164 C 
ATOM     29  C   UNL     1      -4.400   2.350  24.979  0.00  0.00    +0.124 C 
ENDBRANCH  21  24
ENDBRANCH  17  18
BRANCH  11  10
ATOM      8  C   UNL     1      -1.435  -0.918  24.680  0.00  0.00    +0.282 C 
ATOM      9  O   UNL     1      -1.300  -1.507  25.241  0.00  0.00    -0.267 OA
ATOM     10  N   UNL     1      -2.151  -0.895  24.270  0.00  0.00    -0.199 NA
BRANCH   8   7
ATOM      1  C   UNL     1      -0.823   0.301  25.846  0.00  0.00    +0.154 C 
ATOM      2  N   UNL     1      -0.573   0.209  25.065  0.00  0.00    -0.245 N 
ATOM      3  N   UNL     1       0.001   0.661  24.683  0.00  0.00    -0.173 NA
ATOM      4  C   UNL     1       0.075   0.380  23.912  0.00  0.00    +0.081 A 
ATOM      5  C   UNL     1       0.588   0.674  23.335  0.00  0.00    +0.054 C 
ATOM      6  C   UNL     1      -0.455  -0.245  23.816  0.00  0.00    +0.040 A 
ATOM      7  C   UNL     1      -0.855  -0.351  24.529  0.00  0.00    +0.134 A 
ENDBRANCH   8   7
ENDBRANCH  11  10
TORSDOF 4
ENDMDL
MODEL 5
REMARK VINA RESULT:     -10.7      1.650      3.976
REMARK  Name = 
REMARK  4 active torsions:
REMARK  status: ('A' for Active; 'I' for Inactive)
REMARK    1  A    between atoms: C_7  and  C_8
REMARK    2  A    between atoms: N_10  and  C_11
REMARK    3  A    between atoms: C_17  and  C_18
REMARK    4  A    between atoms: C_21  and  N_24
REMARK                            x       y       z     vdW  Elec       q    Type
REMARK                         _______ _______ _______ _____ _____    ______ ____
ROOT
ATOM     11  C   UNL     1      -4.282   1.369  24.614  0.00  0.00    +0.133 C 
ATOM     12  C   UNL     1      -5.030   1.675  24.775  0.00  0.00    +0.202 C 
ATOM     13  O   UNL     1      -5.736   1.248  24.785  0.00  0.00    -0.219 OA
ATOM     14  C   UNL     1      -4.949   2.481  24.926  0.00  0.00    +0.184 C 
ATOM     15  O   UNL     1      -5.560   3.004  25.112  0.00  0.00    -0.220 OA
ATOM     16  C   UNL     1      -4.150   2.675  24.857  0.00  0.00    +0.042 C 
ATOM     17  C   UNL     1      -3.737   1.987  24.664  0.00  0.00    +0.049 C 
ENDROOT
BRANCH  17  18
ATOM     18  C   UNL     1      -2.923   1.927  24.543  0.00  0.00    -0.001 A 
ATOM     19  C   UNL     1      -2.624   1.868  23.776  0.00  0.00    +0.000 A 
ATOM     20  C   UNL     1      -1.810   1.808  23.655  0.00  0.00    +0.034 A 
ATOM     21  C   UNL     1      -1.296   1.808  24.299  0.00  0.00    +0.132 A 
ATOM     22  N   UNL     1      -1.595   1.868  25.066  0.00  0.00    -0.229 NA
ATOM     23  C   UNL     1      -2.409   1.928  25.187  0.00  0.00    +0.096 A 
BRANCH  21  24
ATOM     24  N   UNL     1      -0.482   1.749  24.178  0.00  0.00    -0.288 N 
ATOM     25  C   UNL     1       0.004   2.401  24.316  0.00  0.00    +0.124 C 
ATOM     26  C   UNL     1       0.818   2.341  24.195  0.00  0.00    +0.164 C 
ATOM     27  O   UNL     1       1.146   1.630  23.936  0.00  0.00    -0.350 OA
ATOM     28  C   UNL     1       0.660   0.978  23.797  0.00  0.00    +0.164 C 
ATOM     29  C   UNL     1      -0.154   1.037  23.919  0.00  0.00    +0.124 C 
ENDBRANCH  21  24
ENDBRANCH  17  18
BRANCH  11  10
ATOM      8  C   UNL     1      -4.300  -0.016  24.967  0.00  0.00    +0.282 C 
ATOM      9  O   UNL     1      -4.667   0.172  25.682  0.00  0.00    -0.267 OA
ATOM     10  N   UNL     1      -4.107   0.583  24.433  0.00  0.00    -0.199 NA
BRANCH   8   7
ATOM      1  C   UNL     1      -3.399  -1.163  26.014  0.00  0.00    +0.154 C 
ATOM      2  N   UNL     1      -3.711  -1.329  25.268  0.00  0.00    -0.245 N 
ATOM      3  N   UNL     1      -3.664  -2.051  24.873  0.00  0.00    -0.173 NA
ATOM      4  C   UNL     1      -4.049  -1.970  24.148  0.00  0.00    +0.081 A 
ATOM      5  C   UNL     1      -4.135  -2.559  23.576  0.00  0.00    +0.054 C 
ATOM      6  C   UNL     1      -4.334  -1.198  24.095  0.00  0.00    +0.040 A 
ATOM      7  C   UNL     1      -4.126  -0.801  24.787  0.00  0.00    +0.134 A 
ENDBRANCH   8   7
ENDBRANCH  11  10
TORSDOF 4
ENDMDL
MODEL 6
REMARK VINA RESULT:     -10.7      1.773      5.003
REMARK  Name = 
REMARK  4 active torsions:
REMARK  status: ('A' for Active; 'I' for Inactive)
REMARK    1  A    between atoms: C_7  and  C_8
REMARK    2  A    between atoms: N_10  and  C_11
REMARK    3  A    between atoms: C_17  and  C_18
REMARK    4  A    between atoms: C_21  and  N_24
REMARK                            x       y       z     vdW  Elec       q    Type
REMARK                         _______ _______ _______ _____ _____    ______ ____
ROOT
ATOM     11  C   UNL     1      -1.393   0.403  24.223  0.00  0.00    +0.133 C 
ATOM     12  C   UNL     1      -0.604   0.249  24.039  0.00  0.00    +0.202 C 
ATOM     13  O   UNL     1      -0.277  -0.494  23.892  0.00  0.00    -0.219 OA
ATOM     14  C   UNL     1      -0.200   0.967  24.029  0.00  0.00    +0.184 C 
ATOM     15  O   UNL     1       0.603   1.070  23.869  0.00  0.00    -0.220 OA
ATOM     16  C   UNL     1      -0.739   1.566  24.206  0.00  0.00    +0.042 C 
ATOM     17  C   UNL     1      -1.477   1.218  24.327  0.00  0.00    +0.049 C 
ENDROOT
BRANCH  17  18
ATOM     18  C   UNL     1      -2.175   1.613  24.517  0.00  0.00    -0.001 A 
ATOM     19  C   UNL     1      -2.772   1.691  23.951  0.00  0.00    +0.000 A 
ATOM     20  C   UNL     1      -3.470   2.087  24.141  0.00  0.00    +0.034 A 
ATOM     21  C   UNL     1      -3.572   2.404  24.895  0.00  0.00    +0.132 A 
ATOM     22  N   UNL     1      -2.976   2.326  25.461  0.00  0.00    -0.229 NA
ATOM     23  C   UNL     1      -2.278   1.931  25.271  0.00  0.00    +0.096 A 
BRANCH  21  24
ATOM     24  N   UNL     1      -4.271   2.800  25.085  0.00  0.00    -0.288 N 
ATOM     25  C   UNL     1      -4.278   3.623  25.137  0.00  0.00    +0.124 C 
ATOM     26  C   UNL     1      -4.976   4.019  25.327  0.00  0.00    +0.164 C 
ATOM     27  O   UNL     1      -5.668   3.592  25.466  0.00  0.00    -0.350 OA
ATOM     28  C   UNL     1      -5.662   2.769  25.414  0.00  0.00    +0.164 C 
ATOM     29  C   UNL     1      -4.963   2.373  25.224  0.00  0.00    +0.124 C 
ENDBRANCH  21  24
ENDBRANCH  17  18
BRANCH  11  10
ATOM      8  C   UNL     1      -1.909  -0.793  24.813  0.00  0.00    +0.282 C 
ATOM      9  O   UNL     1      -1.222  -0.866  25.264  0.00  0.00    -0.267 OA
ATOM     10  N   UNL     1      -1.994  -0.158  24.292  0.00  0.00    -0.199 NA
BRANCH   8   7
ATOM      1  C   UNL     1      -2.777  -1.227  26.322  0.00  0.00    +0.154 C 
ATOM      2  N   UNL     1      -2.908  -1.554  25.576  0.00  0.00    -0.245 N 
ATOM      3  N   UNL     1      -3.462  -2.137  25.393  0.00  0.00    -0.173 NA
ATOM      4  C   UNL     1      -3.404  -2.298  24.586  0.00  0.00    +0.081 A 
ATOM      5  C   UNL     1      -3.857  -2.846  24.167  0.00  0.00    +0.054 C 
ATOM      6  C   UNL     1      -2.816  -1.813  24.271  0.00  0.00    +0.040 A 
ATOM      7  C   UNL     1      -2.509  -1.354  24.882  0.00  0.00    +0.134 A 
ENDBRANCH   8   7
ENDBRANCH  11  10
TORSDOF 4
ENDMDL
