MODEL 1
REMARK VINA RESULT:     -11.8      0.000      0.000
REMARK  Name = 
REMARK  5 active torsions:
REMARK  status: ('A' for Active; 'I' for Inactive)
REMARK    1  A    between atoms: C_4  and  C_21
REMARK    2  A    between atoms: C_6  and  C_7
REMARK    3  A    between atoms: C_14  and  C_15
REMARK    4  A    between atoms: C_15  and  N_16
REMARK    5  A    between atoms: N_16  and  S_17
REMARK                            x       y       z     vdW  Elec       q    Type
REMARK                         _______ _______ _______ _____ _____    ______ ____
ROOT
ATOM      7  C   UNL     1      -3.481   1.639  24.710  0.00  0.00    +0.056 C 
ATOM      8  C   UNL     1      -3.510   2.052  25.369  0.00  0.00    +0.078 C 
ATOM      9  N   UNL     1      -3.140   2.280  24.667  0.00  0.00    -0.272 NA
ATOM     10  C   UNL     1      -3.283   1.505  23.976  0.00  0.00    +0.072 C 
ATOM     11  C   UNL     1      -3.195   1.252  23.380  0.00  0.00    +0.018 C 
ATOM     12  C   UNL     1      -3.116   1.870  24.025  0.00  0.00    +0.010 C 
ATOM     13  C   UNL     1      -2.671   2.595  23.811  0.00  0.00    +0.018 C 
ATOM     14  C   UNL     1      -2.677   3.032  24.438  0.00  0.00    +0.077 C 
ENDROOT
BRANCH   7   6
ATOM      1  C   UNL     1      -5.239   1.345  24.928  0.00  0.00    +0.153 C 
ATOM      2  N   UNL     1      -4.661   0.767  24.809  0.00  0.00    -0.253 N 
ATOM      3  N   UNL     1      -4.790  -0.047  24.769  0.00  0.00    -0.174 NA
ATOM      4  C   UNL     1      -4.062  -0.415  24.645  0.00  0.00    +0.079 A 
ATOM      5  C   UNL     1      -3.484   0.172  24.608  0.00  0.00    +0.031 A 
ATOM      6  C   UNL     1      -3.854   0.902  24.709  0.00  0.00    +0.058 A 
BRANCH   4  21
ATOM     21  C   UNL     1      -3.936  -1.226  24.571  0.00  0.00    +0.042 C 
ATOM     22  C   UNL     1      -3.503  -1.630  25.144  0.00  0.00    +0.006 C 
ATOM     23  C   UNL     1      -3.377  -2.442  25.070  0.00  0.00    +0.000 C 
ATOM     24  C   UNL     1      -3.684  -2.850  24.422  0.00  0.00    +0.000 C 
ATOM     25  C   UNL     1      -4.117  -2.446  23.848  0.00  0.00    +0.000 C 
ATOM     26  C   UNL     1      -4.244  -1.634  23.922  0.00  0.00    +0.006 C 
ENDBRANCH   4  21
ENDBRANCH   7   6
BRANCH  14  15
ATOM     15  C   UNL     1      -2.416   3.756  24.733  0.00  0.00    +0.131 C 
BRANCH  15  16
ATOM     16  N   UNL     1      -1.621   3.863  24.923  0.00  0.00    -0.081 NA
BRANCH  16  17
ATOM     17  S   UNL     1      -1.316   4.625  25.004  0.00  0.00    +0.059 S 
ATOM     18  C   UNL     1      -1.010   5.387  25.085  0.00  0.00    +0.197 C 
ATOM     19  O   UNL     1      -1.960   4.835  25.474  0.00  0.00    -0.156 OA
ATOM     20  O   UNL     1      -0.670   4.416  24.534  0.00  0.00    -0.156 OA
ENDBRANCH  16  17
ENDBRANCH  15  16
ENDBRANCH  14  15
TORSDOF 5
ENDMDL
MODEL 2
REMARK VINA RESULT:     -11.3      2.626      5.066
REMARK  Name = 
REMARK  5 active torsions:
REMARK  status: ('A' for Active; 'I' for Inactive)
REMARK    1  A    between atoms: C_4  and  C_21
REMARK    2  A    between atoms: C_6  and  C_7
REMARK    3  A    between atoms: C_14  and  C_15
REMARK    4  A    between atoms: C_15  and  N_16
REMARK    5  A    between atoms: N_16  and  S_17
REMARK                            x       y       z     vdW  Elec       q    Type
REMARK                         _______ _______ _______ _____ _____    ______ ____
ROOT
ATOM      7  C   UNL     1      -3.490   1.441  24.735  0.00  0.00    +0.056 C 
ATOM      8  C   UNL     1      -3.693   0.992  25.337  0.00  0.00    +0.078 C 
ATOM      9  N   UNL     1      -3.624   0.750  24.551  0.00  0.00    -0.272 NA
ATOM     10  C   UNL     1      -3.336   1.590  23.993  0.00  0.00    +0.072 C 
ATOM     11  C   UNL     1      -3.178   1.867  23.423  0.00  0.00    +0.018 C 
ATOM     12  C   UNL     1      -3.424   1.197  23.966  0.00  0.00    +0.010 C 
ATOM     13  C   UNL     1      -3.547   0.416  23.584  0.00  0.00    +0.018 C 
ATOM     14  C   UNL     1      -3.750  -0.058  24.147  0.00  0.00    +0.077 C 
ENDROOT
BRANCH   7   6
ATOM      1  C   UNL     1      -4.678   2.673  25.278  0.00  0.00    +0.153 C 
ATOM      2  N   UNL     1      -3.874   2.801  25.143  0.00  0.00    -0.253 N 
ATOM      3  N   UNL     1      -3.474   3.517  25.234  0.00  0.00    -0.174 NA
ATOM      4  C   UNL     1      -2.682   3.394  25.041  0.00  0.00    +0.079 A 
ATOM      5  C   UNL     1      -2.592   2.601  24.830  0.00  0.00    +0.031 A 
ATOM      6  C   UNL     1      -3.328   2.235  24.894  0.00  0.00    +0.058 A 
BRANCH   4  21
ATOM     21  C   UNL     1      -2.085   3.963  25.056  0.00  0.00    +0.042 C 
ATOM     22  C   UNL     1      -1.294   3.732  25.028  0.00  0.00    +0.006 C 
ATOM     23  C   UNL     1      -0.698   4.302  25.042  0.00  0.00    +0.000 C 
ATOM     24  C   UNL     1      -0.893   5.103  25.085  0.00  0.00    +0.000 C 
ATOM     25  C   UNL     1      -1.684   5.333  25.113  0.00  0.00    +0.000 C 
ATOM     26  C   UNL     1      -2.281   4.764  25.098  0.00  0.00    +0.006 C 
ENDBRANCH   4  21
ENDBRANCH   7   6
BRANCH  14  15
ATOM     15  C   UNL     1      -3.959  -0.841  24.299  0.00  0.00    +0.131 C 
BRANCH  15  16
ATOM     16  N   UNL     1      -3.518  -1.457  23.974  0.00  0.00    -0.081 NA
BRANCH  16  17
ATOM     17  S   UNL     1      -3.663  -2.235  24.207  0.00  0.00    +0.059 S 
ATOM     18  C   UNL     1      -3.807  -3.013  24.441  0.00  0.00    +0.197 C 
ATOM     19  O   UNL     1      -4.391  -2.216  23.822  0.00  0.00    -0.156 OA
ATOM     20  O   UNL     1      -2.934  -2.254  24.593  0.00  0.00    -0.156 OA
ENDBRANCH  16  17
ENDBRANCH  15  16
ENDBRANCH  14  15
TORSDOF 5
ENDMDL
MODEL 3
REMARK VINA RESULT:     -10.4      1.870      2.255
REMARK  Name = 
REMARK  5 active torsions:
REMARK  status: ('A' for Active; 'I' for Inactive)
REMARK    1  A    between atoms: C_4  and  C_21
REMARK    2  A    between atoms: C_6  and  C_7
REMARK    3  A    between atoms: C_14  and  C_15
REMARK    4  A    between atoms: C_15  and  N_16
REMARK    5  A    between atoms: N_16  and  S_17
REMARK                            x       y       z     vdW  Elec       q    Type
REMARK                         _______ _______ _______ _____ _____    ______ ____
ROOT
ATOM      7  C   UNL     1      -1.356   0.914  24.570  0.00  0.00    +0.056 C 
ATOM      8  C   UNL     1      -1.356   1.380  23.947  0.00  0.00    +0.078 C 
ATOM      9  N   UNL     1      -1.211   1.609  24.726  0.00  0.00    -0.272 NA
ATOM     10  C   UNL     1      -1.285   0.748  25.321  0.00  0.00    +0.072 C 
ATOM     11  C   UNL     1      -1.258   0.458  25.905  0.00  0.00    +0.018 C 
ATOM     12  C   UNL     1      -1.212   1.146  25.332  0.00  0.00    +0.010 C 
ATOM     13  C   UNL     1      -1.025   1.929  25.684  0.00  0.00    +0.018 C 
ATOM     14  C   UNL     1      -1.016   2.419  25.099  0.00  0.00    +0.077 C 
ENDROOT
BRANCH   7   6
ATOM      1  C   UNL     1      -0.191  -0.313  23.967  0.00  0.00    +0.153 C 
ATOM      2  N   UNL     1      -0.980  -0.449  24.166  0.00  0.00    -0.253 N 
ATOM      3  N   UNL     1      -1.373  -1.174  24.123  0.00  0.00    -0.174 NA
ATOM      4  C   UNL     1      -2.150  -1.058  24.374  0.00  0.00    +0.079 A 
ATOM      5  C   UNL     1      -2.238  -0.262  24.571  0.00  0.00    +0.031 A 
ATOM      6  C   UNL     1      -1.515   0.114  24.443  0.00  0.00    +0.058 A 
BRANCH   4  21
ATOM     21  C   UNL     1      -2.736  -1.637  24.418  0.00  0.00    +0.042 C 
ATOM     22  C   UNL     1      -2.618  -2.309  24.882  0.00  0.00    +0.006 C 
ATOM     23  C   UNL     1      -3.204  -2.887  24.926  0.00  0.00    +0.000 C 
ATOM     24  C   UNL     1      -3.909  -2.794  24.507  0.00  0.00    +0.000 C 
ATOM     25  C   UNL     1      -4.027  -2.122  24.044  0.00  0.00    +0.000 C 
ATOM     26  C   UNL     1      -3.441  -1.544  23.999  0.00  0.00    +0.006 C 
ENDBRANCH   4  21
ENDBRANCH   7   6
BRANCH  14  15
ATOM     15  C   UNL     1      -0.899   3.214  24.913  0.00  0.00    +0.131 C 
BRANCH  15  16
ATOM     16  N   UNL     1      -1.160   3.802  25.430  0.00  0.00    -0.081 NA
BRANCH  16  17
ATOM     17  S   UNL     1      -1.203   4.585  25.176  0.00  0.00    +0.059 S 
ATOM     18  C   UNL     1      -1.246   5.369  24.922  0.00  0.00    +0.197 C 
ATOM     19  O   UNL     1      -0.419   4.547  24.923  0.00  0.00    -0.156 OA
ATOM     20  O   UNL     1      -1.987   4.624  25.429  0.00  0.00    -0.156 OA
ENDBRANCH  16  17
ENDBRANCH  15  16
ENDBRANCH  14  15
TORSDOF 5
ENDMDL
MODEL 4
REMARK VINA RESULT:     -10.4      2.839      5.353
REMARK  Name = 
REMARK  5 active torsions:
REMARK  status: ('A' for Active; 'I' for Inactive)
REMARK    1  A    between atoms: C_4  and  C_21
REMARK    2  A    between atoms: C_6  and  C_7
REMARK    3  A    between atoms: C_14  and  C_15
REMARK    4  A    between atoms: C_15  and  N_16
REMARK    5  A    between atoms: N_16  and  S_17
REMARK                            x       y       z     vdW  Elec       q    Type
REMARK                         _______ _______ _______ _____ _____    ______ ____
ROOT
ATOM      7  C   UNL     1      -2.136   1.004  24.738  0.00  0.00    +0.056 C 
ATOM      8  C   UNL     1      -2.062   0.470  25.300  0.00  0.00    +0.078 C 
ATOM      9  N   UNL     1      -2.551   0.416  24.637  0.00  0.00    -0.272 NA
ATOM     10  C   UNL     1      -2.418   1.294  24.081  0.00  0.00    +0.072 C 
ATOM     11  C   UNL     1      -2.558   1.665  23.561  0.00  0.00    +0.018 C 
ATOM     12  C   UNL     1      -2.618   0.943  24.090  0.00  0.00    +0.010 C 
ATOM     13  C   UNL     1      -3.170   0.314  23.825  0.00  0.00    +0.018 C 
ATOM     14  C   UNL     1      -3.127  -0.234  24.354  0.00  0.00    +0.077 C 
ENDROOT
BRANCH   7   6
ATOM      1  C   UNL     1      -0.342   1.091  24.759  0.00  0.00    +0.153 C 
ATOM      2  N   UNL     1      -0.860   1.731  24.818  0.00  0.00    -0.253 N 
ATOM      3  N   UNL     1      -0.644   2.523  24.897  0.00  0.00    -0.174 NA
ATOM      4  C   UNL     1      -1.334   2.973  24.936  0.00  0.00    +0.079 A 
ATOM      5  C   UNL     1      -1.977   2.459  24.882  0.00  0.00    +0.031 A 
ATOM      6  C   UNL     1      -1.684   1.691  24.808  0.00  0.00    +0.058 A 
BRANCH   4  21
ATOM     21  C   UNL     1      -1.375   3.793  25.016  0.00  0.00    +0.042 C 
ATOM     22  C   UNL     1      -1.999   4.137  25.431  0.00  0.00    +0.006 C 
ATOM     23  C   UNL     1      -2.038   4.957  25.511  0.00  0.00    +0.000 C 
ATOM     24  C   UNL     1      -1.454   5.433  25.176  0.00  0.00    +0.000 C 
ATOM     25  C   UNL     1      -0.830   5.089  24.761  0.00  0.00    +0.000 C 
ATOM     26  C   UNL     1      -0.790   4.269  24.681  0.00  0.00    +0.006 C 
ENDBRANCH   4  21
ENDBRANCH   7   6
BRANCH  14  15
ATOM     15  C   UNL     1      -3.425  -0.976  24.554  0.00  0.00    +0.131 C 
BRANCH  15  16
ATOM     16  N   UNL     1      -3.337  -1.610  24.034  0.00  0.00    -0.081 NA
BRANCH  16  17
ATOM     17  S   UNL     1      -3.603  -2.360  24.250  0.00  0.00    +0.059 S 
ATOM     18  C   UNL     1      -3.870  -3.111  24.466  0.00  0.00    +0.197 C 
ATOM     19  O   UNL     1      -2.850  -2.549  24.527  0.00  0.00    -0.156 OA
ATOM     20  O   UNL     1      -4.357  -2.172  23.972  0.00  0.00    -0.156 OA
ENDBRANCH  16  17
ENDBRANCH  15  16
ENDBRANCH  14  15
TORSDOF 5
ENDMDL
MODEL 5
REMARK VINA RESULT:      -9.6      2.741      4.010
REMARK  Name = 
REMARK  5 active torsions:
REMARK  status: ('A' for Active; 'I' for Inactive)
REMARK    1  A    between atoms: C_4  and  C_21
REMARK    2  A    between atoms: C_6  and  C_7
REMARK    3  A    between atoms: C_14  and  C_15
REMARK    4  A    between atoms: C_15  and  N_16
REMARK    5  A    between atoms: N_16  and  S_17
REMARK                            x       y       z     vdW  Elec       q    Type
REMARK                         _______ _______ _______ _____ _____    ______ ____
ROOT
ATOM      7  C   UNL     1      -1.910   1.527  23.810  0.00  0.00    +0.056 C 
ATOM      8  C   UNL     1      -1.359   2.000  23.530  0.00  0.00    +0.078 C 
ATOM      9  N   UNL     1      -1.253   1.220  23.776  0.00  0.00    -0.272 NA
ATOM     10  C   UNL     1      -2.186   0.866  24.097  0.00  0.00    +0.072 C 
ATOM     11  C   UNL     1      -2.559   0.388  24.341  0.00  0.00    +0.018 C 
ATOM     12  C   UNL     1      -1.798   0.762  24.050  0.00  0.00    +0.010 C 
ATOM     13  C   UNL     1      -1.084   0.252  24.074  0.00  0.00    +0.018 C 
ATOM     14  C   UNL     1      -0.514   0.684  23.804  0.00  0.00    +0.077 C 
ENDROOT
BRANCH   7   6
ATOM      1  C   UNL     1      -2.897   2.170  22.455  0.00  0.00    +0.153 C 
ATOM      2  N   UNL     1      -3.129   2.127  23.245  0.00  0.00    -0.253 N 
ATOM      3  N   UNL     1      -3.855   2.371  23.553  0.00  0.00    -0.174 NA
ATOM      4  C   UNL     1      -3.850   2.227  24.365  0.00  0.00    +0.079 A 
ATOM      5  C   UNL     1      -3.122   1.894  24.560  0.00  0.00    +0.031 A 
ATOM      6  C   UNL     1      -2.676   1.832  23.868  0.00  0.00    +0.058 A 
BRANCH   4  21
ATOM     21  C   UNL     1      -4.466   2.388  24.889  0.00  0.00    +0.042 C 
ATOM     22  C   UNL     1      -5.105   1.869  24.947  0.00  0.00    +0.006 C 
ATOM     23  C   UNL     1      -5.720   2.031  25.472  0.00  0.00    +0.000 C 
ATOM     24  C   UNL     1      -5.698   2.712  25.937  0.00  0.00    +0.000 C 
ATOM     25  C   UNL     1      -5.060   3.231  25.879  0.00  0.00    +0.000 C 
ATOM     26  C   UNL     1      -4.444   3.070  25.355  0.00  0.00    +0.006 C 
ENDBRANCH   4  21
ENDBRANCH   7   6
BRANCH  14  15
ATOM     15  C   UNL     1       0.293   0.672  23.636  0.00  0.00    +0.131 C 
BRANCH  15  16
ATOM     16  N   UNL     1       0.626   0.020  23.256  0.00  0.00    -0.081 NA
BRANCH  16  17
ATOM     17  S   UNL     1       1.379   0.077  22.925  0.00  0.00    +0.059 S 
ATOM     18  C   UNL     1       2.133   0.133  22.594  0.00  0.00    +0.197 C 
ATOM     19  O   UNL     1       1.635   0.511  23.578  0.00  0.00    -0.156 OA
ATOM     20  O   UNL     1       1.124  -0.358  22.272  0.00  0.00    -0.156 OA
ENDBRANCH  16  17
ENDBRANCH  15  16
ENDBRANCH  14  15
TORSDOF 5
ENDMDL
