MODEL 1
REMARK VINA RESULT:      -9.5      0.000      0.000
REMARK  Name = 
REMARK  6 active torsions:
REMARK  status: ('A' for Active; 'I' for Inactive)
REMARK    1  A    between atoms: C_5  and  S_8
REMARK    2  A    between atoms: S_8  and  N_11
REMARK    3  A    between atoms: N_11  and  C_12
REMARK    4  A    between atoms: C_12  and  C_13
REMARK    5  A    between atoms: C_15  and  C_16
REMARK    6  A    between atoms: C_16  and  C_17
REMARK                            x       y       z     vdW  Elec       q    Type
REMARK                         _______ _______ _______ _____ _____    ______ ____
ROOT
ATOM     13  C   UNL     1      -3.203  -0.441  24.861  0.00  0.00    +0.167 C 
ATOM     14  O   UNL     1      -2.485  -0.134  24.595  0.00  0.00    -0.351 OA
ATOM     15  C   UNL     1      -1.960  -0.762  24.492  0.00  0.00    +0.157 C 
ATOM     31  C   UNL     1      -2.354  -1.458  24.695  0.00  0.00    +0.212 C 
ATOM     32  O   UNL     1      -2.036  -2.219  24.673  0.00  0.00    -0.218 OA
ATOM     33  C   UNL     1      -3.122  -1.260  24.923  0.00  0.00    +0.213 C 
ATOM     34  O   UNL     1      -3.706  -1.788  25.169  0.00  0.00    -0.218 OA
ENDROOT
BRANCH  13  12
ATOM     12  C   UNL     1      -3.882  -0.007  25.035  0.00  0.00    +0.148 C 
BRANCH  12  11
ATOM     11  N   UNL     1      -4.185   0.526  24.482  0.00  0.00    -0.075 NA
BRANCH  11   8
ATOM      8  S   UNL     1      -4.511   1.240  24.732  0.00  0.00    +0.077 S 
ATOM      9  O   UNL     1      -4.143   1.628  24.103  0.00  0.00    -0.152 OA
ATOM     10  O   UNL     1      -4.878   0.852  25.361  0.00  0.00    -0.152 OA
BRANCH   8   5
ATOM      1  C   UNL     1      -5.816   4.100  25.735  0.00  0.00    +0.031 C 
ATOM      2  C   UNL     1      -5.490   3.386  25.485  0.00  0.00    -0.022 A 
ATOM      3  C   UNL     1      -5.925   2.688  25.549  0.00  0.00    -0.003 A 
ATOM      4  C   UNL     1      -5.599   1.973  25.299  0.00  0.00    +0.020 A 
ATOM      5  C   UNL     1      -4.838   1.956  24.983  0.00  0.00    +0.124 A 
ATOM      6  C   UNL     1      -4.401   2.653  24.918  0.00  0.00    +0.020 A 
ATOM      7  C   UNL     1      -4.728   3.368  25.169  0.00  0.00    -0.003 A 
ENDBRANCH   8   5
ENDBRANCH  11   8
ENDBRANCH  12  11
ENDBRANCH  13  12
BRANCH  15  16
ATOM     16  C   UNL     1      -1.180  -0.704  24.232  0.00  0.00    +0.117 C 
BRANCH  16  17
ATOM     17  C   UNL     1      -0.730  -0.038  24.420  0.00  0.00    +0.228 C 
ATOM     18  O   UNL     1      -1.010   0.504  24.975  0.00  0.00    -0.275 OA
ATOM     19  N   UNL     1      -0.002   0.085  24.053  0.00  0.00    -0.276 N 
ATOM     20  C   UNL     1       0.447   0.751  24.241  0.00  0.00    +0.115 C 
ATOM     21  C   UNL     1       1.176   0.874  23.874  0.00  0.00    +0.114 C 
ATOM     22  N   UNL     1       1.455   0.332  23.319  0.00  0.00    -0.290 N 
ATOM     23  C   UNL     1       1.006  -0.334  23.131  0.00  0.00    +0.114 C 
ATOM     24  C   UNL     1       0.277  -0.458  23.498  0.00  0.00    +0.115 C 
ATOM     25  C   UNL     1       2.184   0.455  22.952  0.00  0.00    +0.132 A 
ATOM     26  N   UNL     1       2.633   1.121  23.140  0.00  0.00    -0.229 NA
ATOM     27  C   UNL     1       3.362   1.244  22.773  0.00  0.00    +0.100 A 
ATOM     28  C   UNL     1       3.640   0.701  22.218  0.00  0.00    +0.021 A 
ATOM     29  C   UNL     1       3.192   0.035  22.030  0.00  0.00    +0.004 A 
ATOM     30  C   UNL     1       2.463  -0.088  22.397  0.00  0.00    +0.034 A 
ENDBRANCH  16  17
ENDBRANCH  15  16
TORSDOF 6
ENDMDL
MODEL 2
REMARK VINA RESULT:      -9.1      2.068      5.402
REMARK  Name = 
REMARK  6 active torsions:
REMARK  status: ('A' for Active; 'I' for Inactive)
REMARK    1  A    between atoms: C_5  and  S_8
REMARK    2  A    between atoms: S_8  and  N_11
REMARK    3  A    between atoms: N_11  and  C_12
REMARK    4  A    between atoms: C_12  and  C_13
REMARK    5  A    between atoms: C_15  and  C_16
REMARK    6  A    between atoms: C_16  and  C_17
REMARK                            x       y       z     vdW  Elec       q    Type
REMARK                         _______ _______ _______ _____ _____    ______ ____
ROOT
ATOM     13  C   UNL     1       0.025   0.160  24.091  0.00  0.00    +0.167 C 
ATOM     14  O   UNL     1      -0.321   0.851  24.379  0.00  0.00    -0.351 OA
ATOM     15  C   UNL     1       0.189   1.479  24.214  0.00  0.00    +0.157 C 
ATOM     31  C   UNL     1       0.849   1.176  23.824  0.00  0.00    +0.212 C 
ATOM     32  O   UNL     1       1.497   1.611  23.557  0.00  0.00    -0.218 OA
ATOM     33  C   UNL     1       0.748   0.361  23.747  0.00  0.00    +0.213 C 
ATOM     34  O   UNL     1       1.277  -0.162  23.391  0.00  0.00    -0.218 OA
ENDROOT
BRANCH  13  12
ATOM     12  C   UNL     1      -0.296  -0.599  24.137  0.00  0.00    +0.148 C 
BRANCH  12  11
ATOM     11  N   UNL     1      -0.752  -0.815  24.790  0.00  0.00    -0.075 NA
BRANCH  11   8
ATOM      8  S   UNL     1      -1.436  -1.262  24.685  0.00  0.00    +0.077 S 
ATOM      9  O   UNL     1      -1.840  -0.765  25.206  0.00  0.00    -0.152 OA
ATOM     10  O   UNL     1      -1.033  -1.758  24.164  0.00  0.00    -0.152 OA
BRANCH   8   5
ATOM      1  C   UNL     1      -4.178  -3.050  24.265  0.00  0.00    +0.031 C 
ATOM      2  C   UNL     1      -3.493  -2.603  24.370  0.00  0.00    -0.022 A 
ATOM      3  C   UNL     1      -2.762  -2.978  24.434  0.00  0.00    -0.003 A 
ATOM      4  C   UNL     1      -2.076  -2.531  24.539  0.00  0.00    +0.020 A 
ATOM      5  C   UNL     1      -2.123  -1.709  24.580  0.00  0.00    +0.124 A 
ATOM      6  C   UNL     1      -2.854  -1.333  24.515  0.00  0.00    +0.020 A 
ATOM      7  C   UNL     1      -3.540  -1.780  24.410  0.00  0.00    -0.003 A 
ENDBRANCH   8   5
ENDBRANCH  11   8
ENDBRANCH  12  11
ENDBRANCH  13  12
BRANCH  15  16
ATOM     16  C   UNL     1       0.060   2.271  24.406  0.00  0.00    +0.117 C 
BRANCH  16  17
ATOM     17  C   UNL     1      -0.279   2.470  25.132  0.00  0.00    +0.228 C 
ATOM     18  O   UNL     1       0.164   2.405  25.825  0.00  0.00    -0.275 OA
ATOM     19  N   UNL     1      -1.060   2.734  25.164  0.00  0.00    -0.276 N 
ATOM     20  C   UNL     1      -1.398   2.933  25.889  0.00  0.00    +0.115 C 
ATOM     21  C   UNL     1      -2.179   3.197  25.922  0.00  0.00    +0.114 C 
ATOM     22  N   UNL     1      -2.622   3.262  25.229  0.00  0.00    -0.290 N 
ATOM     23  C   UNL     1      -2.283   3.063  24.503  0.00  0.00    +0.114 C 
ATOM     24  C   UNL     1      -1.502   2.799  24.470  0.00  0.00    +0.115 C 
ATOM     25  C   UNL     1      -3.403   3.526  25.261  0.00  0.00    +0.132 A 
ATOM     26  N   UNL     1      -3.741   3.725  25.986  0.00  0.00    -0.229 NA
ATOM     27  C   UNL     1      -4.523   3.990  26.018  0.00  0.00    +0.100 A 
ATOM     28  C   UNL     1      -4.964   4.054  25.324  0.00  0.00    +0.021 A 
ATOM     29  C   UNL     1      -4.626   3.855  24.599  0.00  0.00    +0.004 A 
ATOM     30  C   UNL     1      -3.845   3.591  24.567  0.00  0.00    +0.034 A 
ENDBRANCH  16  17
ENDBRANCH  15  16
TORSDOF 6
ENDMDL
MODEL 3
REMARK VINA RESULT:      -9.1      3.369      5.133
REMARK  Name = 
REMARK  6 active torsions:
REMARK  status: ('A' for Active; 'I' for Inactive)
REMARK    1  A    between atoms: C_5  and  S_8
REMARK    2  A    between atoms: S_8  and  N_11
REMARK    3  A    between atoms: N_11  and  C_12
REMARK    4  A    between atoms: C_12  and  C_13
REMARK    5  A    between atoms: C_15  and  C_16
REMARK    6  A    between atoms: C_16  and  C_17
REMARK                            x       y       z     vdW  Elec       q    Type
REMARK                         _______ _______ _______ _____ _____    ______ ____
ROOT
ATOM     13  C   UNL     1      -4.623   3.365  25.570  0.00  0.00    +0.167 C 
ATOM     14  O   UNL     1      -4.395   2.648  25.233  0.00  0.00    -0.351 OA
ATOM     15  C   UNL     1      -5.070   2.179  25.149  0.00  0.00    +0.157 C 
ATOM     31  C   UNL     1      -5.714   2.608  25.434  0.00  0.00    +0.212 C 
ATOM     32  O   UNL     1      -6.497   2.349  25.455  0.00  0.00    -0.218 OA
ATOM     33  C   UNL     1      -5.439   3.341  25.694  0.00  0.00    +0.213 C 
ATOM     34  O   UNL     1      -5.897   3.943  26.021  0.00  0.00    -0.218 OA
ENDROOT
BRANCH  13  12
ATOM     12  C   UNL     1      -4.124   3.997  25.751  0.00  0.00    +0.148 C 
BRANCH  12  11
ATOM     11  N   UNL     1      -3.405   3.859  26.132  0.00  0.00    -0.075 NA
BRANCH  11   8
ATOM      8  S   UNL     1      -2.702   4.128  25.796  0.00  0.00    +0.077 S 
ATOM      9  O   UNL     1      -3.082   4.822  25.557  0.00  0.00    -0.152 OA
ATOM     10  O   UNL     1      -2.323   3.435  26.034  0.00  0.00    -0.152 OA
BRANCH   8   5
ATOM      1  C   UNL     1       0.113   5.205  24.452  0.00  0.00    +0.031 C 
ATOM      2  C   UNL     1      -0.590   4.936  24.787  0.00  0.00    -0.022 A 
ATOM      3  C   UNL     1      -0.689   4.133  24.950  0.00  0.00    -0.003 A 
ATOM      4  C   UNL     1      -1.393   3.864  25.287  0.00  0.00    +0.020 A 
ATOM      5  C   UNL     1      -1.998   4.397  25.460  0.00  0.00    +0.124 A 
ATOM      6  C   UNL     1      -1.900   5.200  25.297  0.00  0.00    +0.020 A 
ATOM      7  C   UNL     1      -1.196   5.470  24.961  0.00  0.00    -0.003 A 
ENDBRANCH   8   5
ENDBRANCH  11   8
ENDBRANCH  12  11
ENDBRANCH  13  12
BRANCH  15  16
ATOM     16  C   UNL     1      -5.094   1.417  24.836  0.00  0.00    +0.117 C 
BRANCH  16  17
ATOM     17  C   UNL     1      -4.508   1.167  24.311  0.00  0.00    +0.228 C 
ATOM     18  O   UNL     1      -4.257   1.668  23.705  0.00  0.00    -0.275 OA
ATOM     19  N   UNL     1      -4.174   0.417  24.391  0.00  0.00    -0.276 N 
ATOM     20  C   UNL     1      -3.589   0.168  23.867  0.00  0.00    +0.115 C 
ATOM     21  C   UNL     1      -3.255  -0.582  23.947  0.00  0.00    +0.114 C 
ATOM     22  N   UNL     1      -3.506  -1.083  24.553  0.00  0.00    -0.290 N 
ATOM     23  C   UNL     1      -4.092  -0.833  25.078  0.00  0.00    +0.114 C 
ATOM     24  C   UNL     1      -4.426  -0.083  24.997  0.00  0.00    +0.115 C 
ATOM     25  C   UNL     1      -3.172  -1.833  24.633  0.00  0.00    +0.132 A 
ATOM     26  N   UNL     1      -2.587  -2.082  24.109  0.00  0.00    -0.229 NA
ATOM     27  C   UNL     1      -2.253  -2.833  24.190  0.00  0.00    +0.100 A 
ATOM     28  C   UNL     1      -2.505  -3.333  24.795  0.00  0.00    +0.021 A 
ATOM     29  C   UNL     1      -3.090  -3.084  25.320  0.00  0.00    +0.004 A 
ATOM     30  C   UNL     1      -3.424  -2.333  25.239  0.00  0.00    +0.034 A 
ENDBRANCH  16  17
ENDBRANCH  15  16
TORSDOF 6
ENDMDL
MODEL 4
REMARK VINA RESULT:      -8.8      2.074      6.856
REMARK  Name = 
REMARK  6 active torsions:
REMARK  status: ('A' for Active; 'I' for Inactive)
REMARK    1  A    between atoms: C_5  and  S_8
REMARK    2  A    between atoms: S_8  and  N_11
REMARK    3  A    between atoms: N_11  and  C_12
REMARK    4  A    between atoms: C_12  and  C_13
REMARK    5  A    between atoms: C_15  and  C_16
REMARK    6  A    between atoms: C_16  and  C_17
REMARK                            x       y       z     vdW  Elec       q    Type
REMARK                         _______ _______ _______ _____ _____    ______ ____
ROOT
ATOM     13  C   UNL     1       0.261  -0.245  23.590  0.00  0.00    +0.167 C 
ATOM     14  O   UNL     1      -0.253   0.369  23.394  0.00  0.00    -0.351 OA
ATOM     15  C   UNL     1      -0.970   0.236  23.781  0.00  0.00    +0.157 C 
ATOM     31  C   UNL     1      -0.898  -0.462  24.216  0.00  0.00    +0.212 C 
ATOM     32  O   UNL     1      -1.484  -0.802  24.687  0.00  0.00    -0.218 OA
ATOM     33  C   UNL     1      -0.138  -0.759  24.098  0.00  0.00    +0.213 C 
ATOM     34  O   UNL     1       0.170  -1.448  24.430  0.00  0.00    -0.218 OA
ENDROOT
BRANCH  13  12
ATOM     12  C   UNL     1       1.038  -0.331  23.325  0.00  0.00    +0.148 C 
BRANCH  12  11
ATOM     11  N   UNL     1       1.448   0.321  23.030  0.00  0.00    -0.075 NA
BRANCH  11   8
ATOM      8  S   UNL     1       2.272   0.324  23.030  0.00  0.00    +0.077 S 
ATOM      9  O   UNL     1       2.270   0.952  23.566  0.00  0.00    -0.152 OA
ATOM     10  O   UNL     1       2.274  -0.303  22.494  0.00  0.00    -0.152 OA
BRANCH   8   5
ATOM      1  C   UNL     1       5.572   0.336  23.026  0.00  0.00    +0.031 C 
ATOM      2  C   UNL     1       4.748   0.333  23.027  0.00  0.00    -0.022 A 
ATOM      3  C   UNL     1       4.332   0.978  22.725  0.00  0.00    -0.003 A 
ATOM      4  C   UNL     1       3.507   0.975  22.726  0.00  0.00    +0.020 A 
ATOM      5  C   UNL     1       3.098   0.327  23.029  0.00  0.00    +0.124 A 
ATOM      6  C   UNL     1       3.513  -0.319  23.332  0.00  0.00    +0.020 A 
ATOM      7  C   UNL     1       4.338  -0.316  23.331  0.00  0.00    -0.003 A 
ENDBRANCH   8   5
ENDBRANCH  11   8
ENDBRANCH  12  11
ENDBRANCH  13  12
BRANCH  15  16
ATOM     16  C   UNL     1      -1.640   0.715  23.740  0.00  0.00    +0.117 C 
BRANCH  16  17
ATOM     17  C   UNL     1      -1.616   1.485  24.037  0.00  0.00    +0.228 C 
ATOM     18  O   UNL     1      -0.900   1.893  24.066  0.00  0.00    -0.275 OA
ATOM     19  N   UNL     1      -2.307   1.845  24.305  0.00  0.00    -0.276 N 
ATOM     20  C   UNL     1      -2.284   2.614  24.603  0.00  0.00    +0.115 C 
ATOM     21  C   UNL     1      -2.975   2.974  24.871  0.00  0.00    +0.114 C 
ATOM     22  N   UNL     1      -3.692   2.566  24.842  0.00  0.00    -0.290 N 
ATOM     23  C   UNL     1      -3.715   1.796  24.544  0.00  0.00    +0.114 C 
ATOM     24  C   UNL     1      -3.024   1.436  24.276  0.00  0.00    +0.115 C 
ATOM     25  C   UNL     1      -4.383   2.927  25.110  0.00  0.00    +0.132 A 
ATOM     26  N   UNL     1      -4.359   3.695  25.407  0.00  0.00    -0.229 NA
ATOM     27  C   UNL     1      -5.052   4.056  25.676  0.00  0.00    +0.100 A 
ATOM     28  C   UNL     1      -5.767   3.646  25.646  0.00  0.00    +0.021 A 
ATOM     29  C   UNL     1      -5.792   2.878  25.349  0.00  0.00    +0.004 A 
ATOM     30  C   UNL     1      -5.099   2.517  25.081  0.00  0.00    +0.034 A 
ENDBRANCH  16  17
ENDBRANCH  15  16
TORSDOF 6
ENDMDL
MODEL 5
REMARK VINA RESULT:      -8.7      2.457      4.150
REMARK  Name = 
REMARK  6 active torsions:
REMARK  status: ('A' for Active; 'I' for Inactive)
REMARK    1  A    between atoms: C_5  and  S_8
REMARK    2  A    between atoms: S_8  and  N_11
REMARK    3  A    between atoms: N_11  and  C_12
REMARK    4  A    between atoms: C_12  and  C_13
REMARK    5  A    between atoms: C_15  and  C_16
REMARK    6  A    between atoms: C_16  and  C_17
REMARK                            x       y       z     vdW  Elec       q    Type
REMARK                         _______ _______ _______ _____ _____    ______ ____
ROOT
ATOM     13  C   UNL     1      -1.589   3.242  25.373  0.00  0.00    +0.167 C 
ATOM     14  O   UNL     1      -1.508   2.421  25.382  0.00  0.00    -0.351 OA
ATOM     15  C   UNL     1      -0.711   2.244  25.501  0.00  0.00    +0.157 C 
ATOM     31  C   UNL     1      -0.299   2.956  25.566  0.00  0.00    +0.212 C 
ATOM     32  O   UNL     1       0.513   3.037  25.689  0.00  0.00    -0.218 OA
ATOM     33  C   UNL     1      -0.841   3.573  25.487  0.00  0.00    +0.213 C 
ATOM     34  O   UNL     1      -0.667   4.378  25.516  0.00  0.00    -0.218 OA
ENDROOT
BRANCH  13  12
ATOM     12  C   UNL     1      -2.293   3.659  25.268  0.00  0.00    +0.148 C 
BRANCH  12  11
ATOM     11  N   UNL     1      -2.789   3.480  24.633  0.00  0.00    -0.075 NA
BRANCH  11   8
ATOM      8  S   UNL     1      -3.552   3.201  24.772  0.00  0.00    +0.077 S 
ATOM      9  O   UNL     1      -3.478   2.683  24.132  0.00  0.00    -0.152 OA
ATOM     10  O   UNL     1      -3.625   3.718  25.410  0.00  0.00    -0.152 OA
BRANCH   8   5
ATOM      1  C   UNL     1      -6.607   2.085  25.326  0.00  0.00    +0.031 C 
ATOM      2  C   UNL     1      -5.844   2.363  25.187  0.00  0.00    -0.022 A 
ATOM      3  C   UNL     1      -5.619   3.107  25.466  0.00  0.00    -0.003 A 
ATOM      4  C   UNL     1      -4.855   3.386  25.327  0.00  0.00    +0.020 A 
ATOM      5  C   UNL     1      -4.316   2.922  24.910  0.00  0.00    +0.124 A 
ATOM      6  C   UNL     1      -4.540   2.178  24.632  0.00  0.00    +0.020 A 
ATOM      7  C   UNL     1      -5.304   1.899  24.770  0.00  0.00    -0.003 A 
ENDBRANCH   8   5
ENDBRANCH  11   8
ENDBRANCH  12  11
ENDBRANCH  13  12
BRANCH  15  16
ATOM     16  C   UNL     1      -0.384   1.489  25.548  0.00  0.00    +0.117 C 
BRANCH  16  17
ATOM     17  C   UNL     1      -0.403   0.989  24.891  0.00  0.00    +0.228 C 
ATOM     18  O   UNL     1       0.073   1.150  24.237  0.00  0.00    -0.275 OA
ATOM     19  N   UNL     1      -0.897   0.329  24.889  0.00  0.00    -0.276 N 
ATOM     20  C   UNL     1      -0.916  -0.170  24.232  0.00  0.00    +0.115 C 
ATOM     21  C   UNL     1      -1.411  -0.830  24.230  0.00  0.00    +0.114 C 
ATOM     22  N   UNL     1      -1.887  -0.992  24.884  0.00  0.00    -0.290 N 
ATOM     23  C   UNL     1      -1.868  -0.492  25.541  0.00  0.00    +0.114 C 
ATOM     24  C   UNL     1      -1.373   0.168  25.543  0.00  0.00    +0.115 C 
ATOM     25  C   UNL     1      -2.381  -1.652  24.881  0.00  0.00    +0.132 A 
ATOM     26  N   UNL     1      -2.400  -2.151  24.225  0.00  0.00    -0.229 NA
ATOM     27  C   UNL     1      -2.895  -2.811  24.223  0.00  0.00    +0.100 A 
ATOM     28  C   UNL     1      -3.371  -2.971  24.878  0.00  0.00    +0.021 A 
ATOM     29  C   UNL     1      -3.353  -2.473  25.534  0.00  0.00    +0.004 A 
ATOM     30  C   UNL     1      -2.857  -1.812  25.536  0.00  0.00    +0.034 A 
ENDBRANCH  16  17
ENDBRANCH  15  16
TORSDOF 6
ENDMDL
MODEL 6
REMARK VINA RESULT:      -8.3     18.172     19.640
REMARK  Name = 
REMARK  6 active torsions:
REMARK  status: ('A' for Active; 'I' for Inactive)
REMARK    1  A    between atoms: C_5  and  S_8
REMARK    2  A    between atoms: S_8  and  N_11
REMARK    3  A    between atoms: N_11  and  C_12
REMARK    4  A    between atoms: C_12  and  C_13
REMARK    5  A    between atoms: C_15  and  C_16
REMARK    6  A    between atoms: C_16  and  C_17
REMARK                            x       y       z     vdW  Elec       q    Type
REMARK                         _______ _______ _______ _____ _____    ______ ____
ROOT
ATOM     13  C   UNL     1      16.932  -5.736  25.338  0.00  0.00    +0.167 C 
ATOM     14  O   UNL     1      16.610  -5.744  26.097  0.00  0.00    -0.351 OA
ATOM     15  C   UNL     1      16.562  -6.529  26.345  0.00  0.00    +0.157 C 
ATOM     31  C   UNL     1      16.854  -7.007  25.739  0.00  0.00    +0.212 C 
ATOM     32  O   UNL     1      16.907  -7.830  25.753  0.00  0.00    -0.218 OA
ATOM     33  C   UNL     1      17.083  -6.516  25.116  0.00  0.00    +0.213 C 
ATOM     34  O   UNL     1      17.405  -6.763  24.399  0.00  0.00    -0.218 OA
ENDROOT
BRANCH  13  12
ATOM     12  C   UNL     1      17.078  -5.065  24.880  0.00  0.00    +0.148 C 
BRANCH  12  11
ATOM     11  N   UNL     1      16.659  -4.369  25.022  0.00  0.00    -0.075 NA
BRANCH  11   8
ATOM      8  S   UNL     1      16.749  -3.723  24.518  0.00  0.00    +0.077 S 
ATOM      9  O   UNL     1      17.405  -3.474  24.953  0.00  0.00    -0.152 OA
ATOM     10  O   UNL     1      16.093  -3.972  24.083  0.00  0.00    -0.152 OA
BRANCH   8   5
ATOM      1  C   UNL     1      17.107  -1.138  22.498  0.00  0.00    +0.031 C 
ATOM      2  C   UNL     1      17.018  -1.783  23.002  0.00  0.00    -0.022 A 
ATOM      3  C   UNL     1      16.547  -1.719  23.676  0.00  0.00    -0.003 A 
ATOM      4  C   UNL     1      16.457  -2.365  24.181  0.00  0.00    +0.020 A 
ATOM      5  C   UNL     1      16.839  -3.076  24.012  0.00  0.00    +0.124 A 
ATOM      6  C   UNL     1      17.310  -3.142  23.338  0.00  0.00    +0.020 A 
ATOM      7  C   UNL     1      17.400  -2.496  22.833  0.00  0.00    -0.003 A 
ENDBRANCH   8   5
ENDBRANCH  11   8
ENDBRANCH  12  11
ENDBRANCH  13  12
BRANCH  15  16
ATOM     16  C   UNL     1      16.272  -6.791  27.072  0.00  0.00    +0.117 C 
BRANCH  16  17
ATOM     17  C   UNL     1      16.458  -6.380  27.763  0.00  0.00    +0.228 C 
ATOM     18  O   UNL     1      17.196  -6.019  27.841  0.00  0.00    -0.275 OA
ATOM     19  N   UNL     1      15.908  -6.330  28.375  0.00  0.00    -0.276 N 
ATOM     20  C   UNL     1      16.094  -5.920  29.066  0.00  0.00    +0.115 C 
ATOM     21  C   UNL     1      15.543  -5.870  29.677  0.00  0.00    +0.114 C 
ATOM     22  N   UNL     1      14.806  -6.231  29.599  0.00  0.00    -0.290 N 
ATOM     23  C   UNL     1      14.619  -6.642  28.908  0.00  0.00    +0.114 C 
ATOM     24  C   UNL     1      15.170  -6.692  28.296  0.00  0.00    +0.115 C 
ATOM     25  C   UNL     1      14.255  -6.182  30.211  0.00  0.00    +0.132 A 
ATOM     26  N   UNL     1      14.441  -5.771  30.902  0.00  0.00    -0.229 NA
ATOM     27  C   UNL     1      13.890  -5.722  31.514  0.00  0.00    +0.100 A 
ATOM     28  C   UNL     1      13.153  -6.083  31.435  0.00  0.00    +0.021 A 
ATOM     29  C   UNL     1      12.966  -6.494  30.745  0.00  0.00    +0.004 A 
ATOM     30  C   UNL     1      13.517  -6.543  30.132  0.00  0.00    +0.034 A 
ENDBRANCH  16  17
ENDBRANCH  15  16
TORSDOF 6
ENDMDL
MODEL 7
REMARK VINA RESULT:      -8.1      2.704      4.697
REMARK  Name = 
REMARK  6 active torsions:
REMARK  status: ('A' for Active; 'I' for Inactive)
REMARK    1  A    between atoms: C_5  and  S_8
REMARK    2  A    between atoms: S_8  and  N_11
REMARK    3  A    between atoms: N_11  and  C_12
REMARK    4  A    between atoms: C_12  and  C_13
REMARK    5  A    between atoms: C_15  and  C_16
REMARK    6  A    between atoms: C_16  and  C_17
REMARK                            x       y       z     vdW  Elec       q    Type
REMARK                         _______ _______ _______ _____ _____    ______ ____
ROOT
ATOM     13  C   UNL     1      -5.239   1.655  25.050  0.00  0.00    +0.167 C 
ATOM     14  O   UNL     1      -4.605   2.182  25.057  0.00  0.00    -0.351 OA
ATOM     15  C   UNL     1      -4.884   2.916  25.313  0.00  0.00    +0.157 C 
ATOM     31  C   UNL     1      -5.692   2.842  25.464  0.00  0.00    +0.212 C 
ATOM     32  O   UNL     1      -6.193   3.441  25.730  0.00  0.00    -0.218 OA
ATOM     33  C   UNL     1      -5.912   2.063  25.301  0.00  0.00    +0.213 C 
ATOM     34  O   UNL     1      -6.669   1.747  25.377  0.00  0.00    -0.218 OA
ENDROOT
BRANCH  13  12
ATOM     12  C   UNL     1      -5.207   0.861  24.831  0.00  0.00    +0.148 C 
BRANCH  12  11
ATOM     11  N   UNL     1      -4.582   0.584  24.370  0.00  0.00    -0.075 NA
BRANCH  11   8
ATOM      8  S   UNL     1      -4.335  -0.199  24.436  0.00  0.00    +0.077 S 
ATOM      9  O   UNL     1      -5.100  -0.455  24.256  0.00  0.00    -0.152 OA
ATOM     10  O   UNL     1      -3.571   0.056  24.615  0.00  0.00    -0.152 OA
BRANCH   8   5
ATOM      1  C   UNL     1      -3.348  -3.337  24.700  0.00  0.00    +0.031 C 
ATOM      2  C   UNL     1      -3.595  -2.553  24.634  0.00  0.00    -0.022 A 
ATOM      3  C   UNL     1      -3.427  -2.016  25.236  0.00  0.00    -0.003 A 
ATOM      4  C   UNL     1      -3.674  -1.231  25.170  0.00  0.00    +0.020 A 
ATOM      5  C   UNL     1      -4.088  -0.985  24.502  0.00  0.00    +0.124 A 
ATOM      6  C   UNL     1      -4.256  -1.521  23.898  0.00  0.00    +0.020 A 
ATOM      7  C   UNL     1      -4.009  -2.306  23.964  0.00  0.00    -0.003 A 
ENDBRANCH   8   5
ENDBRANCH  11   8
ENDBRANCH  12  11
ENDBRANCH  13  12
BRANCH  15  16
ATOM     16  C   UNL     1      -4.435   3.602  25.401  0.00  0.00    +0.117 C 
BRANCH  16  17
ATOM     17  C   UNL     1      -3.815   3.759  24.881  0.00  0.00    +0.228 C 
ATOM     18  O   UNL     1      -3.971   4.096  24.144  0.00  0.00    -0.275 OA
ATOM     19  N   UNL     1      -3.039   3.581  25.097  0.00  0.00    -0.276 N 
ATOM     20  C   UNL     1      -2.419   3.739  24.577  0.00  0.00    +0.115 C 
ATOM     21  C   UNL     1      -1.643   3.561  24.793  0.00  0.00    +0.114 C 
ATOM     22  N   UNL     1      -1.487   3.224  25.530  0.00  0.00    -0.290 N 
ATOM     23  C   UNL     1      -2.108   3.066  26.050  0.00  0.00    +0.114 C 
ATOM     24  C   UNL     1      -2.883   3.245  25.834  0.00  0.00    +0.115 C 
ATOM     25  C   UNL     1      -0.711   3.046  25.746  0.00  0.00    +0.132 A 
ATOM     26  N   UNL     1      -0.091   3.204  25.225  0.00  0.00    -0.229 NA
ATOM     27  C   UNL     1       0.685   3.025  25.442  0.00  0.00    +0.100 A 
ATOM     28  C   UNL     1       0.840   2.689  26.179  0.00  0.00    +0.021 A 
ATOM     29  C   UNL     1       0.220   2.531  26.700  0.00  0.00    +0.004 A 
ATOM     30  C   UNL     1      -0.556   2.710  26.483  0.00  0.00    +0.034 A 
ENDBRANCH  16  17
ENDBRANCH  15  16
TORSDOF 6
ENDMDL
MODEL 8
REMARK VINA RESULT:      -8.1      2.180      5.935
REMARK  Name = 
REMARK  6 active torsions:
REMARK  status: ('A' for Active; 'I' for Inactive)
REMARK    1  A    between atoms: C_5  and  S_8
REMARK    2  A    between atoms: S_8  and  N_11
REMARK    3  A    between atoms: N_11  and  C_12
REMARK    4  A    between atoms: C_12  and  C_13
REMARK    5  A    between atoms: C_15  and  C_16
REMARK    6  A    between atoms: C_16  and  C_17
REMARK                            x       y       z     vdW  Elec       q    Type
REMARK                         _______ _______ _______ _____ _____    ______ ____
ROOT
ATOM     13  C   UNL     1      -0.347   0.985  24.289  0.00  0.00    +0.167 C 
ATOM     14  O   UNL     1      -1.075   1.361  24.196  0.00  0.00    -0.351 OA
ATOM     15  C   UNL     1      -0.937   2.174  24.149  0.00  0.00    +0.157 C 
ATOM     31  C   UNL     1      -0.124   2.299  24.214  0.00  0.00    +0.212 C 
ATOM     32  O   UNL     1       0.257   3.030  24.196  0.00  0.00    -0.218 OA
ATOM     33  C   UNL     1       0.241   1.564  24.300  0.00  0.00    +0.213 C 
ATOM     34  O   UNL     1       1.050   1.432  24.383  0.00  0.00    -0.218 OA
ENDROOT
BRANCH  13  12
ATOM     12  C   UNL     1      -0.227   0.171  24.358  0.00  0.00    +0.148 C 
BRANCH  12  11
ATOM     11  N   UNL     1      -0.514  -0.234  25.017  0.00  0.00    -0.075 NA
BRANCH  11   8
ATOM      8  S   UNL     1      -1.087  -0.818  24.925  0.00  0.00    +0.077 S 
ATOM      9  O   UNL     1      -0.702  -1.090  24.247  0.00  0.00    -0.152 OA
ATOM     10  O   UNL     1      -1.473  -0.547  25.602  0.00  0.00    -0.152 OA
BRANCH   8   5
ATOM      1  C   UNL     1      -3.384  -3.159  24.556  0.00  0.00    +0.031 C 
ATOM      2  C   UNL     1      -2.811  -2.574  24.648  0.00  0.00    -0.022 A 
ATOM      3  C   UNL     1      -3.026  -1.821  24.906  0.00  0.00    -0.003 A 
ATOM      4  C   UNL     1      -2.452  -1.236  24.998  0.00  0.00    +0.020 A 
ATOM      5  C   UNL     1      -1.662  -1.404  24.833  0.00  0.00    +0.124 A 
ATOM      6  C   UNL     1      -1.445  -2.157  24.575  0.00  0.00    +0.020 A 
ATOM      7  C   UNL     1      -2.019  -2.742  24.482  0.00  0.00    -0.003 A 
ENDBRANCH   8   5
ENDBRANCH  11   8
ENDBRANCH  12  11
ENDBRANCH  13  12
BRANCH  15  16
ATOM     16  C   UNL     1      -1.512   2.758  24.055  0.00  0.00    +0.117 C 
BRANCH  16  17
ATOM     17  C   UNL     1      -2.187   2.605  23.606  0.00  0.00    +0.228 C 
ATOM     18  O   UNL     1      -2.126   2.518  22.788  0.00  0.00    -0.275 OA
ATOM     19  N   UNL     1      -2.922   2.538  23.974  0.00  0.00    -0.276 N 
ATOM     20  C   UNL     1      -3.596   2.385  23.525  0.00  0.00    +0.115 C 
ATOM     21  C   UNL     1      -4.331   2.319  23.894  0.00  0.00    +0.114 C 
ATOM     22  N   UNL     1      -4.392   2.406  24.712  0.00  0.00    -0.290 N 
ATOM     23  C   UNL     1      -3.717   2.559  25.162  0.00  0.00    +0.114 C 
ATOM     24  C   UNL     1      -2.982   2.625  24.793  0.00  0.00    +0.115 C 
ATOM     25  C   UNL     1      -5.127   2.340  25.081  0.00  0.00    +0.132 A 
ATOM     26  N   UNL     1      -5.801   2.186  24.632  0.00  0.00    -0.229 NA
ATOM     27  C   UNL     1      -6.537   2.120  25.001  0.00  0.00    +0.100 A 
ATOM     28  C   UNL     1      -6.596   2.207  25.819  0.00  0.00    +0.021 A 
ATOM     29  C   UNL     1      -5.922   2.360  26.269  0.00  0.00    +0.004 A 
ATOM     30  C   UNL     1      -5.187   2.427  25.899  0.00  0.00    +0.034 A 
ENDBRANCH  16  17
ENDBRANCH  15  16
TORSDOF 6
ENDMDL
MODEL 9
REMARK VINA RESULT:      -7.7      2.176      5.793
REMARK  Name = 
REMARK  6 active torsions:
REMARK  status: ('A' for Active; 'I' for Inactive)
REMARK    1  A    between atoms: C_5  and  S_8
REMARK    2  A    between atoms: S_8  and  N_11
REMARK    3  A    between atoms: N_11  and  C_12
REMARK    4  A    between atoms: C_12  and  C_13
REMARK    5  A    between atoms: C_15  and  C_16
REMARK    6  A    between atoms: C_16  and  C_17
REMARK                            x       y       z     vdW  Elec       q    Type
REMARK                         _______ _______ _______ _____ _____    ______ ____
ROOT
ATOM     13  C   UNL     1      -1.925   3.231  25.106  0.00  0.00    +0.167 C 
ATOM     14  O   UNL     1      -2.462   2.613  25.015  0.00  0.00    -0.351 OA
ATOM     15  C   UNL     1      -3.189   2.859  25.317  0.00  0.00    +0.157 C 
ATOM     31  C   UNL     1      -3.101   3.631  25.595  0.00  0.00    +0.212 C 
ATOM     32  O   UNL     1      -3.691   4.091  25.942  0.00  0.00    -0.218 OA
ATOM     33  C   UNL     1      -2.320   3.861  25.465  0.00  0.00    +0.213 C 
ATOM     34  O   UNL     1      -1.991   4.592  25.659  0.00  0.00    -0.218 OA
ENDROOT
BRANCH  13  12
ATOM     12  C   UNL     1      -1.131   3.223  24.879  0.00  0.00    +0.148 C 
BRANCH  12  11
ATOM     11  N   UNL     1      -0.610   2.682  25.220  0.00  0.00    -0.075 NA
BRANCH  11   8
ATOM      8  S   UNL     1      -0.209   2.140  24.745  0.00  0.00    +0.077 S 
ATOM      9  O   UNL     1      -0.287   1.566  25.334  0.00  0.00    -0.152 OA
ATOM     10  O   UNL     1      -0.131   2.714  24.157  0.00  0.00    -0.152 OA
BRANCH   8   5
ATOM      1  C   UNL     1       1.397  -0.028  22.846  0.00  0.00    +0.031 C 
ATOM      2  C   UNL     1       0.996   0.514  23.320  0.00  0.00    -0.022 A 
ATOM      3  C   UNL     1       0.221   0.360  23.557  0.00  0.00    -0.003 A 
ATOM      4  C   UNL     1      -0.180   0.902  24.032  0.00  0.00    +0.020 A 
ATOM      5  C   UNL     1       0.193   1.598  24.270  0.00  0.00    +0.124 A 
ATOM      6  C   UNL     1       0.968   1.752  24.033  0.00  0.00    +0.020 A 
ATOM      7  C   UNL     1       1.370   1.210  23.558  0.00  0.00    -0.003 A 
ENDBRANCH   8   5
ENDBRANCH  11   8
ENDBRANCH  12  11
ENDBRANCH  13  12
BRANCH  15  16
ATOM     16  C   UNL     1      -3.882   2.413  25.336  0.00  0.00    +0.117 C 
BRANCH  16  17
ATOM     17  C   UNL     1      -4.129   2.002  24.664  0.00  0.00    +0.228 C 
ATOM     18  O   UNL     1      -4.438   2.415  24.020  0.00  0.00    -0.275 OA
ATOM     19  N   UNL     1      -4.067   1.180  24.636  0.00  0.00    -0.276 N 
ATOM     20  C   UNL     1      -4.313   0.771  23.964  0.00  0.00    +0.115 C 
ATOM     21  C   UNL     1      -4.251  -0.051  23.936  0.00  0.00    +0.114 C 
ATOM     22  N   UNL     1      -3.942  -0.464  24.580  0.00  0.00    -0.290 N 
ATOM     23  C   UNL     1      -3.696  -0.054  25.253  0.00  0.00    +0.114 C 
ATOM     24  C   UNL     1      -3.758   0.768  25.281  0.00  0.00    +0.115 C 
ATOM     25  C   UNL     1      -3.880  -1.286  24.552  0.00  0.00    +0.132 A 
ATOM     26  N   UNL     1      -4.127  -1.696  23.880  0.00  0.00    -0.229 NA
ATOM     27  C   UNL     1      -4.064  -2.518  23.853  0.00  0.00    +0.100 A 
ATOM     28  C   UNL     1      -3.755  -2.930  24.497  0.00  0.00    +0.021 A 
ATOM     29  C   UNL     1      -3.509  -2.521  25.169  0.00  0.00    +0.004 A 
ATOM     30  C   UNL     1      -3.571  -1.698  25.197  0.00  0.00    +0.034 A 
ENDBRANCH  16  17
ENDBRANCH  15  16
TORSDOF 6
ENDMDL
MODEL 10
REMARK VINA RESULT:      -7.6      1.816      2.705
REMARK  Name = 
REMARK  6 active torsions:
REMARK  status: ('A' for Active; 'I' for Inactive)
REMARK    1  A    between atoms: C_5  and  S_8
REMARK    2  A    between atoms: S_8  and  N_11
REMARK    3  A    between atoms: N_11  and  C_12
REMARK    4  A    between atoms: C_12  and  C_13
REMARK    5  A    between atoms: C_15  and  C_16
REMARK    6  A    between atoms: C_16  and  C_17
REMARK                            x       y       z     vdW  Elec       q    Type
REMARK                         _______ _______ _______ _____ _____    ______ ____
ROOT
ATOM     13  C   UNL     1      -2.904  -1.110  25.055  0.00  0.00    +0.167 C 
ATOM     14  O   UNL     1      -2.279  -0.573  25.078  0.00  0.00    -0.351 OA
ATOM     15  C   UNL     1      -1.573  -1.002  25.072  0.00  0.00    +0.157 C 
ATOM     31  C   UNL     1      -1.763  -1.805  25.044  0.00  0.00    +0.212 C 
ATOM     32  O   UNL     1      -1.226  -2.430  25.029  0.00  0.00    -0.218 OA
ATOM     33  C   UNL     1      -2.586  -1.872  25.034  0.00  0.00    +0.213 C 
ATOM     34  O   UNL     1      -3.015  -2.575  25.007  0.00  0.00    -0.218 OA
ENDROOT
BRANCH  13  12
ATOM     12  C   UNL     1      -3.707  -0.920  25.053  0.00  0.00    +0.148 C 
BRANCH  12  11
ATOM     11  N   UNL     1      -4.012  -0.422  24.470  0.00  0.00    -0.075 NA
BRANCH  11   8
ATOM      8  S   UNL     1      -4.373   0.288  24.682  0.00  0.00    +0.077 S 
ATOM      9  O   UNL     1      -4.648  -0.060  25.379  0.00  0.00    -0.152 OA
ATOM     10  O   UNL     1      -4.098   0.635  23.986  0.00  0.00    -0.152 OA
BRANCH   8   5
ATOM      1  C   UNL     1      -5.818   3.131  25.530  0.00  0.00    +0.031 C 
ATOM      2  C   UNL     1      -5.457   2.421  25.318  0.00  0.00    -0.022 A 
ATOM      3  C   UNL     1      -4.730   2.427  24.929  0.00  0.00    -0.003 A 
ATOM      4  C   UNL     1      -4.369   1.716  24.717  0.00  0.00    +0.020 A 
ATOM      5  C   UNL     1      -4.735   0.999  24.894  0.00  0.00    +0.124 A 
ATOM      6  C   UNL     1      -5.462   0.992  25.284  0.00  0.00    +0.020 A 
ATOM      7  C   UNL     1      -5.823   1.702  25.495  0.00  0.00    -0.003 A 
ENDBRANCH   8   5
ENDBRANCH  11   8
ENDBRANCH  12  11
ENDBRANCH  13  12
BRANCH  15  16
ATOM     16  C   UNL     1      -0.813  -0.684  25.090  0.00  0.00    +0.117 C 
BRANCH  16  17
ATOM     17  C   UNL     1      -0.550  -0.206  24.470  0.00  0.00    +0.228 C 
ATOM     18  O   UNL     1      -0.272  -0.551  23.773  0.00  0.00    -0.275 OA
ATOM     19  N   UNL     1      -0.565   0.615  24.547  0.00  0.00    -0.276 N 
ATOM     20  C   UNL     1      -0.302   1.092  23.928  0.00  0.00    +0.115 C 
ATOM     21  C   UNL     1      -0.317   1.913  24.005  0.00  0.00    +0.114 C 
ATOM     22  N   UNL     1      -0.594   2.257  24.701  0.00  0.00    -0.290 N 
ATOM     23  C   UNL     1      -0.857   1.779  25.321  0.00  0.00    +0.114 C 
ATOM     24  C   UNL     1      -0.842   0.958  25.244  0.00  0.00    +0.115 C 
ATOM     25  C   UNL     1      -0.609   3.078  24.778  0.00  0.00    +0.132 A 
ATOM     26  N   UNL     1      -0.346   3.556  24.159  0.00  0.00    -0.229 NA
ATOM     27  C   UNL     1      -0.361   4.377  24.237  0.00  0.00    +0.100 A 
ATOM     28  C   UNL     1      -0.639   4.720  24.933  0.00  0.00    +0.021 A 
ATOM     29  C   UNL     1      -0.901   4.244  25.553  0.00  0.00    +0.004 A 
ATOM     30  C   UNL     1      -0.886   3.422  25.475  0.00  0.00    +0.034 A 
ENDBRANCH  16  17
ENDBRANCH  15  16
TORSDOF 6
ENDMDL
