REMARK  Name = 
REMARK  11 active torsions:
REMARK  status: ('A' for Active; 'I' for Inactive)
REMARK    1  A    between atoms: C_2  and  O_3
REMARK    2  A    between atoms: O_3  and  C_4
REMARK    3  A    between atoms: C_4  and  C_6
REMARK    4  A    between atoms: C_10  and  N_11
REMARK    5  A    between atoms: C_12  and  O_14
REMARK    6  A    between atoms: O_14  and  C_15
REMARK    7  A    between atoms: C_19  and  N_23
REMARK    8  A    between atoms: N_23  and  S_24
REMARK    9  A    between atoms: S_24  and  C_27
REMARK   10  A    between atoms: C_29  and  O_30
REMARK   11  A    between atoms: C_34  and  O_35
REMARK                            x       y       z     vdW  Elec       q    Type
REMARK                         _______ _______ _______ _____ _____    ______ ____
ROOT
ATOM     15  C   UNL     1       1.270  -0.922   0.000  0.00  0.00    +0.229 C 
ATOM     16  C   UNL     1       0.785  -0.255   0.000  0.00  0.00    +0.188 C 
ATOM     17  O   UNL     1       1.270   0.412   0.000  0.00  0.00    -0.348 OA
ATOM     18  C   UNL     1       2.054   0.158   0.000  0.00  0.00    +0.166 C 
ATOM     19  C   UNL     1       2.839   0.412   0.000  0.00  0.00    +0.157 C 
ATOM     20  C   UNL     1       3.324  -0.255   0.000  0.00  0.00    +0.164 C 
ATOM     21  O   UNL     1       2.839  -0.922   0.000  0.00  0.00    -0.348 OA
ATOM     22  C   UNL     1       2.054  -0.667   0.000  0.00  0.00    +0.186 C 
ENDROOT
BRANCH  15  14
ATOM     14  O   UNL     1       1.015  -1.707   0.000  0.00  0.00    -0.432 OA
BRANCH  14  12
ATOM     11  N   UNL     1      -0.047  -2.663   0.000  0.00  0.00    -0.142 NA
ATOM     12  C   UNL     1       0.208  -1.879   0.000  0.00  0.00    +0.425 C 
ATOM     13  O   UNL     1      -0.344  -1.265   0.000  0.00  0.00    -0.224 OA
BRANCH  11  10
ATOM      6  C   UNL     1      -1.916  -3.791   0.000  0.00  0.00    +0.077 A 
ATOM      7  C   UNL     1      -2.468  -3.178   0.000  0.00  0.00    +0.007 A 
ATOM      8  C   UNL     1      -2.213  -2.393   0.000  0.00  0.00    +0.002 A 
ATOM      9  C   UNL     1      -1.406  -2.222   0.000  0.00  0.00    +0.017 A 
ATOM     10  C   UNL     1      -0.854  -2.835   0.000  0.00  0.00    +0.077 A 
ATOM     37  C   UNL     1      -1.109  -3.619   0.000  0.00  0.00    +0.023 A 
BRANCH   6   4
ATOM      4  C   UNL     1      -2.171  -4.575   0.000  0.00  0.00    +0.341 C 
ATOM      5  O   UNL     1      -1.619  -5.189   0.000  0.00  0.00    -0.245 OA
BRANCH   4   3
ATOM      3  O   UNL     1      -2.978  -4.747   0.000  0.00  0.00    -0.445 OA
BRANCH   3   2
ATOM      1  C   UNL     1      -4.040  -5.703   0.000  0.00  0.00    +0.051 C 
ATOM      2  C   UNL     1      -3.233  -5.532   0.000  0.00  0.00    +0.209 C 
ENDBRANCH   3   2
ENDBRANCH   4   3
ENDBRANCH   6   4
ENDBRANCH  11  10
ENDBRANCH  14  12
ENDBRANCH  15  14
BRANCH  19  23
ATOM     23  N   UNL     1       3.094   1.197   0.000  0.00  0.00    -0.074 NA
BRANCH  23  24
ATOM     24  S   UNL     1       3.901   1.369   0.000  0.00  0.00    +0.080 S 
ATOM     25  O   UNL     1       4.072   0.562   0.000  0.00  0.00    -0.151 OA
ATOM     26  O   UNL     1       3.729   2.176   0.000  0.00  0.00    -0.151 OA
BRANCH  24  27
ATOM     27  C   UNL     1       4.708   1.540   0.000  0.00  0.00    +0.160 A 
ATOM     28  C   UNL     1       4.963   2.325   0.000  0.00  0.00    +0.060 A 
ATOM     29  C   UNL     1       5.770   2.496   0.000  0.00  0.00    +0.140 A 
ATOM     32  C   UNL     1       6.322   1.883   0.000  0.00  0.00    +0.040 A 
ATOM     33  C   UNL     1       6.067   1.099   0.000  0.00  0.00    +0.041 A 
ATOM     34  C   UNL     1       5.260   0.927   0.000  0.00  0.00    +0.157 A 
BRANCH  29  30
ATOM     30  O   UNL     1       6.024   3.281   0.000  0.00  0.00    -0.471 OA
ATOM     31  C   UNL     1       5.473   3.894   0.000  0.00  0.00    +0.252 C 
ENDBRANCH  29  30
BRANCH  34  35
ATOM     35  O   UNL     1       5.005   0.142   0.000  0.00  0.00    -0.470 OA
ATOM     36  C   UNL     1       4.198  -0.029   0.000  0.00  0.00    +0.253 C 
ENDBRANCH  34  35
ENDBRANCH  24  27
ENDBRANCH  23  24
ENDBRANCH  19  23
TORSDOF 11
