MODEL 1
REMARK VINA RESULT:     -12.7      0.000      0.000
REMARK  Name = 
REMARK  4 active torsions:
REMARK  status: ('A' for Active; 'I' for Inactive)
REMARK    1  A    between atoms: C_4  and  N_21
REMARK    2  A    between atoms: C_6  and  C_7
REMARK    3  A    between atoms: C_9  and  C_12
REMARK    4  A    between atoms: N_24  and  C_25
REMARK                            x       y       z     vdW  Elec       q    Type
REMARK                         _______ _______ _______ _____ _____    ______ ____
ROOT
ATOM      1  C   UNL     1      -6.112   1.833  24.897  0.00  0.00    +0.090 C 
ATOM      2  N   UNL     1      -5.360   2.061  25.148  0.00  0.00    -0.264 NA
ATOM      3  C   UNL     1      -5.159   2.794  25.470  0.00  0.00    +0.094 C 
ATOM      4  C   UNL     1      -4.352   2.782  25.643  0.00  0.00    +0.115 C 
ATOM      5  C   UNL     1      -4.056   2.043  25.427  0.00  0.00    +0.049 C 
ATOM      6  C   UNL     1      -4.678   1.598  25.122  0.00  0.00    +0.139 C 
ENDROOT
BRANCH   6   7
ATOM      7  C   UNL     1      -4.630   0.824  24.839  0.00  0.00    +0.251 A 
ATOM      8  N   UNL     1      -3.992   0.310  24.942  0.00  0.00    -0.190 NA
ATOM      9  C   UNL     1      -4.177  -0.403  24.571  0.00  0.00    +0.203 A 
ATOM     10  N   UNL     1      -4.929  -0.330  24.239  0.00  0.00    -0.056 NA
ATOM     11  O   UNL     1      -5.208   0.429  24.405  0.00  0.00    -0.336 OA
BRANCH   9  12
ATOM     12  C   UNL     1      -3.695  -1.071  24.538  0.00  0.00    +0.042 A 
ATOM     13  C   UNL     1      -2.875  -0.990  24.558  0.00  0.00    +0.043 A 
ATOM     14  C   UNL     1      -2.392  -1.659  24.525  0.00  0.00    +0.177 A 
ATOM     15  C   UNL     1      -2.731  -2.409  24.472  0.00  0.00    +0.176 A 
ATOM     16  O   UNL     1      -2.121  -2.963  24.448  0.00  0.00    -0.435 OA
ATOM     17  C   UNL     1      -1.405  -2.556  24.486  0.00  0.00    +0.429 C 
ATOM     18  O   UNL     1      -1.573  -1.750  24.534  0.00  0.00    -0.435 OA
ATOM     19  C   UNL     1      -3.553  -2.491  24.452  0.00  0.00    +0.040 A 
ATOM     20  C   UNL     1      -4.034  -1.822  24.485  0.00  0.00    +0.006 A 
ENDBRANCH   9  12
ENDBRANCH   6   7
BRANCH   4  21
ATOM     21  N   UNL     1      -3.918   3.401  25.973  0.00  0.00    -0.187 NA
ATOM     22  C   UNL     1      -3.233   3.670  25.600  0.00  0.00    +0.343 C 
ATOM     23  O   UNL     1      -2.982   3.319  24.897  0.00  0.00    -0.249 OA
ATOM     24  N   UNL     1      -2.798   4.289  25.930  0.00  0.00    -0.161 NA
BRANCH  24  25
ATOM     25  C   UNL     1      -2.113   4.557  25.557  0.00  0.00    +0.075 A 
ATOM     26  C   UNL     1      -1.447   4.072  25.520  0.00  0.00    +0.019 A 
ATOM     27  C   UNL     1      -0.761   4.340  25.147  0.00  0.00    +0.031 A 
ATOM     28  C   UNL     1      -0.743   5.093  24.811  0.00  0.00    +0.140 A 
ATOM     29  F   UNL     1      -0.058   5.361  24.438  0.00  0.00    -0.204 F 
ATOM     30  C   UNL     1      -1.410   5.578  24.848  0.00  0.00    +0.031 A 
ATOM     31  C   UNL     1      -2.094   5.310  25.221  0.00  0.00    +0.019 A 
ENDBRANCH  24  25
ENDBRANCH   4  21
TORSDOF 4
ENDMDL
MODEL 2
REMARK VINA RESULT:     -12.0      2.880      6.561
REMARK  Name = 
REMARK  4 active torsions:
REMARK  status: ('A' for Active; 'I' for Inactive)
REMARK    1  A    between atoms: C_4  and  N_21
REMARK    2  A    between atoms: C_6  and  C_7
REMARK    3  A    between atoms: C_9  and  C_12
REMARK    4  A    between atoms: N_24  and  C_25
REMARK                            x       y       z     vdW  Elec       q    Type
REMARK                         _______ _______ _______ _____ _____    ______ ____
ROOT
ATOM      1  C   UNL     1       0.729   0.595  23.557  0.00  0.00    +0.090 C 
ATOM      2  N   UNL     1       0.185   0.269  24.084  0.00  0.00    -0.264 NA
ATOM      3  C   UNL     1      -0.069  -0.517  24.095  0.00  0.00    +0.094 C 
ATOM      4  C   UNL     1      -0.611  -0.600  24.712  0.00  0.00    +0.115 C 
ATOM      5  C   UNL     1      -0.692   0.133  25.081  0.00  0.00    +0.049 C 
ATOM      6  C   UNL     1      -0.200   0.670  24.694  0.00  0.00    +0.139 C 
ENDROOT
BRANCH   6   7
ATOM      7  C   UNL     1      -0.108   1.468  24.882  0.00  0.00    +0.251 A 
ATOM      8  N   UNL     1      -0.697   2.045  24.847  0.00  0.00    -0.190 NA
ATOM      9  C   UNL     1      -0.366   2.763  25.081  0.00  0.00    +0.203 A 
ATOM     10  N   UNL     1       0.428   2.630  25.261  0.00  0.00    -0.056 NA
ATOM     11  O   UNL     1       0.587   1.830  25.138  0.00  0.00    -0.336 OA
BRANCH   9  12
ATOM     12  C   UNL     1      -0.759   3.486  25.127  0.00  0.00    +0.042 A 
ATOM     13  C   UNL     1      -1.502   3.530  25.481  0.00  0.00    +0.043 A 
ATOM     14  C   UNL     1      -1.896   4.254  25.527  0.00  0.00    +0.177 A 
ATOM     15  C   UNL     1      -1.546   4.934  25.218  0.00  0.00    +0.176 A 
ATOM     16  O   UNL     1      -2.061   5.565  25.343  0.00  0.00    -0.435 OA
ATOM     17  C   UNL     1      -2.730   5.276  25.728  0.00  0.00    +0.429 C 
ATOM     18  O   UNL     1      -2.628   4.466  25.842  0.00  0.00    -0.435 OA
ATOM     19  C   UNL     1      -0.802   4.890  24.863  0.00  0.00    +0.040 A 
ATOM     20  C   UNL     1      -0.409   4.166  24.818  0.00  0.00    +0.006 A 
ENDBRANCH   9  12
ENDBRANCH   6   7
BRANCH   4  21
ATOM     21  N   UNL     1      -1.003  -1.294  24.922  0.00  0.00    -0.187 NA
ATOM     22  C   UNL     1      -1.753  -1.453  24.618  0.00  0.00    +0.343 C 
ATOM     23  O   UNL     1      -2.111  -0.917  24.103  0.00  0.00    -0.249 OA
ATOM     24  N   UNL     1      -2.146  -2.148  24.828  0.00  0.00    -0.161 NA
BRANCH  24  25
ATOM     25  C   UNL     1      -2.896  -2.306  24.523  0.00  0.00    +0.075 A 
ATOM     26  C   UNL     1      -3.027  -2.995  24.089  0.00  0.00    +0.019 A 
ATOM     27  C   UNL     1      -3.778  -3.154  23.785  0.00  0.00    +0.031 A 
ATOM     28  C   UNL     1      -4.396  -2.623  23.914  0.00  0.00    +0.140 A 
ATOM     29  F   UNL     1      -5.146  -2.782  23.610  0.00  0.00    -0.204 F 
ATOM     30  C   UNL     1      -4.264  -1.934  24.348  0.00  0.00    +0.031 A 
ATOM     31  C   UNL     1      -3.514  -1.776  24.653  0.00  0.00    +0.019 A 
ENDBRANCH  24  25
ENDBRANCH   4  21
TORSDOF 4
ENDMDL
MODEL 3
REMARK VINA RESULT:     -11.9      3.985      5.703
REMARK  Name = 
REMARK  4 active torsions:
REMARK  status: ('A' for Active; 'I' for Inactive)
REMARK    1  A    between atoms: C_4  and  N_21
REMARK    2  A    between atoms: C_6  and  C_7
REMARK    3  A    between atoms: C_9  and  C_12
REMARK    4  A    between atoms: N_24  and  C_25
REMARK                            x       y       z     vdW  Elec       q    Type
REMARK                         _______ _______ _______ _____ _____    ______ ____
ROOT
ATOM      1  C   UNL     1      -0.925  -0.823  24.810  0.00  0.00    +0.090 C 
ATOM      2  N   UNL     1      -0.501  -0.384  24.255  0.00  0.00    -0.264 NA
ATOM      3  C   UNL     1       0.116  -0.665  23.784  0.00  0.00    +0.094 C 
ATOM      4  C   UNL     1       0.379  -0.042  23.312  0.00  0.00    +0.115 C 
ATOM      5  C   UNL     1      -0.074   0.624  23.492  0.00  0.00    +0.049 C 
ATOM      6  C   UNL     1      -0.618   0.412  24.074  0.00  0.00    +0.139 C 
ENDROOT
BRANCH   6   7
ATOM      7  C   UNL     1      -1.181   0.909  24.417  0.00  0.00    +0.251 A 
ATOM      8  N   UNL     1      -1.963   0.997  24.170  0.00  0.00    -0.190 NA
ATOM      9  C   UNL     1      -2.327   1.547  24.666  0.00  0.00    +0.203 A 
ATOM     10  N   UNL     1      -1.770   1.798  25.220  0.00  0.00    -0.056 NA
ATOM     11  O   UNL     1      -1.061   1.403  25.065  0.00  0.00    -0.336 OA
BRANCH   9  12
ATOM     12  C   UNL     1      -3.110   1.800  24.617  0.00  0.00    +0.042 A 
ATOM     13  C   UNL     1      -3.709   1.362  24.976  0.00  0.00    +0.043 A 
ATOM     14  C   UNL     1      -4.493   1.615  24.927  0.00  0.00    +0.177 A 
ATOM     15  C   UNL     1      -4.677   2.307  24.519  0.00  0.00    +0.176 A 
ATOM     16  O   UNL     1      -5.493   2.420  24.563  0.00  0.00    -0.435 OA
ATOM     17  C   UNL     1      -5.813   1.797  24.998  0.00  0.00    +0.429 C 
ATOM     18  O   UNL     1      -5.194   1.300  25.223  0.00  0.00    -0.435 OA
ATOM     19  C   UNL     1      -4.078   2.747  24.159  0.00  0.00    +0.040 A 
ATOM     20  C   UNL     1      -3.295   2.493  24.208  0.00  0.00    +0.006 A 
ENDBRANCH   9  12
ENDBRANCH   6   7
BRANCH   4  21
ATOM     21  N   UNL     1       0.989  -0.077  22.758  0.00  0.00    -0.187 NA
ATOM     22  C   UNL     1       1.765   0.082  22.987  0.00  0.00    +0.343 C 
ATOM     23  O   UNL     1       1.932   0.277  23.771  0.00  0.00    -0.249 OA
ATOM     24  N   UNL     1       2.375   0.047  22.433  0.00  0.00    -0.161 NA
BRANCH  24  25
ATOM     25  C   UNL     1       3.152   0.207  22.662  0.00  0.00    +0.075 A 
ATOM     26  C   UNL     1       3.606  -0.384  23.016  0.00  0.00    +0.019 A 
ATOM     27  C   UNL     1       4.383  -0.224  23.246  0.00  0.00    +0.031 A 
ATOM     28  C   UNL     1       4.704   0.525  23.121  0.00  0.00    +0.140 A 
ATOM     29  F   UNL     1       5.480   0.684  23.351  0.00  0.00    -0.204 F 
ATOM     30  C   UNL     1       4.249   1.115  22.767  0.00  0.00    +0.031 A 
ATOM     31  C   UNL     1       3.473   0.956  22.538  0.00  0.00    +0.019 A 
ENDBRANCH  24  25
ENDBRANCH   4  21
TORSDOF 4
ENDMDL
MODEL 4
REMARK VINA RESULT:     -11.8      2.359      3.384
REMARK  Name = 
REMARK  4 active torsions:
REMARK  status: ('A' for Active; 'I' for Inactive)
REMARK    1  A    between atoms: C_4  and  N_21
REMARK    2  A    between atoms: C_6  and  C_7
REMARK    3  A    between atoms: C_9  and  C_12
REMARK    4  A    between atoms: N_24  and  C_25
REMARK                            x       y       z     vdW  Elec       q    Type
REMARK                         _______ _______ _______ _____ _____    ______ ____
ROOT
ATOM      1  C   UNL     1       0.390  -0.096  23.298  0.00  0.00    +0.090 C 
ATOM      2  N   UNL     1       0.204   0.390  23.938  0.00  0.00    -0.264 NA
ATOM      3  C   UNL     1       0.475   1.161  24.056  0.00  0.00    +0.094 C 
ATOM      4  C   UNL     1       0.153   1.438  24.764  0.00  0.00    +0.115 C 
ATOM      5  C   UNL     1      -0.316   0.839  25.082  0.00  0.00    +0.049 C 
ATOM      6  C   UNL     1      -0.284   0.192  24.572  0.00  0.00    +0.139 C 
ENDROOT
BRANCH   6   7
ATOM      7  C   UNL     1      -0.673  -0.529  24.677  0.00  0.00    +0.251 A 
ATOM      8  N   UNL     1      -1.439  -0.707  24.427  0.00  0.00    -0.190 NA
ATOM      9  C   UNL     1      -1.604  -1.485  24.645  0.00  0.00    +0.203 A 
ATOM     10  N   UNL     1      -0.940  -1.789  25.030  0.00  0.00    -0.056 NA
ATOM     11  O   UNL     1      -0.365  -1.197  25.049  0.00  0.00    -0.336 OA
BRANCH   9  12
ATOM     12  C   UNL     1      -2.308  -1.889  24.503  0.00  0.00    +0.042 A 
ATOM     13  C   UNL     1      -2.958  -1.489  24.192  0.00  0.00    +0.043 A 
ATOM     14  C   UNL     1      -3.664  -1.893  24.050  0.00  0.00    +0.177 A 
ATOM     15  C   UNL     1      -3.718  -2.699  24.220  0.00  0.00    +0.176 A 
ATOM     16  O   UNL     1      -4.479  -2.950  24.023  0.00  0.00    -0.435 OA
ATOM     17  C   UNL     1      -4.894  -2.300  23.732  0.00  0.00    +0.429 C 
ATOM     18  O   UNL     1      -4.390  -1.647  23.748  0.00  0.00    -0.435 OA
ATOM     19  C   UNL     1      -3.068  -3.100  24.532  0.00  0.00    +0.040 A 
ATOM     20  C   UNL     1      -2.363  -2.695  24.673  0.00  0.00    +0.006 A 
ENDBRANCH   9  12
ENDBRANCH   6   7
BRANCH   4  21
ATOM     21  N   UNL     1       0.278   2.183  25.095  0.00  0.00    -0.187 NA
ATOM     22  C   UNL     1      -0.296   2.770  25.018  0.00  0.00    +0.343 C 
ATOM     23  O   UNL     1      -0.995   2.613  24.610  0.00  0.00    -0.249 OA
ATOM     24  N   UNL     1      -0.171   3.516  25.349  0.00  0.00    -0.161 NA
BRANCH  24  25
ATOM     25  C   UNL     1      -0.746   4.103  25.272  0.00  0.00    +0.075 A 
ATOM     26  C   UNL     1      -0.589   4.776  24.820  0.00  0.00    +0.019 A 
ATOM     27  C   UNL     1      -1.164   5.363  24.743  0.00  0.00    +0.031 A 
ATOM     28  C   UNL     1      -1.894   5.278  25.118  0.00  0.00    +0.140 A 
ATOM     29  F   UNL     1      -2.467   5.865  25.041  0.00  0.00    -0.204 F 
ATOM     30  C   UNL     1      -2.049   4.605  25.569  0.00  0.00    +0.031 A 
ATOM     31  C   UNL     1      -1.476   4.018  25.646  0.00  0.00    +0.019 A 
ENDBRANCH  24  25
ENDBRANCH   4  21
TORSDOF 4
ENDMDL
MODEL 5
REMARK VINA RESULT:     -11.7      1.911      5.565
REMARK  Name = 
REMARK  4 active torsions:
REMARK  status: ('A' for Active; 'I' for Inactive)
REMARK    1  A    between atoms: C_4  and  N_21
REMARK    2  A    between atoms: C_6  and  C_7
REMARK    3  A    between atoms: C_9  and  C_12
REMARK    4  A    between atoms: N_24  and  C_25
REMARK                            x       y       z     vdW  Elec       q    Type
REMARK                         _______ _______ _______ _____ _____    ______ ____
ROOT
ATOM      1  C   UNL     1      -5.851   2.204  26.035  0.00  0.00    +0.090 C 
ATOM      2  N   UNL     1      -5.395   1.753  25.515  0.00  0.00    -0.264 NA
ATOM      3  C   UNL     1      -5.550   0.977  25.282  0.00  0.00    +0.094 C 
ATOM      4  C   UNL     1      -4.955   0.744  24.761  0.00  0.00    +0.115 C 
ATOM      5  C   UNL     1      -4.432   1.376  24.672  0.00  0.00    +0.049 C 
ATOM      6  C   UNL     1      -4.703   1.999  25.138  0.00  0.00    +0.139 C 
ENDROOT
BRANCH   6   7
ATOM      7  C   UNL     1      -4.347   2.739  25.215  0.00  0.00    +0.251 A 
ATOM      8  N   UNL     1      -3.547   2.907  25.102  0.00  0.00    -0.190 NA
ATOM      9  C   UNL     1      -3.433   3.712  25.235  0.00  0.00    +0.203 A 
ATOM     10  N   UNL     1      -4.163   4.044  25.430  0.00  0.00    -0.056 NA
ATOM     11  O   UNL     1      -4.728   3.442  25.417  0.00  0.00    -0.336 OA
BRANCH   9  12
ATOM     12  C   UNL     1      -2.716   4.116  25.183  0.00  0.00    +0.042 A 
ATOM     13  C   UNL     1      -2.053   3.739  24.870  0.00  0.00    +0.043 A 
ATOM     14  C   UNL     1      -1.335   4.142  24.817  0.00  0.00    +0.177 A 
ATOM     15  C   UNL     1      -1.281   4.923  25.077  0.00  0.00    +0.176 A 
ATOM     16  O   UNL     1      -0.506   5.179  24.957  0.00  0.00    -0.435 OA
ATOM     17  C   UNL     1      -0.081   4.557  24.623  0.00  0.00    +0.429 C 
ATOM     18  O   UNL     1      -0.593   3.916  24.537  0.00  0.00    -0.435 OA
ATOM     19  C   UNL     1      -1.945   5.301  25.390  0.00  0.00    +0.040 A 
ATOM     20  C   UNL     1      -2.662   4.897  25.443  0.00  0.00    +0.006 A 
ENDBRANCH   9  12
ENDBRANCH   6   7
BRANCH   4  21
ATOM     21  N   UNL     1      -4.893   0.008  24.392  0.00  0.00    -0.187 NA
ATOM     22  C   UNL     1      -4.259  -0.489  24.568  0.00  0.00    +0.343 C 
ATOM     23  O   UNL     1      -3.687  -0.252  25.113  0.00  0.00    -0.249 OA
ATOM     24  N   UNL     1      -4.197  -1.225  24.200  0.00  0.00    -0.161 NA
BRANCH  24  25
ATOM     25  C   UNL     1      -3.563  -1.723  24.376  0.00  0.00    +0.075 A 
ATOM     26  C   UNL     1      -3.680  -2.386  24.853  0.00  0.00    +0.019 A 
ATOM     27  C   UNL     1      -3.046  -2.884  25.030  0.00  0.00    +0.031 A 
ATOM     28  C   UNL     1      -2.296  -2.719  24.729  0.00  0.00    +0.140 A 
ATOM     29  F   UNL     1      -1.663  -3.217  24.905  0.00  0.00    -0.204 F 
ATOM     30  C   UNL     1      -2.180  -2.056  24.252  0.00  0.00    +0.031 A 
ATOM     31  C   UNL     1      -2.813  -1.558  24.076  0.00  0.00    +0.019 A 
ENDBRANCH  24  25
ENDBRANCH   4  21
TORSDOF 4
ENDMDL
MODEL 6
REMARK VINA RESULT:     -11.5      4.682      6.741
REMARK  Name = 
REMARK  4 active torsions:
REMARK  status: ('A' for Active; 'I' for Inactive)
REMARK    1  A    between atoms: C_4  and  N_21
REMARK    2  A    between atoms: C_6  and  C_7
REMARK    3  A    between atoms: C_9  and  C_12
REMARK    4  A    between atoms: N_24  and  C_25
REMARK                            x       y       z     vdW  Elec       q    Type
REMARK                         _______ _______ _______ _____ _____    ______ ____
ROOT
ATOM      1  C   UNL     1       0.185   1.787  23.783  0.00  0.00    +0.090 C 
ATOM      2  N   UNL     1      -0.060   1.038  24.028  0.00  0.00    -0.264 NA
ATOM      3  C   UNL     1      -0.714   0.874  24.504  0.00  0.00    +0.094 C 
ATOM      4  C   UNL     1      -0.751   0.056  24.611  0.00  0.00    +0.115 C 
ATOM      5  C   UNL     1      -0.120  -0.283  24.202  0.00  0.00    +0.049 C 
ATOM      6  C   UNL     1       0.307   0.323  23.842  0.00  0.00    +0.139 C 
ENDROOT
BRANCH   6   7
ATOM      7  C   UNL     1       0.982   0.232  23.377  0.00  0.00    +0.251 A 
ATOM      8  N   UNL     1       1.759   0.376  23.616  0.00  0.00    -0.190 NA
ATOM      9  C   UNL     1       2.257   0.214  22.979  0.00  0.00    +0.203 A 
ATOM     10  N   UNL     1       1.788  -0.031  22.346  0.00  0.00    -0.056 NA
ATOM     11  O   UNL     1       1.000  -0.020  22.592  0.00  0.00    -0.336 OA
BRANCH   9  12
ATOM     12  C   UNL     1       3.078   0.284  22.976  0.00  0.00    +0.042 A 
ATOM     13  C   UNL     1       3.542  -0.277  23.363  0.00  0.00    +0.043 A 
ATOM     14  C   UNL     1       4.364  -0.207  23.360  0.00  0.00    +0.177 A 
ATOM     15  C   UNL     1       4.722   0.425  22.969  0.00  0.00    +0.176 A 
ATOM     16  O   UNL     1       5.538   0.350  23.059  0.00  0.00    -0.435 OA
ATOM     17  C   UNL     1       5.685  -0.327  23.506  0.00  0.00    +0.429 C 
ATOM     18  O   UNL     1       4.959  -0.672  23.691  0.00  0.00    -0.435 OA
ATOM     19  C   UNL     1       4.258   0.987  22.582  0.00  0.00    +0.040 A 
ATOM     20  C   UNL     1       3.436   0.916  22.585  0.00  0.00    +0.006 A 
ENDBRANCH   9  12
ENDBRANCH   6   7
BRANCH   4  21
ATOM     21  N   UNL     1      -1.319  -0.350  25.050  0.00  0.00    -0.187 NA
ATOM     22  C   UNL     1      -1.921  -0.762  24.666  0.00  0.00    +0.343 C 
ATOM     23  O   UNL     1      -1.955  -0.767  23.842  0.00  0.00    -0.249 OA
ATOM     24  N   UNL     1      -2.489  -1.168  25.105  0.00  0.00    -0.161 NA
BRANCH  24  25
ATOM     25  C   UNL     1      -3.092  -1.580  24.720  0.00  0.00    +0.075 A 
ATOM     26  C   UNL     1      -3.729  -1.170  24.395  0.00  0.00    +0.019 A 
ATOM     27  C   UNL     1      -4.332  -1.582  24.010  0.00  0.00    +0.031 A 
ATOM     28  C   UNL     1      -4.297  -2.404  23.951  0.00  0.00    +0.140 A 
ATOM     29  F   UNL     1      -4.899  -2.815  23.566  0.00  0.00    -0.204 F 
ATOM     30  C   UNL     1      -3.659  -2.814  24.277  0.00  0.00    +0.031 A 
ATOM     31  C   UNL     1      -3.057  -2.402  24.661  0.00  0.00    +0.019 A 
ENDBRANCH  24  25
ENDBRANCH   4  21
TORSDOF 4
ENDMDL
MODEL 7
REMARK VINA RESULT:     -11.0      2.675      6.230
REMARK  Name = 
REMARK  4 active torsions:
REMARK  status: ('A' for Active; 'I' for Inactive)
REMARK    1  A    between atoms: C_4  and  N_21
REMARK    2  A    between atoms: C_6  and  C_7
REMARK    3  A    between atoms: C_9  and  C_12
REMARK    4  A    between atoms: N_24  and  C_25
REMARK                            x       y       z     vdW  Elec       q    Type
REMARK                         _______ _______ _______ _____ _____    ______ ____
ROOT
ATOM      1  C   UNL     1       0.429   1.799  24.019  0.00  0.00    +0.090 C 
ATOM      2  N   UNL     1      -0.018   1.204  24.375  0.00  0.00    -0.264 NA
ATOM      3  C   UNL     1       0.118   0.392  24.310  0.00  0.00    +0.094 C 
ATOM      4  C   UNL     1      -0.459   0.002  24.753  0.00  0.00    +0.115 C 
ATOM      5  C   UNL     1      -0.950   0.573  25.091  0.00  0.00    +0.049 C 
ATOM      6  C   UNL     1      -0.678   1.315  24.857  0.00  0.00    +0.139 C 
ENDROOT
BRANCH   6   7
ATOM      7  C   UNL     1      -1.007   2.041  25.067  0.00  0.00    +0.251 A 
ATOM      8  N   UNL     1      -1.812   2.204  25.148  0.00  0.00    -0.190 NA
ATOM      9  C   UNL     1      -1.893   2.996  25.364  0.00  0.00    +0.203 A 
ATOM     10  N   UNL     1      -1.137   3.323  25.418  0.00  0.00    -0.056 NA
ATOM     11  O   UNL     1      -0.590   2.733  25.234  0.00  0.00    -0.336 OA
BRANCH   9  12
ATOM     12  C   UNL     1      -2.603   3.391  25.503  0.00  0.00    +0.042 A 
ATOM     13  C   UNL     1      -3.301   3.117  25.160  0.00  0.00    +0.043 A 
ATOM     14  C   UNL     1      -4.012   3.512  25.298  0.00  0.00    +0.177 A 
ATOM     15  C   UNL     1      -4.024   4.181  25.780  0.00  0.00    +0.176 A 
ATOM     16  O   UNL     1      -4.801   4.455  25.817  0.00  0.00    -0.435 OA
ATOM     17  C   UNL     1      -5.270   3.954  25.358  0.00  0.00    +0.429 C 
ATOM     18  O   UNL     1      -4.781   3.372  25.038  0.00  0.00    -0.435 OA
ATOM     19  C   UNL     1      -3.326   4.456  26.124  0.00  0.00    +0.040 A 
ATOM     20  C   UNL     1      -2.615   4.060  25.985  0.00  0.00    +0.006 A 
ENDBRANCH   9  12
ENDBRANCH   6   7
BRANCH   4  21
ATOM     21  N   UNL     1      -0.532  -0.814  24.843  0.00  0.00    -0.187 NA
ATOM     22  C   UNL     1      -1.260  -1.180  24.720  0.00  0.00    +0.343 C 
ATOM     23  O   UNL     1      -1.917  -0.729  24.506  0.00  0.00    -0.249 OA
ATOM     24  N   UNL     1      -1.333  -1.997  24.810  0.00  0.00    -0.161 NA
BRANCH  24  25
ATOM     25  C   UNL     1      -2.062  -2.363  24.686  0.00  0.00    +0.075 A 
ATOM     26  C   UNL     1      -2.196  -2.791  23.993  0.00  0.00    +0.019 A 
ATOM     27  C   UNL     1      -2.925  -3.157  23.869  0.00  0.00    +0.031 A 
ATOM     28  C   UNL     1      -3.520  -3.095  24.437  0.00  0.00    +0.140 A 
ATOM     29  F   UNL     1      -4.248  -3.460  24.313  0.00  0.00    -0.204 F 
ATOM     30  C   UNL     1      -3.385  -2.666  25.130  0.00  0.00    +0.031 A 
ATOM     31  C   UNL     1      -2.657  -2.300  25.254  0.00  0.00    +0.019 A 
ENDBRANCH  24  25
ENDBRANCH   4  21
TORSDOF 4
ENDMDL
MODEL 8
REMARK VINA RESULT:     -11.0      3.682      4.966
REMARK  Name = 
REMARK  4 active torsions:
REMARK  status: ('A' for Active; 'I' for Inactive)
REMARK    1  A    between atoms: C_4  and  N_21
REMARK    2  A    between atoms: C_6  and  C_7
REMARK    3  A    between atoms: C_9  and  C_12
REMARK    4  A    between atoms: N_24  and  C_25
REMARK                            x       y       z     vdW  Elec       q    Type
REMARK                         _______ _______ _______ _____ _____    ______ ____
ROOT
ATOM      1  C   UNL     1      -0.023   2.346  25.903  0.00  0.00    +0.090 C 
ATOM      2  N   UNL     1      -0.675   2.385  25.400  0.00  0.00    -0.264 NA
ATOM      3  C   UNL     1      -1.314   2.903  25.473  0.00  0.00    +0.094 C 
ATOM      4  C   UNL     1      -1.836   2.751  24.853  0.00  0.00    +0.115 C 
ATOM      5  C   UNL     1      -1.521   2.140  24.397  0.00  0.00    +0.049 C 
ATOM      6  C   UNL     1      -0.804   1.914  24.734  0.00  0.00    +0.139 C 
ENDROOT
BRANCH   6   7
ATOM      7  C   UNL     1      -0.301   1.322  24.456  0.00  0.00    +0.251 A 
ATOM      8  N   UNL     1       0.338   1.428  23.946  0.00  0.00    -0.190 NA
ATOM      9  C   UNL     1       0.685   0.691  23.813  0.00  0.00    +0.203 A 
ATOM     10  N   UNL     1       0.259   0.129  24.242  0.00  0.00    -0.056 NA
ATOM     11  O   UNL     1      -0.350   0.519  24.640  0.00  0.00    -0.336 OA
BRANCH   9  12
ATOM     12  C   UNL     1       1.341   0.543  23.337  0.00  0.00    +0.042 A 
ATOM     13  C   UNL     1       2.053   0.932  23.482  0.00  0.00    +0.043 A 
ATOM     14  C   UNL     1       2.710   0.783  23.005  0.00  0.00    +0.177 A 
ATOM     15  C   UNL     1       2.653   0.245  22.382  0.00  0.00    +0.176 A 
ATOM     16  O   UNL     1       3.387   0.211  22.008  0.00  0.00    -0.435 OA
ATOM     17  C   UNL     1       3.897   0.728  22.399  0.00  0.00    +0.429 C 
ATOM     18  O   UNL     1       3.478   1.081  23.015  0.00  0.00    -0.435 OA
ATOM     19  C   UNL     1       1.940  -0.144  22.236  0.00  0.00    +0.040 A 
ATOM     20  C   UNL     1       1.284   0.005  22.714  0.00  0.00    +0.006 A 
ENDBRANCH   9  12
ENDBRANCH   6   7
BRANCH   4  21
ATOM     21  N   UNL     1      -2.550   3.141  24.714  0.00  0.00    -0.187 NA
ATOM     22  C   UNL     1      -3.262   2.793  24.940  0.00  0.00    +0.343 C 
ATOM     23  O   UNL     1      -3.262   2.054  25.306  0.00  0.00    -0.249 OA
ATOM     24  N   UNL     1      -3.975   3.184  24.800  0.00  0.00    -0.161 NA
BRANCH  24  25
ATOM     25  C   UNL     1      -4.688   2.835  25.026  0.00  0.00    +0.075 A 
ATOM     26  C   UNL     1      -5.040   2.266  24.544  0.00  0.00    +0.019 A 
ATOM     27  C   UNL     1      -5.753   1.917  24.770  0.00  0.00    +0.031 A 
ATOM     28  C   UNL     1      -6.113   2.137  25.479  0.00  0.00    +0.140 A 
ATOM     29  F   UNL     1      -6.826   1.788  25.704  0.00  0.00    -0.204 F 
ATOM     30  C   UNL     1      -5.761   2.706  25.961  0.00  0.00    +0.031 A 
ATOM     31  C   UNL     1      -5.049   3.055  25.735  0.00  0.00    +0.019 A 
ENDBRANCH  24  25
ENDBRANCH   4  21
TORSDOF 4
ENDMDL
MODEL 9
REMARK VINA RESULT:     -10.9      4.393      5.539
REMARK  Name = 
REMARK  4 active torsions:
REMARK  status: ('A' for Active; 'I' for Inactive)
REMARK    1  A    between atoms: C_4  and  N_21
REMARK    2  A    between atoms: C_6  and  C_7
REMARK    3  A    between atoms: C_9  and  C_12
REMARK    4  A    between atoms: N_24  and  C_25
REMARK                            x       y       z     vdW  Elec       q    Type
REMARK                         _______ _______ _______ _____ _____    ______ ____
ROOT
ATOM      1  C   UNL     1       0.117  -0.942  24.316  0.00  0.00    +0.090 C 
ATOM      2  N   UNL     1      -0.192  -0.240  24.011  0.00  0.00    -0.264 NA
ATOM      3  C   UNL     1      -0.914   0.103  24.218  0.00  0.00    +0.094 C 
ATOM      4  C   UNL     1      -1.000   0.797  23.781  0.00  0.00    +0.115 C 
ATOM      5  C   UNL     1      -0.333   0.883  23.304  0.00  0.00    +0.049 C 
ATOM      6  C   UNL     1       0.167   0.243  23.446  0.00  0.00    +0.139 C 
ENDROOT
BRANCH   6   7
ATOM      7  C   UNL     1       0.897   0.107  23.087  0.00  0.00    +0.251 A 
ATOM      8  N   UNL     1       1.631   0.351  23.374  0.00  0.00    -0.190 NA
ATOM      9  C   UNL     1       2.210   0.099  22.844  0.00  0.00    +0.203 A 
ATOM     10  N   UNL     1       1.834  -0.300  22.227  0.00  0.00    -0.056 NA
ATOM     11  O   UNL     1       1.022  -0.295  22.379  0.00  0.00    -0.336 OA
BRANCH   9  12
ATOM     12  C   UNL     1       3.022   0.225  22.916  0.00  0.00    +0.042 A 
ATOM     13  C   UNL     1       3.495  -0.338  23.288  0.00  0.00    +0.043 A 
ATOM     14  C   UNL     1       4.307  -0.213  23.360  0.00  0.00    +0.177 A 
ATOM     15  C   UNL     1       4.646   0.477  23.060  0.00  0.00    +0.176 A 
ATOM     16  O   UNL     1       5.456   0.450  23.211  0.00  0.00    -0.435 OA
ATOM     17  C   UNL     1       5.618  -0.256  23.605  0.00  0.00    +0.429 C 
ATOM     18  O   UNL     1       4.908  -0.665  23.697  0.00  0.00    -0.435 OA
ATOM     19  C   UNL     1       4.172   1.041  22.687  0.00  0.00    +0.040 A 
ATOM     20  C   UNL     1       3.360   0.915  22.615  0.00  0.00    +0.006 A 
ENDBRANCH   9  12
ENDBRANCH   6   7
BRANCH   4  21
ATOM     21  N   UNL     1      -1.642   1.314  23.814  0.00  0.00    -0.187 NA
ATOM     22  C   UNL     1      -1.590   2.009  24.255  0.00  0.00    +0.343 C 
ATOM     23  O   UNL     1      -0.895   2.187  24.663  0.00  0.00    -0.249 OA
ATOM     24  N   UNL     1      -2.232   2.526  24.289  0.00  0.00    -0.161 NA
BRANCH  24  25
ATOM     25  C   UNL     1      -2.179   3.222  24.730  0.00  0.00    +0.075 A 
ATOM     26  C   UNL     1      -1.694   3.837  24.473  0.00  0.00    +0.019 A 
ATOM     27  C   UNL     1      -1.641   4.532  24.915  0.00  0.00    +0.031 A 
ATOM     28  C   UNL     1      -2.073   4.612  25.613  0.00  0.00    +0.140 A 
ATOM     29  F   UNL     1      -2.021   5.306  26.054  0.00  0.00    -0.204 F 
ATOM     30  C   UNL     1      -2.558   3.995  25.869  0.00  0.00    +0.031 A 
ATOM     31  C   UNL     1      -2.611   3.301  25.429  0.00  0.00    +0.019 A 
ENDBRANCH  24  25
ENDBRANCH   4  21
TORSDOF 4
ENDMDL
MODEL 10
REMARK VINA RESULT:     -10.8      4.087      6.231
REMARK  Name = 
REMARK  4 active torsions:
REMARK  status: ('A' for Active; 'I' for Inactive)
REMARK    1  A    between atoms: C_4  and  N_21
REMARK    2  A    between atoms: C_6  and  C_7
REMARK    3  A    between atoms: C_9  and  C_12
REMARK    4  A    between atoms: N_24  and  C_25
REMARK                            x       y       z     vdW  Elec       q    Type
REMARK                         _______ _______ _______ _____ _____    ______ ____
ROOT
ATOM      1  C   UNL     1      -0.881  -0.583  24.797  0.00  0.00    +0.090 C 
ATOM      2  N   UNL     1      -0.428  -0.259  24.188  0.00  0.00    -0.264 NA
ATOM      3  C   UNL     1       0.219  -0.618  23.822  0.00  0.00    +0.094 C 
ATOM      4  C   UNL     1       0.504  -0.100  23.246  0.00  0.00    +0.115 C 
ATOM      5  C   UNL     1       0.033   0.577  23.256  0.00  0.00    +0.049 C 
ATOM      6  C   UNL     1      -0.543   0.479  23.838  0.00  0.00    +0.139 C 
ENDROOT
BRANCH   6   7
ATOM      7  C   UNL     1      -1.131   1.023  24.036  0.00  0.00    +0.251 A 
ATOM      8  N   UNL     1      -1.010   1.766  24.373  0.00  0.00    -0.190 NA
ATOM      9  C   UNL     1      -1.746   2.123  24.477  0.00  0.00    +0.203 A 
ATOM     10  N   UNL     1      -2.323   1.599  24.204  0.00  0.00    -0.056 NA
ATOM     11  O   UNL     1      -1.942   0.920  23.931  0.00  0.00    -0.336 OA
BRANCH   9  12
ATOM     12  C   UNL     1      -1.882   2.870  24.798  0.00  0.00    +0.042 A 
ATOM     13  C   UNL     1      -1.400   3.504  24.585  0.00  0.00    +0.043 A 
ATOM     14  C   UNL     1      -1.536   4.252  24.906  0.00  0.00    +0.177 A 
ATOM     15  C   UNL     1      -2.155   4.365  25.439  0.00  0.00    +0.176 A 
ATOM     16  O   UNL     1      -2.156   5.159  25.664  0.00  0.00    -0.435 OA
ATOM     17  C   UNL     1      -1.538   5.536  25.269  0.00  0.00    +0.429 C 
ATOM     18  O   UNL     1      -1.155   4.975  24.801  0.00  0.00    -0.435 OA
ATOM     19  C   UNL     1      -2.638   3.730  25.652  0.00  0.00    +0.040 A 
ATOM     20  C   UNL     1      -2.501   2.983  25.331  0.00  0.00    +0.006 A 
ENDBRANCH   9  12
ENDBRANCH   6   7
BRANCH   4  21
ATOM     21  N   UNL     1       1.147  -0.236  22.748  0.00  0.00    -0.187 NA
ATOM     22  C   UNL     1       1.904  -0.004  22.978  0.00  0.00    +0.343 C 
ATOM     23  O   UNL     1       2.019   0.364  23.707  0.00  0.00    -0.249 OA
ATOM     24  N   UNL     1       2.547  -0.140  22.479  0.00  0.00    -0.161 NA
BRANCH  24  25
ATOM     25  C   UNL     1       3.305   0.092  22.710  0.00  0.00    +0.075 A 
ATOM     26  C   UNL     1       3.575   0.851  22.533  0.00  0.00    +0.019 A 
ATOM     27  C   UNL     1       4.333   1.083  22.764  0.00  0.00    +0.031 A 
ATOM     28  C   UNL     1       4.820   0.556  23.171  0.00  0.00    +0.140 A 
ATOM     29  F   UNL     1       5.576   0.789  23.401  0.00  0.00    -0.204 F 
ATOM     30  C   UNL     1       4.549  -0.203  23.347  0.00  0.00    +0.031 A 
ATOM     31  C   UNL     1       3.792  -0.435  23.117  0.00  0.00    +0.019 A 
ENDBRANCH  24  25
ENDBRANCH   4  21
TORSDOF 4
ENDMDL
