MODEL 1
REMARK VINA RESULT:     -10.8      0.000      0.000
REMARK  Name = 
REMARK  4 active torsions:
REMARK  status: ('A' for Active; 'I' for Inactive)
REMARK    1  A    between atoms: C_5  and  N_8
REMARK    2  A    between atoms: N_8  and  C_9
REMARK    3  A    between atoms: C_15  and  C_16
REMARK    4  A    between atoms: C_19  and  N_22
REMARK                            x       y       z     vdW  Elec       q    Type
REMARK                         _______ _______ _______ _____ _____    ______ ____
ROOT
ATOM      9  C   UNL     1      -4.389   2.067  24.808  0.00  0.00    +0.110 C 
ATOM     10  C   UNL     1      -4.925   2.650  25.038  0.00  0.00    +0.198 C 
ATOM     11  O   UNL     1      -4.844   3.461  24.908  0.00  0.00    -0.219 OA
ATOM     12  C   UNL     1      -5.556   2.281  25.420  0.00  0.00    +0.184 C 
ATOM     13  O   UNL     1      -6.217   2.657  25.739  0.00  0.00    -0.220 OA
ATOM     14  C   UNL     1      -5.410   1.469  25.427  0.00  0.00    +0.041 C 
ATOM     15  C   UNL     1      -4.688   1.336  25.049  0.00  0.00    +0.045 C 
ENDROOT
BRANCH  15  16
ATOM     16  C   UNL     1      -4.329   0.602  24.932  0.00  0.00    -0.002 A 
ATOM     17  C   UNL     1      -4.308   0.269  24.177  0.00  0.00    +0.000 A 
ATOM     18  C   UNL     1      -3.950  -0.464  24.060  0.00  0.00    +0.034 A 
ATOM     19  C   UNL     1      -3.613  -0.865  24.698  0.00  0.00    +0.132 A 
ATOM     20  N   UNL     1      -3.634  -0.532  25.452  0.00  0.00    -0.229 NA
ATOM     21  C   UNL     1      -3.992   0.202  25.570  0.00  0.00    +0.096 A 
BRANCH  19  22
ATOM     22  N   UNL     1      -3.254  -1.598  24.581  0.00  0.00    -0.288 N 
ATOM     23  C   UNL     1      -2.432  -1.661  24.590  0.00  0.00    +0.124 C 
ATOM     24  C   UNL     1      -2.072  -2.395  24.474  0.00  0.00    +0.164 C 
ATOM     25  O   UNL     1      -2.536  -3.066  24.348  0.00  0.00    -0.350 OA
ATOM     26  C   UNL     1      -3.358  -3.003  24.339  0.00  0.00    +0.164 C 
ATOM     27  C   UNL     1      -3.717  -2.269  24.455  0.00  0.00    +0.124 C 
ENDBRANCH  19  22
ENDBRANCH  15  16
BRANCH   9   8
ATOM      8  N   UNL     1      -3.678   2.191  24.409  0.00  0.00    -0.218 NA
BRANCH   8   5
ATOM      1  C   UNL     1      -1.628   4.582  25.392  0.00  0.00    +0.090 C 
ATOM      2  N   UNL     1      -2.140   3.984  25.147  0.00  0.00    -0.271 NA
ATOM      3  C   UNL     1      -2.611   4.094  24.479  0.00  0.00    +0.074 C 
ATOM      4  C   UNL     1      -3.125   3.496  24.233  0.00  0.00    +0.035 C 
ATOM      5  C   UNL     1      -3.166   2.789  24.656  0.00  0.00    +0.076 C 
ATOM      6  C   UNL     1      -2.694   2.679  25.324  0.00  0.00    +0.035 C 
ATOM      7  C   UNL     1      -2.182   3.276  25.569  0.00  0.00    +0.074 C 
ENDBRANCH   8   5
ENDBRANCH   9   8
TORSDOF 4
ENDMDL
MODEL 2
REMARK VINA RESULT:     -10.7      1.371      4.552
REMARK  Name = 
REMARK  4 active torsions:
REMARK  status: ('A' for Active; 'I' for Inactive)
REMARK    1  A    between atoms: C_5  and  N_8
REMARK    2  A    between atoms: N_8  and  C_9
REMARK    3  A    between atoms: C_15  and  C_16
REMARK    4  A    between atoms: C_19  and  N_22
REMARK                            x       y       z     vdW  Elec       q    Type
REMARK                         _______ _______ _______ _____ _____    ______ ____
ROOT
ATOM      9  C   UNL     1      -3.172  -1.178  24.752  0.00  0.00    +0.110 C 
ATOM     10  C   UNL     1      -3.167  -1.951  24.466  0.00  0.00    +0.198 C 
ATOM     11  O   UNL     1      -2.560  -2.502  24.568  0.00  0.00    -0.219 OA
ATOM     12  C   UNL     1      -3.874  -2.078  24.061  0.00  0.00    +0.184 C 
ATOM     13  O   UNL     1      -4.099  -2.778  23.686  0.00  0.00    -0.220 OA
ATOM     14  C   UNL     1      -4.316  -1.383  24.096  0.00  0.00    +0.041 C 
ATOM     15  C   UNL     1      -3.882  -0.826  24.523  0.00  0.00    +0.045 C 
ENDROOT
BRANCH  15  16
ATOM     16  C   UNL     1      -4.118  -0.053  24.692  0.00  0.00    -0.002 A 
ATOM     17  C   UNL     1      -4.095   0.523  24.101  0.00  0.00    +0.000 A 
ATOM     18  C   UNL     1      -4.330   1.295  24.269  0.00  0.00    +0.034 A 
ATOM     19  C   UNL     1      -4.588   1.492  25.028  0.00  0.00    +0.132 A 
ATOM     20  N   UNL     1      -4.611   0.916  25.618  0.00  0.00    -0.229 NA
ATOM     21  C   UNL     1      -4.376   0.143  25.450  0.00  0.00    +0.096 A 
BRANCH  19  22
ATOM     22  N   UNL     1      -4.823   2.264  25.197  0.00  0.00    -0.288 N 
ATOM     23  C   UNL     1      -4.281   2.883  25.135  0.00  0.00    +0.124 C 
ATOM     24  C   UNL     1      -4.517   3.656  25.304  0.00  0.00    +0.164 C 
ATOM     25  O   UNL     1      -5.294   3.810  25.534  0.00  0.00    -0.350 OA
ATOM     26  C   UNL     1      -5.836   3.191  25.596  0.00  0.00    +0.164 C 
ATOM     27  C   UNL     1      -5.601   2.418  25.427  0.00  0.00    +0.124 C 
ENDBRANCH  19  22
ENDBRANCH  15  16
BRANCH   9   8
ATOM      8  N   UNL     1      -2.572  -0.819  25.189  0.00  0.00    -0.218 NA
BRANCH   8   5
ATOM      1  C   UNL     1       0.505  -0.718  24.003  0.00  0.00    +0.090 C 
ATOM      2  N   UNL     1      -0.264  -0.743  24.299  0.00  0.00    -0.271 NA
ATOM      3  C   UNL     1      -0.462  -1.286  24.888  0.00  0.00    +0.074 C 
ATOM      4  C   UNL     1      -1.232  -1.311  25.185  0.00  0.00    +0.035 C 
ATOM      5  C   UNL     1      -1.803  -0.793  24.892  0.00  0.00    +0.076 C 
ATOM      6  C   UNL     1      -1.606  -0.250  24.303  0.00  0.00    +0.035 C 
ATOM      7  C   UNL     1      -0.837  -0.225  24.007  0.00  0.00    +0.074 C 
ENDBRANCH   8   5
ENDBRANCH   9   8
TORSDOF 4
ENDMDL
MODEL 3
REMARK VINA RESULT:     -10.2      1.282      4.590
REMARK  Name = 
REMARK  4 active torsions:
REMARK  status: ('A' for Active; 'I' for Inactive)
REMARK    1  A    between atoms: C_5  and  N_8
REMARK    2  A    between atoms: N_8  and  C_9
REMARK    3  A    between atoms: C_15  and  C_16
REMARK    4  A    between atoms: C_19  and  N_22
REMARK                            x       y       z     vdW  Elec       q    Type
REMARK                         _______ _______ _______ _____ _____    ______ ____
ROOT
ATOM      9  C   UNL     1      -4.639   1.521  24.688  0.00  0.00    +0.110 C 
ATOM     10  C   UNL     1      -5.413   1.271  24.822  0.00  0.00    +0.198 C 
ATOM     11  O   UNL     1      -5.732   0.542  24.603  0.00  0.00    -0.219 OA
ATOM     12  C   UNL     1      -5.814   1.878  25.212  0.00  0.00    +0.184 C 
ATOM     13  O   UNL     1      -6.603   1.863  25.452  0.00  0.00    -0.220 OA
ATOM     14  C   UNL     1      -5.286   2.503  25.320  0.00  0.00    +0.041 C 
ATOM     15  C   UNL     1      -4.560   2.283  24.996  0.00  0.00    +0.045 C 
ENDROOT
BRANCH  15  16
ATOM     16  C   UNL     1      -3.875   2.743  24.983  0.00  0.00    -0.002 A 
ATOM     17  C   UNL     1      -3.477   2.910  25.686  0.00  0.00    +0.000 A 
ATOM     18  C   UNL     1      -2.793   3.370  25.673  0.00  0.00    +0.034 A 
ATOM     19  C   UNL     1      -2.506   3.663  24.957  0.00  0.00    +0.132 A 
ATOM     20  N   UNL     1      -2.904   3.495  24.254  0.00  0.00    -0.229 NA
ATOM     21  C   UNL     1      -3.588   3.035  24.266  0.00  0.00    +0.096 A 
BRANCH  19  22
ATOM     22  N   UNL     1      -1.822   4.122  24.943  0.00  0.00    -0.288 N 
ATOM     23  C   UNL     1      -1.086   3.764  24.834  0.00  0.00    +0.124 C 
ATOM     24  C   UNL     1      -0.401   4.224  24.820  0.00  0.00    +0.164 C 
ATOM     25  O   UNL     1      -0.451   5.042  24.916  0.00  0.00    -0.350 OA
ATOM     26  C   UNL     1      -1.186   5.401  25.025  0.00  0.00    +0.164 C 
ATOM     27  C   UNL     1      -1.871   4.940  25.038  0.00  0.00    +0.124 C 
ENDBRANCH  19  22
ENDBRANCH  15  16
BRANCH   9   8
ATOM      8  N   UNL     1      -4.047   1.086  24.313  0.00  0.00    -0.218 NA
BRANCH   8   5
ATOM      1  C   UNL     1      -3.550  -2.072  25.126  0.00  0.00    +0.090 C 
ATOM      2  N   UNL     1      -3.674  -1.283  24.924  0.00  0.00    -0.271 NA
ATOM      3  C   UNL     1      -3.974  -1.091  24.179  0.00  0.00    +0.074 C 
ATOM      4  C   UNL     1      -4.098  -0.300  23.976  0.00  0.00    +0.035 C 
ATOM      5  C   UNL     1      -3.923   0.297  24.517  0.00  0.00    +0.076 C 
ATOM      6  C   UNL     1      -3.623   0.105  25.261  0.00  0.00    +0.035 C 
ATOM      7  C   UNL     1      -3.499  -0.685  25.464  0.00  0.00    +0.074 C 
ENDBRANCH   8   5
ENDBRANCH   9   8
TORSDOF 4
ENDMDL
MODEL 4
REMARK VINA RESULT:     -10.0      2.137      5.504
REMARK  Name = 
REMARK  4 active torsions:
REMARK  status: ('A' for Active; 'I' for Inactive)
REMARK    1  A    between atoms: C_5  and  N_8
REMARK    2  A    between atoms: N_8  and  C_9
REMARK    3  A    between atoms: C_15  and  C_16
REMARK    4  A    between atoms: C_19  and  N_22
REMARK                            x       y       z     vdW  Elec       q    Type
REMARK                         _______ _______ _______ _____ _____    ______ ____
ROOT
ATOM      9  C   UNL     1      -1.258  -0.148  24.844  0.00  0.00    +0.110 C 
ATOM     10  C   UNL     1      -0.872  -0.839  24.612  0.00  0.00    +0.198 C 
ATOM     11  O   UNL     1      -1.150  -1.609  24.718  0.00  0.00    -0.219 OA
ATOM     12  C   UNL     1      -0.160  -0.625  24.254  0.00  0.00    +0.184 C 
ATOM     13  O   UNL     1       0.399  -1.144  23.940  0.00  0.00    -0.220 OA
ATOM     14  C   UNL     1      -0.105   0.198  24.265  0.00  0.00    +0.041 C 
ATOM     15  C   UNL     1      -0.784   0.493  24.630  0.00  0.00    +0.045 C 
ENDROOT
BRANCH  15  16
ATOM     16  C   UNL     1      -0.959   1.290  24.758  0.00  0.00    -0.002 A 
ATOM     17  C   UNL     1      -0.859   1.618  25.509  0.00  0.00    +0.000 A 
ATOM     18  C   UNL     1      -1.033   2.414  25.637  0.00  0.00    +0.034 A 
ATOM     19  C   UNL     1      -1.307   2.882  25.015  0.00  0.00    +0.132 A 
ATOM     20  N   UNL     1      -1.406   2.553  24.265  0.00  0.00    -0.229 NA
ATOM     21  C   UNL     1      -1.232   1.757  24.136  0.00  0.00    +0.096 A 
BRANCH  19  22
ATOM     22  N   UNL     1      -1.481   3.677  25.142  0.00  0.00    -0.288 N 
ATOM     23  C   UNL     1      -0.936   4.258  24.929  0.00  0.00    +0.124 C 
ATOM     24  C   UNL     1      -1.110   5.055  25.056  0.00  0.00    +0.164 C 
ATOM     25  O   UNL     1      -1.829   5.271  25.398  0.00  0.00    -0.350 OA
ATOM     26  C   UNL     1      -2.375   4.690  25.612  0.00  0.00    +0.164 C 
ATOM     27  C   UNL     1      -2.200   3.893  25.484  0.00  0.00    +0.124 C 
ENDBRANCH  19  22
ENDBRANCH  15  16
BRANCH   9   8
ATOM      8  N   UNL     1      -1.988  -0.105  25.224  0.00  0.00    -0.218 NA
BRANCH   8   5
ATOM      1  C   UNL     1      -4.544  -1.859  24.093  0.00  0.00    +0.090 C 
ATOM      2  N   UNL     1      -3.905  -1.420  24.375  0.00  0.00    -0.271 NA
ATOM      3  C   UNL     1      -3.525  -1.647  25.071  0.00  0.00    +0.074 C 
ATOM      4  C   UNL     1      -2.886  -1.208  25.354  0.00  0.00    +0.035 C 
ATOM      5  C   UNL     1      -2.627  -0.543  24.940  0.00  0.00    +0.076 C 
ATOM      6  C   UNL     1      -3.007  -0.316  24.244  0.00  0.00    +0.035 C 
ATOM      7  C   UNL     1      -3.646  -0.755  23.962  0.00  0.00    +0.074 C 
ENDBRANCH   8   5
ENDBRANCH   9   8
TORSDOF 4
ENDMDL
MODEL 5
REMARK VINA RESULT:      -9.8      2.578      3.703
REMARK  Name = 
REMARK  4 active torsions:
REMARK  status: ('A' for Active; 'I' for Inactive)
REMARK    1  A    between atoms: C_5  and  N_8
REMARK    2  A    between atoms: N_8  and  C_9
REMARK    3  A    between atoms: C_15  and  C_16
REMARK    4  A    between atoms: C_19  and  N_22
REMARK                            x       y       z     vdW  Elec       q    Type
REMARK                         _______ _______ _______ _____ _____    ______ ____
ROOT
ATOM      9  C   UNL     1      -1.810   3.813  25.386  0.00  0.00    +0.110 C 
ATOM     10  C   UNL     1      -1.825   4.636  25.433  0.00  0.00    +0.198 C 
ATOM     11  O   UNL     1      -2.387   5.089  25.834  0.00  0.00    -0.219 OA
ATOM     12  C   UNL     1      -1.180   4.928  25.009  0.00  0.00    +0.184 C 
ATOM     13  O   UNL     1      -0.983   5.723  24.912  0.00  0.00    -0.220 OA
ATOM     14  C   UNL     1      -0.766   4.284  24.700  0.00  0.00    +0.041 C 
ATOM     15  C   UNL     1      -1.156   3.595  24.932  0.00  0.00    +0.045 C 
ENDROOT
BRANCH  15  16
ATOM     16  C   UNL     1      -0.930   2.823  24.745  0.00  0.00    -0.002 A 
ATOM     17  C   UNL     1      -0.520   2.368  25.297  0.00  0.00    +0.000 A 
ATOM     18  C   UNL     1      -0.295   1.597  25.110  0.00  0.00    +0.034 A 
ATOM     19  C   UNL     1      -0.480   1.282  24.370  0.00  0.00    +0.132 A 
ATOM     20  N   UNL     1      -0.890   1.737  23.818  0.00  0.00    -0.229 NA
ATOM     21  C   UNL     1      -1.116   2.509  24.005  0.00  0.00    +0.096 A 
BRANCH  19  22
ATOM     22  N   UNL     1      -0.255   0.511  24.182  0.00  0.00    -0.288 N 
ATOM     23  C   UNL     1       0.320   0.378  23.606  0.00  0.00    +0.124 C 
ATOM     24  C   UNL     1       0.546  -0.393  23.417  0.00  0.00    +0.164 C 
ATOM     25  O   UNL     1       0.196  -1.032  23.806  0.00  0.00    -0.350 OA
ATOM     26  C   UNL     1      -0.378  -0.899  24.382  0.00  0.00    +0.164 C 
ATOM     27  C   UNL     1      -0.604  -0.128  24.571  0.00  0.00    +0.124 C 
ENDBRANCH  19  22
ENDBRANCH  15  16
BRANCH   9   8
ATOM      8  N   UNL     1      -2.354   3.298  25.730  0.00  0.00    -0.218 NA
BRANCH   8   5
ATOM      1  C   UNL     1      -5.589   3.786  25.310  0.00  0.00    +0.090 C 
ATOM      2  N   UNL     1      -4.781   3.664  25.415  0.00  0.00    -0.271 NA
ATOM      3  C   UNL     1      -4.434   3.806  26.150  0.00  0.00    +0.074 C 
ATOM      4  C   UNL     1      -3.624   3.683  26.255  0.00  0.00    +0.035 C 
ATOM      5  C   UNL     1      -3.163   3.420  25.625  0.00  0.00    +0.076 C 
ATOM      6  C   UNL     1      -3.509   3.278  24.890  0.00  0.00    +0.035 C 
ATOM      7  C   UNL     1      -4.318   3.400  24.785  0.00  0.00    +0.074 C 
ENDBRANCH   8   5
ENDBRANCH   9   8
TORSDOF 4
ENDMDL
MODEL 6
REMARK VINA RESULT:      -9.6      1.519      2.408
REMARK  Name = 
REMARK  4 active torsions:
REMARK  status: ('A' for Active; 'I' for Inactive)
REMARK    1  A    between atoms: C_5  and  N_8
REMARK    2  A    between atoms: N_8  and  C_9
REMARK    3  A    between atoms: C_15  and  C_16
REMARK    4  A    between atoms: C_19  and  N_22
REMARK                            x       y       z     vdW  Elec       q    Type
REMARK                         _______ _______ _______ _____ _____    ______ ____
ROOT
ATOM      9  C   UNL     1      -2.365   2.127  24.795  0.00  0.00    +0.110 C 
ATOM     10  C   UNL     1      -1.879   2.741  25.055  0.00  0.00    +0.198 C 
ATOM     11  O   UNL     1      -2.011   3.547  24.937  0.00  0.00    -0.219 OA
ATOM     12  C   UNL     1      -1.237   2.408  25.453  0.00  0.00    +0.184 C 
ATOM     13  O   UNL     1      -0.616   2.822  25.803  0.00  0.00    -0.220 OA
ATOM     14  C   UNL     1      -1.327   1.588  25.439  0.00  0.00    +0.041 C 
ATOM     15  C   UNL     1      -2.024   1.414  25.032  0.00  0.00    +0.045 C 
ENDROOT
BRANCH  15  16
ATOM     16  C   UNL     1      -2.326   0.659  24.889  0.00  0.00    -0.002 A 
ATOM     17  C   UNL     1      -2.622   0.208  25.513  0.00  0.00    +0.000 A 
ATOM     18  C   UNL     1      -2.924  -0.545  25.369  0.00  0.00    +0.034 A 
ATOM     19  C   UNL     1      -2.931  -0.848  24.602  0.00  0.00    +0.132 A 
ATOM     20  N   UNL     1      -2.634  -0.397  23.978  0.00  0.00    -0.229 NA
ATOM     21  C   UNL     1      -2.332   0.357  24.121  0.00  0.00    +0.096 A 
BRANCH  19  22
ATOM     22  N   UNL     1      -3.233  -1.602  24.458  0.00  0.00    -0.288 N 
ATOM     23  C   UNL     1      -2.823  -2.267  24.721  0.00  0.00    +0.124 C 
ATOM     24  C   UNL     1      -3.125  -3.022  24.577  0.00  0.00    +0.164 C 
ATOM     25  O   UNL     1      -3.837  -3.111  24.170  0.00  0.00    -0.350 OA
ATOM     26  C   UNL     1      -4.247  -2.445  23.907  0.00  0.00    +0.164 C 
ATOM     27  C   UNL     1      -3.945  -1.691  24.051  0.00  0.00    +0.124 C 
ENDBRANCH  19  22
ENDBRANCH  15  16
BRANCH   9   8
ATOM      8  N   UNL     1      -3.067   2.211  24.373  0.00  0.00    -0.218 NA
BRANCH   8   5
ATOM      1  C   UNL     1      -5.474   4.144  25.535  0.00  0.00    +0.090 C 
ATOM      2  N   UNL     1      -4.873   3.661  25.245  0.00  0.00    -0.271 NA
ATOM      3  C   UNL     1      -4.420   3.908  24.601  0.00  0.00    +0.074 C 
ATOM      4  C   UNL     1      -3.818   3.424  24.310  0.00  0.00    +0.035 C 
ATOM      5  C   UNL     1      -3.669   2.694  24.664  0.00  0.00    +0.076 C 
ATOM      6  C   UNL     1      -4.122   2.447  25.308  0.00  0.00    +0.035 C 
ATOM      7  C   UNL     1      -4.723   2.930  25.598  0.00  0.00    +0.074 C 
ENDBRANCH   8   5
ENDBRANCH   9   8
TORSDOF 4
ENDMDL
