MODEL 1
REMARK VINA RESULT:     -12.0      0.000      0.000
REMARK  Name = 
REMARK  5 active torsions:
REMARK  status: ('A' for Active; 'I' for Inactive)
REMARK    1  A    between atoms: O_2  and  C_3
REMARK    2  A    between atoms: C_3  and  C_5
REMARK    3  A    between atoms: N_10  and  S_11
REMARK    4  A    between atoms: S_11  and  C_14
REMARK    5  A    between atoms: C_20  and  C_22
REMARK                            x       y       z     vdW  Elec       q    Type
REMARK                         _______ _______ _______ _____ _____    ______ ____
ROOT
ATOM      5  C   UNL     1      -3.605   2.161  24.727  0.00  0.00    +0.198 C 
ATOM      6  C   UNL     1      -4.122   1.519  24.698  0.00  0.00    +0.123 C 
ATOM      7  N   UNL     1      -3.826   0.749  24.725  0.00  0.00    -0.273 N 
ATOM      8  C   UNL     1      -3.012   0.622  24.781  0.00  0.00    +0.113 C 
ATOM      9  C   UNL     1      -2.496   1.265  24.809  0.00  0.00    +0.118 C 
ATOM     10  N   UNL     1      -2.792   2.034  24.782  0.00  0.00    -0.143 NA
ATOM     20  C   UNL     1      -4.342   0.107  24.697  0.00  0.00    +0.249 C 
ATOM     21  O   UNL     1      -5.156   0.234  24.641  0.00  0.00    -0.270 OA
ENDROOT
BRANCH  20  22
ATOM     22  C   UNL     1      -4.046  -0.662  24.724  0.00  0.00    +0.056 A 
ATOM     23  C   UNL     1      -3.935  -1.087  24.025  0.00  0.00    +0.005 A 
ATOM     24  C   UNL     1      -3.639  -1.856  24.052  0.00  0.00    +0.002 A 
ATOM     25  C   UNL     1      -3.453  -2.201  24.778  0.00  0.00    +0.030 A 
ATOM     26  C   UNL     1      -3.564  -1.777  25.476  0.00  0.00    +0.140 A 
ATOM     27  F   UNL     1      -3.378  -2.122  26.203  0.00  0.00    -0.204 F 
ATOM     28  C   UNL     1      -3.860  -1.007  25.449  0.00  0.00    +0.034 A 
ENDBRANCH  20  22
BRANCH  10  11
ATOM     11  S   UNL     1      -2.275   2.676  24.810  0.00  0.00    +0.064 S 
ATOM     12  O   UNL     1      -2.260   2.701  23.986  0.00  0.00    -0.153 OA
ATOM     13  O   UNL     1      -2.290   2.652  25.635  0.00  0.00    -0.153 OA
BRANCH  11  14
ATOM     14  C   UNL     1      -1.758   3.319  24.839  0.00  0.00    +0.122 A 
ATOM     15  C   UNL     1      -1.276   3.490  24.191  0.00  0.00    +0.020 A 
ATOM     16  C   UNL     1      -0.759   4.132  24.220  0.00  0.00    +0.001 A 
ATOM     17  C   UNL     1      -0.724   4.603  24.896  0.00  0.00    +0.000 A 
ATOM     18  C   UNL     1      -1.204   4.432  25.544  0.00  0.00    +0.001 A 
ATOM     19  C   UNL     1      -1.722   3.789  25.516  0.00  0.00    +0.020 A 
ENDBRANCH  11  14
ENDBRANCH  10  11
BRANCH   5   3
ATOM      3  C   UNL     1      -3.901   2.931  24.699  0.00  0.00    +0.335 C 
ATOM      4  O   UNL     1      -3.890   3.353  23.990  0.00  0.00    -0.248 OA
BRANCH   3   2
ATOM      1  C   UNL     1      -4.905   3.720  25.341  0.00  0.00    +0.256 C 
ATOM      2  O   UNL     1      -4.209   3.279  25.381  0.00  0.00    -0.443 OA
ENDBRANCH   3   2
ENDBRANCH   5   3
TORSDOF 5
ENDMDL
MODEL 2
REMARK VINA RESULT:     -11.5      2.125      5.036
REMARK  Name = 
REMARK  5 active torsions:
REMARK  status: ('A' for Active; 'I' for Inactive)
REMARK    1  A    between atoms: O_2  and  C_3
REMARK    2  A    between atoms: C_3  and  C_5
REMARK    3  A    between atoms: N_10  and  S_11
REMARK    4  A    between atoms: S_11  and  C_14
REMARK    5  A    between atoms: C_20  and  C_22
REMARK                            x       y       z     vdW  Elec       q    Type
REMARK                         _______ _______ _______ _____ _____    ______ ____
ROOT
ATOM      5  C   UNL     1      -1.516   0.408  25.028  0.00  0.00    +0.198 C 
ATOM      6  C   UNL     1      -1.086   1.097  25.173  0.00  0.00    +0.123 C 
ATOM      7  N   UNL     1      -1.474   1.824  25.216  0.00  0.00    -0.273 N 
ATOM      8  C   UNL     1      -2.292   1.861  25.114  0.00  0.00    +0.113 C 
ATOM      9  C   UNL     1      -2.721   1.172  24.969  0.00  0.00    +0.118 C 
ATOM     10  N   UNL     1      -2.333   0.445  24.926  0.00  0.00    -0.143 NA
ATOM     20  C   UNL     1      -1.045   2.513  25.361  0.00  0.00    +0.249 C 
ATOM     21  O   UNL     1      -0.226   2.475  25.463  0.00  0.00    -0.270 OA
ENDROOT
BRANCH  20  22
ATOM     22  C   UNL     1      -1.432   3.239  25.404  0.00  0.00    +0.056 A 
ATOM     23  C   UNL     1      -1.336   3.795  24.801  0.00  0.00    +0.005 A 
ATOM     24  C   UNL     1      -1.725   4.521  24.844  0.00  0.00    +0.002 A 
ATOM     25  C   UNL     1      -2.209   4.692  25.490  0.00  0.00    +0.030 A 
ATOM     26  C   UNL     1      -2.305   4.138  26.092  0.00  0.00    +0.140 A 
ATOM     27  F   UNL     1      -2.789   4.309  26.738  0.00  0.00    -0.204 F 
ATOM     28  C   UNL     1      -1.917   3.411  26.049  0.00  0.00    +0.034 A 
ENDBRANCH  20  22
BRANCH  10  11
ATOM     11  S   UNL     1      -2.763  -0.243  24.781  0.00  0.00    +0.064 S 
ATOM     12  O   UNL     1      -2.827  -0.375  25.593  0.00  0.00    -0.153 OA
ATOM     13  O   UNL     1      -2.699  -0.113  23.969  0.00  0.00    -0.153 OA
BRANCH  11  14
ATOM     14  C   UNL     1      -3.193  -0.933  24.636  0.00  0.00    +0.122 A 
ATOM     15  C   UNL     1      -3.552  -1.048  23.901  0.00  0.00    +0.020 A 
ATOM     16  C   UNL     1      -3.981  -1.737  23.756  0.00  0.00    +0.001 A 
ATOM     17  C   UNL     1      -4.053  -2.311  24.345  0.00  0.00    +0.000 A 
ATOM     18  C   UNL     1      -3.695  -2.195  25.078  0.00  0.00    +0.001 A 
ATOM     19  C   UNL     1      -3.265  -1.507  25.224  0.00  0.00    +0.020 A 
ENDBRANCH  11  14
ENDBRANCH  10  11
BRANCH   5   3
ATOM      3  C   UNL     1      -1.128  -0.320  24.985  0.00  0.00    +0.335 C 
ATOM      4  O   UNL     1      -1.101  -0.812  25.647  0.00  0.00    -0.248 OA
BRANCH   3   2
ATOM      1  C   UNL     1      -0.033  -0.930  24.300  0.00  0.00    +0.256 C 
ATOM      2  O   UNL     1      -0.767  -0.554  24.282  0.00  0.00    -0.443 OA
ENDBRANCH   3   2
ENDBRANCH   5   3
TORSDOF 5
ENDMDL
