MODEL 1
REMARK VINA RESULT:     -10.4      0.000      0.000
REMARK  Name = 
REMARK  3 active torsions:
REMARK  status: ('A' for Active; 'I' for Inactive)
REMARK    1  A    between atoms: C_4  and  C_17
REMARK    2  A    between atoms: C_6  and  C_7
REMARK    3  A    between atoms: C_14  and  C_15
REMARK                            x       y       z     vdW  Elec       q    Type
REMARK                         _______ _______ _______ _____ _____    ______ ____
ROOT
ATOM      1  C   UNL     1      -3.241   1.426  23.365  0.00  0.00    +0.153 C 
ATOM      2  N   UNL     1      -3.494   0.819  23.862  0.00  0.00    -0.253 N 
ATOM      3  N   UNL     1      -3.335   0.014  23.766  0.00  0.00    -0.169 NA
ATOM      4  C   UNL     1      -3.692  -0.393  24.387  0.00  0.00    +0.108 A 
ATOM      5  C   UNL     1      -4.072   0.159  24.868  0.00  0.00    +0.036 A 
ATOM      6  C   UNL     1      -3.949   0.907  24.544  0.00  0.00    +0.058 A 
ENDROOT
BRANCH   6   7
ATOM      7  C   UNL     1      -4.233   1.621  24.849  0.00  0.00    +0.056 C 
ATOM      8  C   UNL     1      -3.709   2.172  25.011  0.00  0.00    +0.078 C 
ATOM      9  N   UNL     1      -4.526   2.231  25.115  0.00  0.00    -0.272 NA
ATOM     10  C   UNL     1      -4.943   1.321  24.804  0.00  0.00    +0.072 C 
ATOM     11  C   UNL     1      -5.464   0.938  24.707  0.00  0.00    +0.018 C 
ATOM     12  C   UNL     1      -5.034   1.685  24.954  0.00  0.00    +0.010 C 
ATOM     13  C   UNL     1      -5.536   2.338  25.257  0.00  0.00    +0.018 C 
ATOM     14  C   UNL     1      -5.055   2.905  25.429  0.00  0.00    +0.077 C 
BRANCH  14  15
ATOM     15  C   UNL     1      -5.029   3.674  25.724  0.00  0.00    +0.125 C 
ATOM     16  N   UNL     1      -5.715   4.130  25.749  0.00  0.00    -0.130 NA
ENDBRANCH  14  15
ENDBRANCH   6   7
BRANCH   4  17
ATOM     17  C   UNL     1      -3.673  -1.209  24.506  0.00  0.00    +0.049 A 
ATOM     18  C   UNL     1      -4.029  -1.778  24.027  0.00  0.00    +0.009 A 
ATOM     19  C   UNL     1      -3.870  -2.520  24.351  0.00  0.00    +0.008 A 
ATOM     20  C   UNL     1      -3.415  -2.409  25.030  0.00  0.00    +0.035 A 
ATOM     21  S   UNL     1      -3.293  -1.599  25.127  0.00  0.00    -0.085 S 
ENDBRANCH   4  17
TORSDOF 3
ENDMDL
MODEL 2
REMARK VINA RESULT:     -10.1      1.459      4.029
REMARK  Name = 
REMARK  3 active torsions:
REMARK  status: ('A' for Active; 'I' for Inactive)
REMARK    1  A    between atoms: C_4  and  C_17
REMARK    2  A    between atoms: C_6  and  C_7
REMARK    3  A    between atoms: C_14  and  C_15
REMARK                            x       y       z     vdW  Elec       q    Type
REMARK                         _______ _______ _______ _____ _____    ______ ____
ROOT
ATOM      1  C   UNL     1      -2.952   0.791  23.499  0.00  0.00    +0.153 C 
ATOM      2  N   UNL     1      -3.566   0.965  24.021  0.00  0.00    -0.253 N 
ATOM      3  N   UNL     1      -3.830   1.720  24.225  0.00  0.00    -0.169 NA
ATOM      4  C   UNL     1      -4.452   1.637  24.760  0.00  0.00    +0.108 A 
ATOM      5  C   UNL     1      -4.573   0.831  24.887  0.00  0.00    +0.036 A 
ATOM      6  C   UNL     1      -4.025   0.416  24.430  0.00  0.00    +0.058 A 
ENDROOT
BRANCH   6   7
ATOM      7  C   UNL     1      -3.950  -0.406  24.390  0.00  0.00    +0.056 C 
ATOM      8  C   UNL     1      -4.145  -0.749  23.719  0.00  0.00    +0.078 C 
ATOM      9  N   UNL     1      -3.869  -1.128  24.399  0.00  0.00    -0.272 NA
ATOM     10  C   UNL     1      -3.700  -0.387  25.120  0.00  0.00    +0.072 C 
ATOM     11  C   UNL     1      -3.512  -0.211  25.721  0.00  0.00    +0.018 C 
ATOM     12  C   UNL     1      -3.680  -0.785  25.053  0.00  0.00    +0.010 C 
ATOM     13  C   UNL     1      -3.529  -1.632  25.225  0.00  0.00    +0.018 C 
ATOM     14  C   UNL     1      -3.710  -2.007  24.585  0.00  0.00    +0.077 C 
BRANCH  14  15
ATOM     15  C   UNL     1      -3.742  -2.762  24.256  0.00  0.00    +0.125 C 
ATOM     16  N   UNL     1      -3.374  -3.395  24.636  0.00  0.00    -0.130 NA
ENDBRANCH  14  15
ENDBRANCH   6   7
BRANCH   4  17
ATOM     17  C   UNL     1      -4.878   2.252  25.108  0.00  0.00    +0.049 A 
ATOM     18  C   UNL     1      -5.679   2.237  25.306  0.00  0.00    +0.009 A 
ATOM     19  C   UNL     1      -5.873   2.966  25.638  0.00  0.00    +0.008 A 
ATOM     20  C   UNL     1      -5.193   3.432  25.646  0.00  0.00    +0.035 A 
ATOM     21  S   UNL     1      -4.577   2.992  25.318  0.00  0.00    -0.085 S 
ENDBRANCH   4  17
TORSDOF 3
ENDMDL
MODEL 3
REMARK VINA RESULT:      -9.8      1.294      1.905
REMARK  Name = 
REMARK  3 active torsions:
REMARK  status: ('A' for Active; 'I' for Inactive)
REMARK    1  A    between atoms: C_4  and  C_17
REMARK    2  A    between atoms: C_6  and  C_7
REMARK    3  A    between atoms: C_14  and  C_15
REMARK                            x       y       z     vdW  Elec       q    Type
REMARK                         _______ _______ _______ _____ _____    ______ ____
ROOT
ATOM      1  C   UNL     1      -5.285   1.842  24.819  0.00  0.00    +0.153 C 
ATOM      2  N   UNL     1      -4.698   1.263  24.787  0.00  0.00    -0.253 N 
ATOM      3  N   UNL     1      -4.822   0.450  24.713  0.00  0.00    -0.169 NA
ATOM      4  C   UNL     1      -4.085   0.080  24.704  0.00  0.00    +0.108 A 
ATOM      5  C   UNL     1      -3.506   0.663  24.773  0.00  0.00    +0.036 A 
ATOM      6  C   UNL     1      -3.885   1.394  24.824  0.00  0.00    +0.058 A 
ENDROOT
BRANCH   6   7
ATOM      7  C   UNL     1      -3.514   2.128  24.900  0.00  0.00    +0.056 C 
ATOM      8  C   UNL     1      -3.647   2.529  25.554  0.00  0.00    +0.078 C 
ATOM      9  N   UNL     1      -3.169   2.768  24.925  0.00  0.00    -0.272 NA
ATOM     10  C   UNL     1      -3.202   2.006  24.204  0.00  0.00    +0.072 C 
ATOM     11  C   UNL     1      -3.021   1.764  23.625  0.00  0.00    +0.018 C 
ATOM     12  C   UNL     1      -3.043   2.369  24.287  0.00  0.00    +0.010 C 
ATOM     13  C   UNL     1      -2.567   3.096  24.161  0.00  0.00    +0.018 C 
ATOM     14  C   UNL     1      -2.672   3.520  24.787  0.00  0.00    +0.077 C 
BRANCH  14  15
ATOM     15  C   UNL     1      -2.460   4.237  25.135  0.00  0.00    +0.125 C 
ATOM     16  N   UNL     1      -1.675   4.491  25.111  0.00  0.00    -0.130 NA
ENDBRANCH  14  15
ENDBRANCH   6   7
BRANCH   4  17
ATOM     17  C   UNL     1      -3.951  -0.731  24.638  0.00  0.00    +0.049 A 
ATOM     18  C   UNL     1      -4.138  -1.203  23.987  0.00  0.00    +0.009 A 
ATOM     19  C   UNL     1      -3.910  -1.976  24.158  0.00  0.00    +0.008 A 
ATOM     20  C   UNL     1      -3.582  -1.983  24.915  0.00  0.00    +0.035 A 
ATOM     21  S   UNL     1      -3.607  -1.214  25.212  0.00  0.00    -0.085 S 
ENDBRANCH   4  17
TORSDOF 3
ENDMDL
MODEL 4
REMARK VINA RESULT:      -9.7      1.847      4.091
REMARK  Name = 
REMARK  3 active torsions:
REMARK  status: ('A' for Active; 'I' for Inactive)
REMARK    1  A    between atoms: C_4  and  C_17
REMARK    2  A    between atoms: C_6  and  C_7
REMARK    3  A    between atoms: C_14  and  C_15
REMARK                            x       y       z     vdW  Elec       q    Type
REMARK                         _______ _______ _______ _____ _____    ______ ____
ROOT
ATOM      1  C   UNL     1      -5.131   2.218  24.692  0.00  0.00    +0.153 C 
ATOM      2  N   UNL     1      -4.319   2.309  24.806  0.00  0.00    -0.253 N 
ATOM      3  N   UNL     1      -3.928   3.018  24.964  0.00  0.00    -0.169 NA
ATOM      4  C   UNL     1      -3.123   2.855  25.039  0.00  0.00    +0.108 A 
ATOM      5  C   UNL     1      -3.016   2.045  24.928  0.00  0.00    +0.036 A 
ATOM      6  C   UNL     1      -3.755   1.708  24.784  0.00  0.00    +0.058 A 
ENDROOT
BRANCH   6   7
ATOM      7  C   UNL     1      -3.905   0.907  24.643  0.00  0.00    +0.056 C 
ATOM      8  C   UNL     1      -4.333   0.527  25.169  0.00  0.00    +0.078 C 
ATOM      9  N   UNL     1      -4.011   0.207  24.480  0.00  0.00    -0.272 NA
ATOM     10  C   UNL     1      -3.493   0.978  23.994  0.00  0.00    +0.072 C 
ATOM     11  C   UNL     1      -3.129   1.191  23.495  0.00  0.00    +0.018 C 
ATOM     12  C   UNL     1      -3.592   0.586  23.969  0.00  0.00    +0.010 C 
ATOM     13  C   UNL     1      -3.626  -0.223  23.632  0.00  0.00    +0.018 C 
ATOM     14  C   UNL     1      -4.043  -0.633  24.124  0.00  0.00    +0.077 C 
BRANCH  14  15
ATOM     15  C   UNL     1      -4.343  -1.389  24.256  0.00  0.00    +0.125 C 
ATOM     16  N   UNL     1      -4.012  -2.038  23.870  0.00  0.00    -0.130 NA
ENDBRANCH  14  15
ENDBRANCH   6   7
BRANCH   4  17
ATOM     17  C   UNL     1      -2.529   3.405  25.197  0.00  0.00    +0.049 A 
ATOM     18  C   UNL     1      -1.847   3.270  25.640  0.00  0.00    +0.009 A 
ATOM     19  C   UNL     1      -1.410   3.969  25.656  0.00  0.00    +0.008 A 
ATOM     20  C   UNL     1      -1.822   4.537  25.222  0.00  0.00    +0.035 A 
ATOM     21  S   UNL     1      -2.514   4.189  24.938  0.00  0.00    -0.085 S 
ENDBRANCH   4  17
TORSDOF 3
ENDMDL
