MODEL 1
REMARK VINA RESULT:     -10.7      0.000      0.000
REMARK  Name = 
REMARK  5 active torsions:
REMARK  status: ('A' for Active; 'I' for Inactive)
REMARK    1  A    between atoms: C_2  and  S_3
REMARK    2  A    between atoms: S_3  and  C_6
REMARK    3  A    between atoms: C_11  and  C_13
REMARK    4  A    between atoms: N_16  and  C_17
REMARK    5  A    between atoms: C_17  and  C_18
REMARK                            x       y       z     vdW  Elec       q    Type
REMARK                         _______ _______ _______ _____ _____    ______ ____
ROOT
ATOM      6  C   UNL     1      -0.830   3.401  25.292  0.00  0.00    +0.107 A 
ATOM      7  C   UNL     1      -1.360   2.830  25.021  0.00  0.00    +0.041 A 
ATOM      8  C   UNL     1      -1.267   2.041  25.245  0.00  0.00    +0.120 A 
ATOM      9  C   UNL     1      -0.644   1.824  25.741  0.00  0.00    +0.164 A 
ATOM     10  O   UNL     1      -0.691   1.011  25.868  0.00  0.00    -0.438 OA
ATOM     11  C   UNL     1      -1.343   0.725  25.452  0.00  0.00    +0.207 A 
ATOM     12  N   UNL     1      -1.699   1.362  25.067  0.00  0.00    -0.212 NA
ATOM     25  C   UNL     1      -0.114   2.396  26.012  0.00  0.00    +0.040 A 
ATOM     26  C   UNL     1      -0.207   3.184  25.787  0.00  0.00    +0.022 A 
ENDROOT
BRANCH  11  13
ATOM     13  C   UNL     1      -1.595  -0.060  25.425  0.00  0.00    +0.094 C 
ATOM     14  C   UNL     1      -1.128  -0.713  25.237  0.00  0.00    +0.028 C 
ATOM     15  C   UNL     1      -1.603  -1.387  25.277  0.00  0.00    +0.073 C 
ATOM     16  N   UNL     1      -2.363  -1.150  25.490  0.00  0.00    -0.268 NA
ATOM     24  C   UNL     1      -2.359  -0.330  25.581  0.00  0.00    +0.082 C 
BRANCH  16  17
ATOM     17  C   UNL     1      -3.015  -1.646  25.593  0.00  0.00    +0.099 C 
BRANCH  17  18
ATOM     18  C   UNL     1      -3.452  -1.895  24.939  0.00  0.00    -0.003 A 
ATOM     19  C   UNL     1      -3.365  -2.665  24.654  0.00  0.00    +0.018 A 
ATOM     20  C   UNL     1      -3.802  -2.914  24.000  0.00  0.00    +0.099 A 
ATOM     21  N   UNL     1      -4.326  -2.394  23.631  0.00  0.00    -0.242 NA
ATOM     22  C   UNL     1      -4.413  -1.625  23.916  0.00  0.00    +0.099 A 
ATOM     23  C   UNL     1      -3.976  -1.375  24.571  0.00  0.00    +0.018 A 
ENDBRANCH  17  18
ENDBRANCH  16  17
ENDBRANCH  11  13
BRANCH   6   3
ATOM      3  S   UNL     1      -0.923   4.189  25.068  0.00  0.00    +0.009 S 
ATOM      4  O   UNL     1      -0.402   4.072  24.439  0.00  0.00    -0.169 OA
ATOM      5  O   UNL     1      -1.445   4.307  25.697  0.00  0.00    -0.169 OA
BRANCH   3   2
ATOM      1  C   UNL     1      -1.665   5.410  25.116  0.00  0.00    +0.028 C 
ATOM      2  C   UNL     1      -1.017   4.978  24.844  0.00  0.00    +0.156 C 
ENDBRANCH   3   2
ENDBRANCH   6   3
TORSDOF 5
ENDMDL
MODEL 2
REMARK VINA RESULT:     -10.4      2.491      5.869
REMARK  Name = 
REMARK  5 active torsions:
REMARK  status: ('A' for Active; 'I' for Inactive)
REMARK    1  A    between atoms: C_2  and  S_3
REMARK    2  A    between atoms: S_3  and  C_6
REMARK    3  A    between atoms: C_11  and  C_13
REMARK    4  A    between atoms: N_16  and  C_17
REMARK    5  A    between atoms: C_17  and  C_18
REMARK                            x       y       z     vdW  Elec       q    Type
REMARK                         _______ _______ _______ _____ _____    ______ ____
ROOT
ATOM      6  C   UNL     1      -3.592  -1.223  24.575  0.00  0.00    +0.107 A 
ATOM      7  C   UNL     1      -3.119  -0.586  24.797  0.00  0.00    +0.041 A 
ATOM      8  C   UNL     1      -3.415   0.183  24.753  0.00  0.00    +0.120 A 
ATOM      9  C   UNL     1      -4.184   0.314  24.486  0.00  0.00    +0.164 A 
ATOM     10  O   UNL     1      -4.325   1.126  24.501  0.00  0.00    -0.438 OA
ATOM     11  C   UNL     1      -3.642   1.498  24.778  0.00  0.00    +0.207 A 
ATOM     12  N   UNL     1      -3.080   0.915  24.933  0.00  0.00    -0.212 NA
ATOM     25  C   UNL     1      -4.658  -0.324  24.264  0.00  0.00    +0.040 A 
ATOM     26  C   UNL     1      -4.361  -1.093  24.308  0.00  0.00    +0.022 A 
ENDROOT
BRANCH  11  13
ATOM     13  C   UNL     1      -3.540   2.310  24.880  0.00  0.00    +0.094 C 
ATOM     14  C   UNL     1      -3.938   2.905  24.470  0.00  0.00    +0.028 C 
ATOM     15  C   UNL     1      -3.666   3.633  24.747  0.00  0.00    +0.073 C 
ATOM     16  N   UNL     1      -3.100   3.488  25.329  0.00  0.00    -0.268 NA
ATOM     24  C   UNL     1      -3.022   2.671  25.411  0.00  0.00    +0.082 C 
BRANCH  16  17
ATOM     17  C   UNL     1      -2.684   4.060  25.754  0.00  0.00    +0.099 C 
BRANCH  17  18
ATOM     18  C   UNL     1      -1.980   4.368  25.453  0.00  0.00    -0.003 A 
ATOM     19  C   UNL     1      -1.957   5.143  25.169  0.00  0.00    +0.018 A 
ATOM     20  C   UNL     1      -1.254   5.450  24.869  0.00  0.00    +0.099 A 
ATOM     21  N   UNL     1      -0.573   4.985  24.851  0.00  0.00    -0.242 NA
ATOM     22  C   UNL     1      -0.596   4.210  25.135  0.00  0.00    +0.099 A 
ATOM     23  C   UNL     1      -1.300   3.901  25.436  0.00  0.00    +0.018 A 
ENDBRANCH  17  18
ENDBRANCH  16  17
ENDBRANCH  11  13
BRANCH   6   3
ATOM      3  S   UNL     1      -3.296  -1.991  24.620  0.00  0.00    +0.009 S 
ATOM      4  O   UNL     1      -3.611  -2.070  25.378  0.00  0.00    -0.169 OA
ATOM      5  O   UNL     1      -2.980  -1.914  23.861  0.00  0.00    -0.169 OA
BRANCH   3   2
ATOM      1  C   UNL     1      -2.196  -2.900  24.538  0.00  0.00    +0.028 C 
ATOM      2  C   UNL     1      -2.999  -2.761  24.664  0.00  0.00    +0.156 C 
ENDBRANCH   3   2
ENDBRANCH   6   3
TORSDOF 5
ENDMDL
MODEL 3
REMARK VINA RESULT:     -10.4      2.177      5.493
REMARK  Name = 
REMARK  5 active torsions:
REMARK  status: ('A' for Active; 'I' for Inactive)
REMARK    1  A    between atoms: C_2  and  S_3
REMARK    2  A    between atoms: S_3  and  C_6
REMARK    3  A    between atoms: C_11  and  C_13
REMARK    4  A    between atoms: N_16  and  C_17
REMARK    5  A    between atoms: C_17  and  C_18
REMARK                            x       y       z     vdW  Elec       q    Type
REMARK                         _______ _______ _______ _____ _____    ______ ____
ROOT
ATOM      6  C   UNL     1      -2.435  -1.895  24.738  0.00  0.00    +0.107 A 
ATOM      7  C   UNL     1      -2.518  -1.077  24.678  0.00  0.00    +0.041 A 
ATOM      8  C   UNL     1      -1.864  -0.586  24.791  0.00  0.00    +0.120 A 
ATOM      9  C   UNL     1      -1.128  -0.914  24.965  0.00  0.00    +0.164 A 
ATOM     10  O   UNL     1      -0.587  -0.297  25.048  0.00  0.00    -0.438 OA
ATOM     11  C   UNL     1      -0.989   0.412  24.925  0.00  0.00    +0.207 A 
ATOM     12  N   UNL     1      -1.778   0.233  24.767  0.00  0.00    -0.212 NA
ATOM     25  C   UNL     1      -1.044  -1.733  25.025  0.00  0.00    +0.040 A 
ATOM     26  C   UNL     1      -1.698  -2.223  24.911  0.00  0.00    +0.022 A 
ENDROOT
BRANCH  11  13
ATOM     13  C   UNL     1      -0.659   1.168  24.956  0.00  0.00    +0.094 C 
ATOM     14  C   UNL     1      -0.101   1.476  24.432  0.00  0.00    +0.028 C 
ATOM     15  C   UNL     1       0.073   2.247  24.668  0.00  0.00    +0.073 C 
ATOM     16  N   UNL     1      -0.377   2.416  25.338  0.00  0.00    -0.268 NA
ATOM     24  C   UNL     1      -0.830   1.749  25.516  0.00  0.00    +0.082 C 
BRANCH  16  17
ATOM     17  C   UNL     1      -0.375   3.126  25.757  0.00  0.00    +0.099 C 
BRANCH  17  18
ATOM     18  C   UNL     1      -0.918   3.719  25.568  0.00  0.00    -0.003 A 
ATOM     19  C   UNL     1      -1.687   3.685  25.867  0.00  0.00    +0.018 A 
ATOM     20  C   UNL     1      -2.228   4.278  25.677  0.00  0.00    +0.099 A 
ATOM     21  N   UNL     1      -2.003   4.903  25.190  0.00  0.00    -0.242 NA
ATOM     22  C   UNL     1      -1.234   4.937  24.891  0.00  0.00    +0.099 A 
ATOM     23  C   UNL     1      -0.691   4.344  25.080  0.00  0.00    +0.018 A 
ENDBRANCH  17  18
ENDBRANCH  16  17
ENDBRANCH  11  13
BRANCH   6   3
ATOM      3  S   UNL     1      -3.088  -2.385  24.624  0.00  0.00    +0.009 S 
ATOM      4  O   UNL     1      -2.789  -2.615  23.891  0.00  0.00    -0.169 OA
ATOM      5  O   UNL     1      -3.388  -2.155  25.358  0.00  0.00    -0.169 OA
BRANCH   3   2
ATOM      1  C   UNL     1      -4.257  -2.737  23.882  0.00  0.00    +0.028 C 
ATOM      2  C   UNL     1      -3.742  -2.876  24.511  0.00  0.00    +0.156 C 
ENDBRANCH   3   2
ENDBRANCH   6   3
TORSDOF 5
ENDMDL
MODEL 4
REMARK VINA RESULT:     -10.3      1.671      2.287
REMARK  Name = 
REMARK  5 active torsions:
REMARK  status: ('A' for Active; 'I' for Inactive)
REMARK    1  A    between atoms: C_2  and  S_3
REMARK    2  A    between atoms: S_3  and  C_6
REMARK    3  A    between atoms: C_11  and  C_13
REMARK    4  A    between atoms: N_16  and  C_17
REMARK    5  A    between atoms: C_17  and  C_18
REMARK                            x       y       z     vdW  Elec       q    Type
REMARK                         _______ _______ _______ _____ _____    ______ ____
ROOT
ATOM      6  C   UNL     1      -2.736   3.848  25.094  0.00  0.00    +0.107 A 
ATOM      7  C   UNL     1      -2.496   3.060  25.128  0.00  0.00    +0.041 A 
ATOM      8  C   UNL     1      -3.045   2.455  25.011  0.00  0.00    +0.120 A 
ATOM      9  C   UNL     1      -3.835   2.639  24.860  0.00  0.00    +0.164 A 
ATOM     10  O   UNL     1      -4.249   1.932  24.767  0.00  0.00    -0.438 OA
ATOM     11  C   UNL     1      -3.715   1.311  24.861  0.00  0.00    +0.207 A 
ATOM     12  N   UNL     1      -2.972   1.634  25.011  0.00  0.00    -0.212 NA
ATOM     25  C   UNL     1      -4.076   3.428  24.826  0.00  0.00    +0.040 A 
ATOM     26  C   UNL     1      -3.526   4.032  24.943  0.00  0.00    +0.022 A 
ENDROOT
BRANCH  11  13
ATOM     13  C   UNL     1      -3.893   0.507  24.812  0.00  0.00    +0.094 C 
ATOM     14  C   UNL     1      -4.448   0.162  24.309  0.00  0.00    +0.028 C 
ATOM     15  C   UNL     1      -4.447  -0.652  24.444  0.00  0.00    +0.073 C 
ATOM     16  N   UNL     1      -3.890  -0.810  25.031  0.00  0.00    -0.268 NA
ATOM     24  C   UNL     1      -3.548  -0.095  25.259  0.00  0.00    +0.082 C 
BRANCH  16  17
ATOM     17  C   UNL     1      -3.706  -1.554  25.338  0.00  0.00    +0.099 C 
BRANCH  17  18
ATOM     18  C   UNL     1      -3.158  -2.036  24.952  0.00  0.00    -0.003 A 
ATOM     19  C   UNL     1      -3.419  -2.641  24.454  0.00  0.00    +0.018 A 
ATOM     20  C   UNL     1      -2.871  -3.122  24.070  0.00  0.00    +0.099 A 
ATOM     21  N   UNL     1      -2.063  -3.000  24.182  0.00  0.00    -0.242 NA
ATOM     22  C   UNL     1      -1.802  -2.395  24.680  0.00  0.00    +0.099 A 
ATOM     23  C   UNL     1      -2.350  -1.913  25.065  0.00  0.00    +0.018 A 
ENDBRANCH  17  18
ENDBRANCH  16  17
ENDBRANCH  11  13
BRANCH   6   3
ATOM      3  S   UNL     1      -2.188   4.452  25.211  0.00  0.00    +0.009 S 
ATOM      4  O   UNL     1      -2.437   4.528  25.994  0.00  0.00    -0.169 OA
ATOM      5  O   UNL     1      -1.937   4.376  24.429  0.00  0.00    -0.169 OA
BRANCH   3   2
ATOM      1  C   UNL     1      -0.925   5.051  24.914  0.00  0.00    +0.028 C 
ATOM      2  C   UNL     1      -1.638   5.057  25.328  0.00  0.00    +0.156 C 
ENDBRANCH   3   2
ENDBRANCH   6   3
TORSDOF 5
ENDMDL
