MODEL 1
REMARK VINA RESULT:      -9.8      0.000      0.000
REMARK  Name = 
REMARK  5 active torsions:
REMARK  status: ('A' for Active; 'I' for Inactive)
REMARK    1  A    between atoms: C_5  and  C_6
REMARK    2  A    between atoms: C_6  and  N_7
REMARK    3  A    between atoms: C_17  and  C_19
REMARK    4  A    between atoms: C_19  and  O_20
REMARK    5  A    between atoms: O_20  and  C_21
REMARK                            x       y       z     vdW  Elec       q    Type
REMARK                         _______ _______ _______ _____ _____    ______ ____
ROOT
ATOM      7  N   UNL     1      -0.893   2.804  25.421  0.00  0.00    -0.258 N 
ATOM      8  C   UNL     1      -1.711   2.693  25.405  0.00  0.00    +0.117 C 
ATOM      9  C   UNL     1      -1.857   1.904  25.216  0.00  0.00    +0.116 C 
ATOM     10  C   UNL     1      -2.558   1.479  25.122  0.00  0.00    +0.115 C 
ATOM     11  N   UNL     1      -2.532   0.678  24.928  0.00  0.00    -0.273 N 
ATOM     12  C   UNL     1      -1.806   0.301  24.827  0.00  0.00    +0.115 C 
ATOM     13  C   UNL     1      -1.104   0.725  24.920  0.00  0.00    +0.116 C 
ATOM     14  N   UNL     1      -1.130   1.527  25.115  0.00  0.00    -0.261 N 
ATOM     15  C   UNL     1      -0.534   2.083  25.242  0.00  0.00    +0.308 C 
ATOM     16  O   UNL     1       0.278   1.943  25.197  0.00  0.00    -0.252 OA
ATOM     17  C   UNL     1      -3.233   0.253  24.834  0.00  0.00    +0.270 C 
ATOM     18  O   UNL     1      -3.960   0.630  24.935  0.00  0.00    -0.271 OA
ENDROOT
BRANCH   7   6
ATOM      6  C   UNL     1      -0.503   3.512  25.587  0.00  0.00    +0.122 C 
BRANCH   6   5
ATOM      1  F   UNL     1      -1.775   6.380  24.565  0.00  0.00    -0.204 F 
ATOM      2  C   UNL     1      -1.457   5.663  24.821  0.00  0.00    +0.140 A 
ATOM      3  C   UNL     1      -1.810   5.253  25.443  0.00  0.00    +0.029 A 
ATOM      4  C   UNL     1      -1.493   4.536  25.699  0.00  0.00    -0.000 A 
ATOM      5  C   UNL     1      -0.821   4.229  25.332  0.00  0.00    -0.002 A 
ATOM     27  C   UNL     1      -0.467   4.638  24.709  0.00  0.00    -0.000 A 
ATOM     28  C   UNL     1      -0.785   5.355  24.454  0.00  0.00    +0.029 A 
ENDBRANCH   6   5
ENDBRANCH   7   6
BRANCH  17  19
ATOM     19  C   UNL     1      -3.208  -0.547  24.640  0.00  0.00    +0.290 C 
BRANCH  19  20
ATOM     20  O   UNL     1      -3.885  -1.013  24.718  0.00  0.00    -0.466 OA
BRANCH  20  21
ATOM     21  C   UNL     1      -3.870  -1.805  24.489  0.00  0.00    +0.139 A 
ATOM     22  C   UNL     1      -4.247  -2.041  23.794  0.00  0.00    +0.037 A 
ATOM     23  C   UNL     1      -4.232  -2.833  23.565  0.00  0.00    +0.003 A 
ATOM     24  C   UNL     1      -3.839  -3.390  24.030  0.00  0.00    +0.000 A 
ATOM     25  C   UNL     1      -3.462  -3.155  24.725  0.00  0.00    +0.003 A 
ATOM     26  C   UNL     1      -3.477  -2.362  24.954  0.00  0.00    +0.037 A 
ENDBRANCH  20  21
ENDBRANCH  19  20
ENDBRANCH  17  19
TORSDOF 5
ENDMDL
MODEL 2
REMARK VINA RESULT:      -9.7      2.128      6.291
REMARK  Name = 
REMARK  5 active torsions:
REMARK  status: ('A' for Active; 'I' for Inactive)
REMARK    1  A    between atoms: C_5  and  C_6
REMARK    2  A    between atoms: C_6  and  N_7
REMARK    3  A    between atoms: C_17  and  C_19
REMARK    4  A    between atoms: C_19  and  O_20
REMARK    5  A    between atoms: O_20  and  C_21
REMARK                            x       y       z     vdW  Elec       q    Type
REMARK                         _______ _______ _______ _____ _____    ______ ____
ROOT
ATOM      7  N   UNL     1      -3.941  -0.326  24.978  0.00  0.00    -0.258 N 
ATOM      8  C   UNL     1      -3.131  -0.216  25.089  0.00  0.00    +0.117 C 
ATOM      9  C   UNL     1      -2.963   0.582  24.966  0.00  0.00    +0.116 C 
ATOM     10  C   UNL     1      -2.258   1.010  25.001  0.00  0.00    +0.115 C 
ATOM     11  N   UNL     1      -2.260   1.820  24.847  0.00  0.00    -0.273 N 
ATOM     12  C   UNL     1      -2.966   2.203  24.659  0.00  0.00    +0.115 C 
ATOM     13  C   UNL     1      -3.671   1.776  24.625  0.00  0.00    +0.116 C 
ATOM     14  N   UNL     1      -3.669   0.965  24.778  0.00  0.00    -0.261 N 
ATOM     15  C   UNL     1      -4.273   0.404  24.785  0.00  0.00    +0.308 C 
ATOM     16  O   UNL     1      -5.071   0.548  24.628  0.00  0.00    -0.252 OA
ATOM     17  C   UNL     1      -1.555   2.248  24.882  0.00  0.00    +0.270 C 
ATOM     18  O   UNL     1      -0.849   1.865  25.070  0.00  0.00    -0.271 OA
ENDROOT
BRANCH   7   6
ATOM      6  C   UNL     1      -4.347  -1.041  25.046  0.00  0.00    +0.122 C 
BRANCH   6   5
ATOM      1  F   UNL     1      -3.046  -3.806  23.801  0.00  0.00    -0.204 F 
ATOM      2  C   UNL     1      -3.371  -3.115  24.113  0.00  0.00    +0.140 A 
ATOM      3  C   UNL     1      -3.196  -2.889  24.886  0.00  0.00    +0.029 A 
ATOM      4  C   UNL     1      -3.521  -2.197  25.198  0.00  0.00    -0.000 A 
ATOM      5  C   UNL     1      -4.022  -1.732  24.736  0.00  0.00    -0.002 A 
ATOM     27  C   UNL     1      -4.197  -1.958  23.961  0.00  0.00    -0.000 A 
ATOM     28  C   UNL     1      -3.871  -2.650  23.650  0.00  0.00    +0.029 A 
ENDBRANCH   6   5
ENDBRANCH   7   6
BRANCH  17  19
ATOM     19  C   UNL     1      -1.556   3.058  24.729  0.00  0.00    +0.290 C 
BRANCH  19  20
ATOM     20  O   UNL     1      -0.997   3.548  25.088  0.00  0.00    -0.466 OA
BRANCH  20  21
ATOM     21  C   UNL     1      -1.049   4.366  25.002  0.00  0.00    +0.139 A 
ATOM     22  C   UNL     1      -1.690   4.776  25.321  0.00  0.00    +0.037 A 
ATOM     23  C   UNL     1      -1.742   5.594  25.234  0.00  0.00    +0.003 A 
ATOM     24  C   UNL     1      -1.151   6.004  24.829  0.00  0.00    +0.000 A 
ATOM     25  C   UNL     1      -0.510   5.595  24.510  0.00  0.00    +0.003 A 
ATOM     26  C   UNL     1      -0.458   4.776  24.597  0.00  0.00    +0.037 A 
ENDBRANCH  20  21
ENDBRANCH  19  20
ENDBRANCH  17  19
TORSDOF 5
ENDMDL
MODEL 3
REMARK VINA RESULT:      -9.7      3.438      5.904
REMARK  Name = 
REMARK  5 active torsions:
REMARK  status: ('A' for Active; 'I' for Inactive)
REMARK    1  A    between atoms: C_5  and  C_6
REMARK    2  A    between atoms: C_6  and  N_7
REMARK    3  A    between atoms: C_17  and  C_19
REMARK    4  A    between atoms: C_19  and  O_20
REMARK    5  A    between atoms: O_20  and  C_21
REMARK                            x       y       z     vdW  Elec       q    Type
REMARK                         _______ _______ _______ _____ _____    ______ ____
ROOT
ATOM      7  N   UNL     1      -1.941   0.470  24.737  0.00  0.00    -0.258 N 
ATOM      8  C   UNL     1      -1.597  -0.033  24.180  0.00  0.00    +0.117 C 
ATOM      9  C   UNL     1      -0.823   0.220  24.054  0.00  0.00    +0.116 C 
ATOM     10  C   UNL     1      -0.222  -0.065  23.565  0.00  0.00    +0.115 C 
ATOM     11  N   UNL     1       0.513   0.308  23.555  0.00  0.00    -0.273 N 
ATOM     12  C   UNL     1       0.648   0.967  24.033  0.00  0.00    +0.115 C 
ATOM     13  C   UNL     1       0.048   1.252  24.522  0.00  0.00    +0.116 C 
ATOM     14  N   UNL     1      -0.688   0.878  24.532  0.00  0.00    -0.261 N 
ATOM     15  C   UNL     1      -1.379   1.033  24.954  0.00  0.00    +0.308 C 
ATOM     16  O   UNL     1      -1.489   1.644  25.498  0.00  0.00    -0.252 OA
ATOM     17  C   UNL     1       1.114   0.024  23.066  0.00  0.00    +0.270 C 
ATOM     18  O   UNL     1       0.979  -0.635  22.588  0.00  0.00    -0.271 OA
ENDROOT
BRANCH   7   6
ATOM      6  C   UNL     1      -2.713   0.419  25.025  0.00  0.00    +0.122 C 
BRANCH   6   5
ATOM      1  F   UNL     1      -4.723  -1.968  23.952  0.00  0.00    -0.204 F 
ATOM      2  C   UNL     1      -4.220  -1.371  24.221  0.00  0.00    +0.140 A 
ATOM      3  C   UNL     1      -3.728  -1.506  24.869  0.00  0.00    +0.029 A 
ATOM      4  C   UNL     1      -3.226  -0.910  25.137  0.00  0.00    -0.000 A 
ATOM      5  C   UNL     1      -3.215  -0.178  24.757  0.00  0.00    -0.002 A 
ATOM     27  C   UNL     1      -3.707  -0.042  24.108  0.00  0.00    -0.000 A 
ATOM     28  C   UNL     1      -4.209  -0.639  23.841  0.00  0.00    +0.029 A 
ENDBRANCH   6   5
ENDBRANCH   7   6
BRANCH  17  19
ATOM     19  C   UNL     1       1.849   0.397  23.055  0.00  0.00    +0.290 C 
BRANCH  19  20
ATOM     20  O   UNL     1       2.455   0.104  22.577  0.00  0.00    -0.466 OA
BRANCH  20  21
ATOM     21  C   UNL     1       3.242   0.264  22.762  0.00  0.00    +0.139 A 
ATOM     22  C   UNL     1       3.707  -0.314  23.123  0.00  0.00    +0.037 A 
ATOM     23  C   UNL     1       4.495  -0.154  23.308  0.00  0.00    +0.003 A 
ATOM     24  C   UNL     1       4.817   0.585  23.134  0.00  0.00    +0.000 A 
ATOM     25  C   UNL     1       4.353   1.164  22.774  0.00  0.00    +0.003 A 
ATOM     26  C   UNL     1       3.564   1.003  22.588  0.00  0.00    +0.037 A 
ENDBRANCH  20  21
ENDBRANCH  19  20
ENDBRANCH  17  19
TORSDOF 5
ENDMDL
MODEL 4
REMARK VINA RESULT:      -9.3      2.276      6.099
REMARK  Name = 
REMARK  5 active torsions:
REMARK  status: ('A' for Active; 'I' for Inactive)
REMARK    1  A    between atoms: C_5  and  C_6
REMARK    2  A    between atoms: C_6  and  N_7
REMARK    3  A    between atoms: C_17  and  C_19
REMARK    4  A    between atoms: C_19  and  O_20
REMARK    5  A    between atoms: O_20  and  C_21
REMARK                            x       y       z     vdW  Elec       q    Type
REMARK                         _______ _______ _______ _____ _____    ______ ____
ROOT
ATOM      7  N   UNL     1      -1.650  -1.227  25.049  0.00  0.00    -0.258 N 
ATOM      8  C   UNL     1      -2.254  -0.671  25.137  0.00  0.00    +0.117 C 
ATOM      9  C   UNL     1      -1.911   0.079  25.137  0.00  0.00    +0.116 C 
ATOM     10  C   UNL     1      -2.236   0.835  25.205  0.00  0.00    +0.115 C 
ATOM     11  N   UNL     1      -1.746   1.497  25.185  0.00  0.00    -0.273 N 
ATOM     12  C   UNL     1      -0.931   1.405  25.097  0.00  0.00    +0.115 C 
ATOM     13  C   UNL     1      -0.605   0.651  25.029  0.00  0.00    +0.116 C 
ATOM     14  N   UNL     1      -1.096  -0.013  25.049  0.00  0.00    -0.261 N 
ATOM     15  C   UNL     1      -0.935  -0.820  24.994  0.00  0.00    +0.308 C 
ATOM     16  O   UNL     1      -0.189  -1.161  24.902  0.00  0.00    -0.252 OA
ATOM     17  C   UNL     1      -2.070   2.253  25.254  0.00  0.00    +0.270 C 
ATOM     18  O   UNL     1      -2.885   2.345  25.342  0.00  0.00    -0.271 OA
ENDROOT
BRANCH   7   6
ATOM      6  C   UNL     1      -1.746  -2.046  25.021  0.00  0.00    +0.122 C 
BRANCH   6   5
ATOM      1  F   UNL     1      -4.555  -3.343  23.874  0.00  0.00    -0.204 F 
ATOM      2  C   UNL     1      -3.852  -3.019  24.160  0.00  0.00    +0.140 A 
ATOM      3  C   UNL     1      -3.224  -2.877  23.646  0.00  0.00    +0.029 A 
ATOM      4  C   UNL     1      -2.521  -2.552  23.932  0.00  0.00    -0.000 A 
ATOM      5  C   UNL     1      -2.448  -2.370  24.734  0.00  0.00    -0.002 A 
ATOM     27  C   UNL     1      -3.077  -2.512  25.249  0.00  0.00    -0.000 A 
ATOM     28  C   UNL     1      -3.779  -2.837  24.962  0.00  0.00    +0.029 A 
ENDBRANCH   6   5
ENDBRANCH   7   6
BRANCH  17  19
ATOM     19  C   UNL     1      -1.580   2.916  25.234  0.00  0.00    +0.290 C 
BRANCH  19  20
ATOM     20  O   UNL     1      -1.824   3.621  25.588  0.00  0.00    -0.466 OA
BRANCH  20  21
ATOM     21  C   UNL     1      -1.539   4.342  25.309  0.00  0.00    +0.139 A 
ATOM     22  C   UNL     1      -0.762   4.404  25.039  0.00  0.00    +0.037 A 
ATOM     23  C   UNL     1      -0.477   5.125  24.761  0.00  0.00    +0.003 A 
ATOM     24  C   UNL     1      -0.970   5.787  24.752  0.00  0.00    +0.000 A 
ATOM     25  C   UNL     1      -1.747   5.727  25.022  0.00  0.00    +0.003 A 
ATOM     26  C   UNL     1      -2.032   5.004  25.301  0.00  0.00    +0.037 A 
ENDBRANCH  20  21
ENDBRANCH  19  20
ENDBRANCH  17  19
TORSDOF 5
ENDMDL
MODEL 5
REMARK VINA RESULT:      -9.1      3.323      4.679
REMARK  Name = 
REMARK  5 active torsions:
REMARK  status: ('A' for Active; 'I' for Inactive)
REMARK    1  A    between atoms: C_5  and  C_6
REMARK    2  A    between atoms: C_6  and  N_7
REMARK    3  A    between atoms: C_17  and  C_19
REMARK    4  A    between atoms: C_19  and  O_20
REMARK    5  A    between atoms: O_20  and  C_21
REMARK                            x       y       z     vdW  Elec       q    Type
REMARK                         _______ _______ _______ _____ _____    ______ ____
ROOT
ATOM      7  N   UNL     1      -3.851   2.700  24.250  0.00  0.00    -0.258 N 
ATOM      8  C   UNL     1      -3.367   2.267  24.760  0.00  0.00    +0.117 C 
ATOM      9  C   UNL     1      -2.709   2.013  24.333  0.00  0.00    +0.116 C 
ATOM     10  C   UNL     1      -2.049   1.567  24.548  0.00  0.00    +0.115 C 
ATOM     11  N   UNL     1      -1.467   1.396  23.990  0.00  0.00    -0.273 N 
ATOM     12  C   UNL     1      -1.543   1.672  23.216  0.00  0.00    +0.115 C 
ATOM     13  C   UNL     1      -2.202   2.118  23.000  0.00  0.00    +0.116 C 
ATOM     14  N   UNL     1      -2.786   2.289  23.559  0.00  0.00    -0.261 N 
ATOM     15  C   UNL     1      -3.491   2.713  23.508  0.00  0.00    +0.308 C 
ATOM     16  O   UNL     1      -3.785   3.085  22.833  0.00  0.00    -0.252 OA
ATOM     17  C   UNL     1      -0.807   0.949  24.205  0.00  0.00    +0.270 C 
ATOM     18  O   UNL     1      -0.731   0.674  24.979  0.00  0.00    -0.271 OA
ENDROOT
BRANCH   7   6
ATOM      6  C   UNL     1      -4.568   3.056  24.448  0.00  0.00    +0.122 C 
BRANCH   6   5
ATOM      1  F   UNL     1      -6.632   1.564  26.547  0.00  0.00    -0.204 F 
ATOM      2  C   UNL     1      -6.116   1.937  26.021  0.00  0.00    +0.140 A 
ATOM      3  C   UNL     1      -6.046   1.663  25.247  0.00  0.00    +0.029 A 
ATOM      4  C   UNL     1      -5.530   2.035  24.722  0.00  0.00    -0.000 A 
ATOM      5  C   UNL     1      -5.084   2.683  24.972  0.00  0.00    -0.002 A 
ATOM     27  C   UNL     1      -5.154   2.958  25.747  0.00  0.00    -0.000 A 
ATOM     28  C   UNL     1      -5.670   2.585  26.271  0.00  0.00    +0.029 A 
ENDBRANCH   6   5
ENDBRANCH   7   6
BRANCH  17  19
ATOM     19  C   UNL     1      -0.225   0.779  23.647  0.00  0.00    +0.290 C 
BRANCH  19  20
ATOM     20  O   UNL     1       0.420   0.306  23.854  0.00  0.00    -0.466 OA
BRANCH  20  21
ATOM     21  C   UNL     1       1.053   0.221  23.333  0.00  0.00    +0.139 A 
ATOM     22  C   UNL     1       1.742   0.660  23.444  0.00  0.00    +0.037 A 
ATOM     23  C   UNL     1       2.375   0.575  22.924  0.00  0.00    +0.003 A 
ATOM     24  C   UNL     1       2.320   0.049  22.290  0.00  0.00    +0.000 A 
ATOM     25  C   UNL     1       1.632  -0.391  22.178  0.00  0.00    +0.003 A 
ATOM     26  C   UNL     1       0.998  -0.305  22.700  0.00  0.00    +0.037 A 
ENDBRANCH  20  21
ENDBRANCH  19  20
ENDBRANCH  17  19
TORSDOF 5
ENDMDL
MODEL 6
REMARK VINA RESULT:      -8.5      4.023      5.086
REMARK  Name = 
REMARK  5 active torsions:
REMARK  status: ('A' for Active; 'I' for Inactive)
REMARK    1  A    between atoms: C_5  and  C_6
REMARK    2  A    between atoms: C_6  and  N_7
REMARK    3  A    between atoms: C_17  and  C_19
REMARK    4  A    between atoms: C_19  and  O_20
REMARK    5  A    between atoms: O_20  and  C_21
REMARK                            x       y       z     vdW  Elec       q    Type
REMARK                         _______ _______ _______ _____ _____    ______ ____
ROOT
ATOM      7  N   UNL     1       2.481   0.382  22.639  0.00  0.00    -0.258 N 
ATOM      8  C   UNL     1       2.201   0.748  23.324  0.00  0.00    +0.117 C 
ATOM      9  C   UNL     1       1.409   0.541  23.418  0.00  0.00    +0.116 C 
ATOM     10  C   UNL     1       0.851   0.739  23.993  0.00  0.00    +0.115 C 
ATOM     11  N   UNL     1       0.083   0.443  23.942  0.00  0.00    -0.273 N 
ATOM     12  C   UNL     1      -0.128  -0.051  23.316  0.00  0.00    +0.115 C 
ATOM     13  C   UNL     1       0.429  -0.249  22.740  0.00  0.00    +0.116 C 
ATOM     14  N   UNL     1       1.198   0.048  22.792  0.00  0.00    -0.261 N 
ATOM     15  C   UNL     1       1.860  -0.051  22.310  0.00  0.00    +0.308 C 
ATOM     16  O   UNL     1       1.896  -0.504  21.621  0.00  0.00    -0.252 OA
ATOM     17  C   UNL     1      -0.475   0.641  24.517  0.00  0.00    +0.270 C 
ATOM     18  O   UNL     1      -0.264   1.134  25.143  0.00  0.00    -0.271 OA
ENDROOT
BRANCH   7   6
ATOM      6  C   UNL     1       3.246   0.438  22.336  0.00  0.00    +0.122 C 
BRANCH   6   5
ATOM      1  F   UNL     1       5.842  -0.167  24.281  0.00  0.00    -0.204 F 
ATOM      2  C   UNL     1       5.193  -0.016  23.795  0.00  0.00    +0.140 A 
ATOM      3  C   UNL     1       4.680  -0.628  23.590  0.00  0.00    +0.029 A 
ATOM      4  C   UNL     1       4.030  -0.477  23.104  0.00  0.00    -0.000 A 
ATOM      5  C   UNL     1       3.895   0.286  22.822  0.00  0.00    -0.002 A 
ATOM     27  C   UNL     1       4.409   0.899  23.027  0.00  0.00    -0.000 A 
ATOM     28  C   UNL     1       5.057   0.747  23.514  0.00  0.00    +0.029 A 
ENDBRANCH   6   5
ENDBRANCH   7   6
BRANCH  17  19
ATOM     19  C   UNL     1      -1.243   0.345  24.466  0.00  0.00    +0.290 C 
BRANCH  19  20
ATOM     20  O   UNL     1      -1.776   0.471  25.083  0.00  0.00    -0.466 OA
BRANCH  20  21
ATOM     21  C   UNL     1      -2.525   0.128  25.058  0.00  0.00    +0.139 A 
ATOM     22  C   UNL     1      -3.141   0.508  24.661  0.00  0.00    +0.037 A 
ATOM     23  C   UNL     1      -3.890   0.165  24.636  0.00  0.00    +0.003 A 
ATOM     24  C   UNL     1      -4.025  -0.558  25.008  0.00  0.00    +0.000 A 
ATOM     25  C   UNL     1      -3.410  -0.939  25.405  0.00  0.00    +0.003 A 
ATOM     26  C   UNL     1      -2.660  -0.595  25.430  0.00  0.00    +0.037 A 
ENDBRANCH  20  21
ENDBRANCH  19  20
ENDBRANCH  17  19
TORSDOF 5
ENDMDL
MODEL 7
REMARK VINA RESULT:      -8.5      3.124      5.044
REMARK  Name = 
REMARK  5 active torsions:
REMARK  status: ('A' for Active; 'I' for Inactive)
REMARK    1  A    between atoms: C_5  and  C_6
REMARK    2  A    between atoms: C_6  and  N_7
REMARK    3  A    between atoms: C_17  and  C_19
REMARK    4  A    between atoms: C_19  and  O_20
REMARK    5  A    between atoms: O_20  and  C_21
REMARK                            x       y       z     vdW  Elec       q    Type
REMARK                         _______ _______ _______ _____ _____    ______ ____
ROOT
ATOM      7  N   UNL     1      -1.747   1.752  25.149  0.00  0.00    -0.258 N 
ATOM      8  C   UNL     1      -1.586   1.163  24.594  0.00  0.00    +0.117 C 
ATOM      9  C   UNL     1      -0.785   1.206  24.402  0.00  0.00    +0.116 C 
ATOM     10  C   UNL     1      -0.316   0.764  23.887  0.00  0.00    +0.115 C 
ATOM     11  N   UNL     1       0.486   0.937  23.808  0.00  0.00    -0.273 N 
ATOM     12  C   UNL     1       0.820   1.552  24.245  0.00  0.00    +0.115 C 
ATOM     13  C   UNL     1       0.352   1.994  24.761  0.00  0.00    +0.116 C 
ATOM     14  N   UNL     1      -0.451   1.820  24.839  0.00  0.00    -0.261 N 
ATOM     15  C   UNL     1      -1.045   2.158  25.301  0.00  0.00    +0.308 C 
ATOM     16  O   UNL     1      -0.954   2.790  25.823  0.00  0.00    -0.252 OA
ATOM     17  C   UNL     1       0.955   0.496  23.292  0.00  0.00    +0.270 C 
ATOM     18  O   UNL     1       0.621  -0.119  22.855  0.00  0.00    -0.271 OA
ENDROOT
BRANCH   7   6
ATOM      6  C   UNL     1      -2.481   1.907  25.493  0.00  0.00    +0.122 C 
BRANCH   6   5
ATOM      1  F   UNL     1      -5.095   2.551  23.585  0.00  0.00    -0.204 F 
ATOM      2  C   UNL     1      -4.441   2.391  24.062  0.00  0.00    +0.140 A 
ATOM      3  C   UNL     1      -3.917   2.995  24.260  0.00  0.00    +0.029 A 
ATOM      4  C   UNL     1      -3.263   2.834  24.737  0.00  0.00    -0.000 A 
ATOM      5  C   UNL     1      -3.134   2.068  25.016  0.00  0.00    -0.002 A 
ATOM     27  C   UNL     1      -3.659   1.463  24.817  0.00  0.00    -0.000 A 
ATOM     28  C   UNL     1      -4.313   1.625  24.341  0.00  0.00    +0.029 A 
ENDBRANCH   6   5
ENDBRANCH   7   6
BRANCH  17  19
ATOM     19  C   UNL     1       1.757   0.669  23.213  0.00  0.00    +0.290 C 
BRANCH  19  20
ATOM     20  O   UNL     1       2.248   0.165  22.782  0.00  0.00    -0.466 OA
BRANCH  20  21
ATOM     21  C   UNL     1       3.067   0.231  22.847  0.00  0.00    +0.139 A 
ATOM     22  C   UNL     1       3.452   0.904  22.566  0.00  0.00    +0.037 A 
ATOM     23  C   UNL     1       4.271   0.970  22.632  0.00  0.00    +0.003 A 
ATOM     24  C   UNL     1       4.707   0.362  22.979  0.00  0.00    +0.000 A 
ATOM     25  C   UNL     1       4.324  -0.312  23.260  0.00  0.00    +0.003 A 
ATOM     26  C   UNL     1       3.503  -0.378  23.194  0.00  0.00    +0.037 A 
ENDBRANCH  20  21
ENDBRANCH  19  20
ENDBRANCH  17  19
TORSDOF 5
ENDMDL
MODEL 8
REMARK VINA RESULT:      -8.2      3.146      4.760
REMARK  Name = 
REMARK  5 active torsions:
REMARK  status: ('A' for Active; 'I' for Inactive)
REMARK    1  A    between atoms: C_5  and  C_6
REMARK    2  A    between atoms: C_6  and  N_7
REMARK    3  A    between atoms: C_17  and  C_19
REMARK    4  A    between atoms: C_19  and  O_20
REMARK    5  A    between atoms: O_20  and  C_21
REMARK                            x       y       z     vdW  Elec       q    Type
REMARK                         _______ _______ _______ _____ _____    ______ ____
ROOT
ATOM      7  N   UNL     1       0.157  -0.220  23.683  0.00  0.00    -0.258 N 
ATOM      8  C   UNL     1      -0.121   0.457  23.300  0.00  0.00    +0.117 C 
ATOM      9  C   UNL     1      -0.803   0.707  23.689  0.00  0.00    +0.116 C 
ATOM     10  C   UNL     1      -1.313   1.342  23.557  0.00  0.00    +0.115 C 
ATOM     11  N   UNL     1      -1.966   1.456  24.047  0.00  0.00    -0.273 N 
ATOM     12  C   UNL     1      -2.110   0.935  24.670  0.00  0.00    +0.115 C 
ATOM     13  C   UNL     1      -1.602   0.299  24.802  0.00  0.00    +0.116 C 
ATOM     14  N   UNL     1      -0.948   0.185  24.312  0.00  0.00    -0.261 N 
ATOM     15  C   UNL     1      -0.354  -0.387  24.308  0.00  0.00    +0.308 C 
ATOM     16  O   UNL     1      -0.284  -1.017  24.836  0.00  0.00    -0.252 OA
ATOM     17  C   UNL     1      -2.476   2.092  23.915  0.00  0.00    +0.270 C 
ATOM     18  O   UNL     1      -2.331   2.613  23.293  0.00  0.00    -0.271 OA
ENDROOT
BRANCH   7   6
ATOM      6  C   UNL     1       0.828  -0.653  23.476  0.00  0.00    +0.122 C 
BRANCH   6   5
ATOM      1  F   UNL     1       3.334   0.828  21.920  0.00  0.00    -0.204 F 
ATOM      2  C   UNL     1       2.707   0.458  22.308  0.00  0.00    +0.140 A 
ATOM      3  C   UNL     1       2.185  -0.022  21.887  0.00  0.00    +0.029 A 
ATOM      4  C   UNL     1       1.559  -0.392  22.275  0.00  0.00    -0.000 A 
ATOM      5  C   UNL     1       1.454  -0.283  23.086  0.00  0.00    -0.002 A 
ATOM     27  C   UNL     1       1.977   0.197  23.509  0.00  0.00    -0.000 A 
ATOM     28  C   UNL     1       2.603   0.567  23.119  0.00  0.00    +0.029 A 
ENDBRANCH   6   5
ENDBRANCH   7   6
BRANCH  17  19
ATOM     19  C   UNL     1      -3.129   2.206  24.405  0.00  0.00    +0.290 C 
BRANCH  19  20
ATOM     20  O   UNL     1      -3.734   2.717  24.174  0.00  0.00    -0.466 OA
BRANCH  20  21
ATOM     21  C   UNL     1      -4.384   2.836  24.668  0.00  0.00    +0.139 A 
ATOM     22  C   UNL     1      -4.405   3.489  25.172  0.00  0.00    +0.037 A 
ATOM     23  C   UNL     1      -5.055   3.609  25.665  0.00  0.00    +0.003 A 
ATOM     24  C   UNL     1      -5.684   3.076  25.655  0.00  0.00    +0.000 A 
ATOM     25  C   UNL     1      -5.664   2.423  25.151  0.00  0.00    +0.003 A 
ATOM     26  C   UNL     1      -5.013   2.303  24.657  0.00  0.00    +0.037 A 
ENDBRANCH  20  21
ENDBRANCH  19  20
ENDBRANCH  17  19
TORSDOF 5
ENDMDL
