MODEL 1
REMARK VINA RESULT:     -12.1      0.000      0.000
REMARK  Name = 
REMARK  5 active torsions:
REMARK  status: ('A' for Active; 'I' for Inactive)
REMARK    1  A    between atoms: C_2  and  C_24
REMARK    2  A    between atoms: N_3  and  C_4
REMARK    3  A    between atoms: C_4  and  C_5
REMARK    4  A    between atoms: C_12  and  C_13
REMARK    5  A    between atoms: C_13  and  N_14
REMARK                            x       y       z     vdW  Elec       q    Type
REMARK                         _______ _______ _______ _____ _____    ______ ____
ROOT
ATOM      5  C   UNL     1       0.423   0.572  23.636  0.00  0.00    +0.079 C 
ATOM      6  C   UNL     1       0.165   1.000  24.232  0.00  0.00    +0.018 C 
ATOM      7  C   UNL     1      -0.537   0.889  24.622  0.00  0.00    +0.005 C 
ATOM      8  C   UNL     1      -0.649   1.488  25.281  0.00  0.00    +0.017 C 
ATOM      9  C   UNL     1      -0.337   1.202  24.783  0.00  0.00    +0.072 C 
ATOM     10  N   UNL     1      -0.289   0.467  24.039  0.00  0.00    -0.272 NA
ATOM     11  C   UNL     1      -0.966  -0.137  23.935  0.00  0.00    +0.073 C 
ATOM     12  C   UNL     1      -1.183   0.305  24.517  0.00  0.00    +0.032 C 
ENDROOT
BRANCH   5   4
ATOM      4  C   UNL     1       0.976   0.377  23.055  0.00  0.00    +0.131 C 
BRANCH   4   3
ATOM      1  O   UNL     1       2.082  -0.112  21.934  0.00  0.00    -0.268 OA
ATOM      2  C   UNL     1       2.336   0.208  22.651  0.00  0.00    +0.265 C 
ATOM      3  N   UNL     1       1.782   0.453  23.212  0.00  0.00    -0.200 NA
BRANCH   2  24
ATOM     24  C   UNL     1       3.143   0.284  22.808  0.00  0.00    +0.058 A 
ATOM     25  C   UNL     1       3.546   0.962  22.569  0.00  0.00    +0.008 A 
ATOM     26  C   UNL     1       4.354   1.038  22.725  0.00  0.00    +0.040 A 
ATOM     27  C   UNL     1       4.756   0.436  23.121  0.00  0.00    +0.176 A 
ATOM     28  O   UNL     1       5.544   0.356  23.350  0.00  0.00    -0.435 OA
ATOM     29  C   UNL     1       5.626  -0.371  23.730  0.00  0.00    +0.429 C 
ATOM     30  O   UNL     1       4.889  -0.741  23.737  0.00  0.00    -0.435 OA
ATOM     31  C   UNL     1       4.351  -0.242  23.359  0.00  0.00    +0.177 A 
ATOM     32  C   UNL     1       3.544  -0.318  23.203  0.00  0.00    +0.045 A 
ENDBRANCH   2  24
ENDBRANCH   4   3
ENDBRANCH   5   4
BRANCH  12  13
ATOM     13  C   UNL     1      -1.879   0.248  24.955  0.00  0.00    +0.074 C 
BRANCH  13  14
ATOM     14  N   UNL     1      -2.493  -0.237  24.693  0.00  0.00    -0.269 NA
ATOM     15  C   UNL     1      -3.125   0.088  24.274  0.00  0.00    +0.077 C 
ATOM     16  C   UNL     1      -3.739  -0.397  24.011  0.00  0.00    +0.043 C 
ATOM     17  C   UNL     1      -3.721  -1.208  24.168  0.00  0.00    -0.023 A 
ATOM     18  C   UNL     1      -3.088  -1.532  24.587  0.00  0.00    -0.010 A 
ATOM     19  C   UNL     1      -2.474  -1.048  24.849  0.00  0.00    +0.099 C 
ATOM     20  C   UNL     1      -3.070  -2.342  24.743  0.00  0.00    -0.003 A 
ATOM     21  C   UNL     1      -3.684  -2.827  24.480  0.00  0.00    -0.000 A 
ATOM     22  C   UNL     1      -4.316  -2.502  24.062  0.00  0.00    -0.000 A 
ATOM     23  C   UNL     1      -4.334  -1.692  23.905  0.00  0.00    -0.004 A 
ENDBRANCH  13  14
ENDBRANCH  12  13
TORSDOF 5
ENDMDL
MODEL 2
REMARK VINA RESULT:     -11.7      4.007      6.291
REMARK  Name = 
REMARK  5 active torsions:
REMARK  status: ('A' for Active; 'I' for Inactive)
REMARK    1  A    between atoms: C_2  and  C_24
REMARK    2  A    between atoms: N_3  and  C_4
REMARK    3  A    between atoms: C_4  and  C_5
REMARK    4  A    between atoms: C_12  and  C_13
REMARK    5  A    between atoms: C_13  and  N_14
REMARK                            x       y       z     vdW  Elec       q    Type
REMARK                         _______ _______ _______ _____ _____    ______ ____
ROOT
ATOM      5  C   UNL     1      -4.913   1.093  24.856  0.00  0.00    +0.079 C 
ATOM      6  C   UNL     1      -5.290   1.660  25.232  0.00  0.00    +0.018 C 
ATOM      7  C   UNL     1      -4.971   2.371  25.452  0.00  0.00    +0.005 C 
ATOM      8  C   UNL     1      -5.569   2.887  25.876  0.00  0.00    +0.017 C 
ATOM      9  C   UNL     1      -5.358   2.352  25.567  0.00  0.00    +0.072 C 
ATOM     10  N   UNL     1      -4.597   1.819  25.083  0.00  0.00    -0.272 NA
ATOM     11  C   UNL     1      -3.765   2.182  24.981  0.00  0.00    +0.073 C 
ATOM     12  C   UNL     1      -4.169   2.714  25.351  0.00  0.00    +0.032 C 
ENDROOT
BRANCH   5   4
ATOM      4  C   UNL     1      -4.867   0.347  24.505  0.00  0.00    +0.131 C 
BRANCH   4   3
ATOM      1  O   UNL     1      -4.763  -1.133  23.784  0.00  0.00    -0.268 OA
ATOM      2  C   UNL     1      -4.172  -0.885  24.304  0.00  0.00    +0.265 C 
ATOM      3  N   UNL     1      -4.224  -0.144  24.664  0.00  0.00    -0.200 NA
BRANCH   2  24
ATOM     24  C   UNL     1      -3.529  -1.377  24.463  0.00  0.00    +0.058 A 
ATOM     25  C   UNL     1      -3.654  -2.171  24.649  0.00  0.00    +0.008 A 
ATOM     26  C   UNL     1      -3.010  -2.663  24.809  0.00  0.00    +0.040 A 
ATOM     27  C   UNL     1      -2.243  -2.361  24.782  0.00  0.00    +0.176 A 
ATOM     28  O   UNL     1      -1.507  -2.710  24.912  0.00  0.00    -0.435 OA
ATOM     29  C   UNL     1      -0.928  -2.132  24.806  0.00  0.00    +0.429 C 
ATOM     30  O   UNL     1      -1.306  -1.425  24.611  0.00  0.00    -0.435 OA
ATOM     31  C   UNL     1      -2.119  -1.567  24.596  0.00  0.00    +0.177 A 
ATOM     32  C   UNL     1      -2.762  -1.074  24.436  0.00  0.00    +0.045 A 
ENDBRANCH   2  24
ENDBRANCH   4   3
ENDBRANCH   5   4
BRANCH  12  13
ATOM     13  C   UNL     1      -3.908   3.454  25.601  0.00  0.00    +0.074 C 
BRANCH  13  14
ATOM     14  N   UNL     1      -3.110   3.653  25.540  0.00  0.00    -0.269 NA
ATOM     15  C   UNL     1      -2.535   3.155  25.859  0.00  0.00    +0.077 C 
ATOM     16  C   UNL     1      -1.736   3.353  25.798  0.00  0.00    +0.043 C 
ATOM     17  C   UNL     1      -1.512   4.050  25.416  0.00  0.00    -0.023 A 
ATOM     18  C   UNL     1      -2.088   4.548  25.097  0.00  0.00    -0.010 A 
ATOM     19  C   UNL     1      -2.886   4.350  25.158  0.00  0.00    +0.099 C 
ATOM     20  C   UNL     1      -1.864   5.245  24.716  0.00  0.00    -0.003 A 
ATOM     21  C   UNL     1      -1.065   5.444  24.654  0.00  0.00    -0.000 A 
ATOM     22  C   UNL     1      -0.491   4.945  24.974  0.00  0.00    -0.000 A 
ATOM     23  C   UNL     1      -0.714   4.249  25.355  0.00  0.00    -0.004 A 
ENDBRANCH  13  14
ENDBRANCH  12  13
TORSDOF 5
ENDMDL
MODEL 3
REMARK VINA RESULT:     -11.7      3.876      4.840
REMARK  Name = 
REMARK  5 active torsions:
REMARK  status: ('A' for Active; 'I' for Inactive)
REMARK    1  A    between atoms: C_2  and  C_24
REMARK    2  A    between atoms: N_3  and  C_4
REMARK    3  A    between atoms: C_4  and  C_5
REMARK    4  A    between atoms: C_12  and  C_13
REMARK    5  A    between atoms: C_13  and  N_14
REMARK                            x       y       z     vdW  Elec       q    Type
REMARK                         _______ _______ _______ _____ _____    ______ ____
ROOT
ATOM      5  C   UNL     1      -4.301   2.899  24.834  0.00  0.00    +0.079 C 
ATOM      6  C   UNL     1      -5.038   2.653  24.885  0.00  0.00    +0.018 C 
ATOM      7  C   UNL     1      -5.277   1.879  24.875  0.00  0.00    +0.005 C 
ATOM      8  C   UNL     1      -6.168   1.806  24.945  0.00  0.00    +0.017 C 
ATOM      9  C   UNL     1      -5.598   2.124  24.911  0.00  0.00    +0.072 C 
ATOM     10  N   UNL     1      -4.554   2.114  24.824  0.00  0.00    -0.272 NA
ATOM     11  C   UNL     1      -4.098   1.326  24.756  0.00  0.00    +0.073 C 
ATOM     12  C   UNL     1      -4.832   1.126  24.809  0.00  0.00    +0.032 C 
ENDROOT
BRANCH   5   4
ATOM      4  C   UNL     1      -3.722   3.486  24.810  0.00  0.00    +0.131 C 
BRANCH   4   3
ATOM      1  O   UNL     1      -2.617   4.690  25.036  0.00  0.00    -0.268 OA
ATOM      2  C   UNL     1      -2.385   3.901  25.097  0.00  0.00    +0.265 C 
ATOM      3  N   UNL     1      -2.938   3.298  24.983  0.00  0.00    -0.200 NA
BRANCH   2  24
ATOM     24  C   UNL     1      -1.600   3.713  25.271  0.00  0.00    +0.058 A 
ATOM     25  C   UNL     1      -0.988   4.075  24.853  0.00  0.00    +0.008 A 
ATOM     26  C   UNL     1      -0.203   3.888  25.027  0.00  0.00    +0.040 A 
ATOM     27  C   UNL     1      -0.031   3.338  25.618  0.00  0.00    +0.176 A 
ATOM     28  O   UNL     1       0.683   3.045  25.909  0.00  0.00    -0.435 OA
ATOM     29  C   UNL     1       0.512   2.502  26.505  0.00  0.00    +0.429 C 
ATOM     30  O   UNL     1      -0.309   2.459  26.583  0.00  0.00    -0.435 OA
ATOM     31  C   UNL     1      -0.644   2.976  26.034  0.00  0.00    +0.177 A 
ATOM     32  C   UNL     1      -1.429   3.163  25.861  0.00  0.00    +0.045 A 
ENDBRANCH   2  24
ENDBRANCH   4   3
ENDBRANCH   5   4
BRANCH  12  13
ATOM     13  C   UNL     1      -5.142   0.362  24.804  0.00  0.00    +0.074 C 
BRANCH  13  14
ATOM     14  N   UNL     1      -4.640  -0.287  24.882  0.00  0.00    -0.269 NA
ATOM     15  C   UNL     1      -4.158  -0.360  25.547  0.00  0.00    +0.077 C 
ATOM     16  C   UNL     1      -3.655  -1.009  25.625  0.00  0.00    +0.043 C 
ATOM     17  C   UNL     1      -3.635  -1.588  25.036  0.00  0.00    -0.023 A 
ATOM     18  C   UNL     1      -4.117  -1.516  24.371  0.00  0.00    -0.010 A 
ATOM     19  C   UNL     1      -4.620  -0.866  24.293  0.00  0.00    +0.099 C 
ATOM     20  C   UNL     1      -4.097  -2.094  23.782  0.00  0.00    -0.003 A 
ATOM     21  C   UNL     1      -3.595  -2.744  23.860  0.00  0.00    -0.000 A 
ATOM     22  C   UNL     1      -3.113  -2.815  24.525  0.00  0.00    -0.000 A 
ATOM     23  C   UNL     1      -3.133  -2.237  25.114  0.00  0.00    -0.004 A 
ENDBRANCH  13  14
ENDBRANCH  12  13
TORSDOF 5
ENDMDL
MODEL 4
REMARK VINA RESULT:     -11.6      1.461      2.439
REMARK  Name = 
REMARK  5 active torsions:
REMARK  status: ('A' for Active; 'I' for Inactive)
REMARK    1  A    between atoms: C_2  and  C_24
REMARK    2  A    between atoms: N_3  and  C_4
REMARK    3  A    between atoms: C_4  and  C_5
REMARK    4  A    between atoms: C_12  and  C_13
REMARK    5  A    between atoms: C_13  and  N_14
REMARK                            x       y       z     vdW  Elec       q    Type
REMARK                         _______ _______ _______ _____ _____    ______ ____
ROOT
ATOM      5  C   UNL     1       0.326  -0.202  23.505  0.00  0.00    +0.079 C 
ATOM      6  C   UNL     1       0.027  -0.573  24.120  0.00  0.00    +0.018 C 
ATOM      7  C   UNL     1      -0.656  -0.370  24.505  0.00  0.00    +0.005 C 
ATOM      8  C   UNL     1      -0.828  -0.924  25.190  0.00  0.00    +0.017 C 
ATOM      9  C   UNL     1      -0.490  -0.696  24.679  0.00  0.00    +0.072 C 
ATOM     10  N   UNL     1      -0.369  -0.003  23.903  0.00  0.00    -0.272 NA
ATOM     11  C   UNL     1      -0.978   0.664  23.773  0.00  0.00    +0.073 C 
ATOM     12  C   UNL     1      -1.238   0.273  24.374  0.00  0.00    +0.032 C 
ENDROOT
BRANCH   5   4
ATOM      4  C   UNL     1       0.893  -0.093  22.915  0.00  0.00    +0.131 C 
BRANCH   4   3
ATOM      1  O   UNL     1       2.063  -0.083  21.752  0.00  0.00    -0.268 OA
ATOM      2  C   UNL     1       2.263   0.059  22.539  0.00  0.00    +0.265 C 
ATOM      3  N   UNL     1       1.678   0.054  23.122  0.00  0.00    -0.200 NA
BRANCH   2  24
ATOM     24  C   UNL     1       3.049   0.206  22.746  0.00  0.00    +0.058 A 
ATOM     25  C   UNL     1       3.383   0.945  22.596  0.00  0.00    +0.008 A 
ATOM     26  C   UNL     1       4.169   1.092  22.802  0.00  0.00    +0.040 A 
ATOM     27  C   UNL     1       4.620   0.500  23.157  0.00  0.00    +0.176 A 
ATOM     28  O   UNL     1       5.401   0.483  23.419  0.00  0.00    -0.435 OA
ATOM     29  C   UNL     1       5.550  -0.266  23.730  0.00  0.00    +0.429 C 
ATOM     30  O   UNL     1       4.861  -0.713  23.661  0.00  0.00    -0.435 OA
ATOM     31  C   UNL     1       4.285  -0.239  23.306  0.00  0.00    +0.177 A 
ATOM     32  C   UNL     1       3.500  -0.387  23.101  0.00  0.00    +0.045 A 
ENDBRANCH   2  24
ENDBRANCH   4   3
ENDBRANCH   5   4
BRANCH  12  13
ATOM     13  C   UNL     1      -1.922   0.424  24.810  0.00  0.00    +0.074 C 
BRANCH  13  14
ATOM     14  N   UNL     1      -2.424   1.040  24.589  0.00  0.00    -0.269 NA
ATOM     15  C   UNL     1      -2.984   0.923  23.995  0.00  0.00    +0.077 C 
ATOM     16  C   UNL     1      -3.487   1.539  23.773  0.00  0.00    +0.043 C 
ATOM     17  C   UNL     1      -3.429   2.273  24.147  0.00  0.00    -0.023 A 
ATOM     18  C   UNL     1      -2.869   2.390  24.742  0.00  0.00    -0.010 A 
ATOM     19  C   UNL     1      -2.366   1.774  24.963  0.00  0.00    +0.099 C 
ATOM     20  C   UNL     1      -2.811   3.123  25.115  0.00  0.00    -0.003 A 
ATOM     21  C   UNL     1      -3.313   3.740  24.895  0.00  0.00    -0.000 A 
ATOM     22  C   UNL     1      -3.873   3.622  24.300  0.00  0.00    -0.000 A 
ATOM     23  C   UNL     1      -3.931   2.889  23.927  0.00  0.00    -0.004 A 
ENDBRANCH  13  14
ENDBRANCH  12  13
TORSDOF 5
ENDMDL
MODEL 5
REMARK VINA RESULT:     -11.0      2.958      4.380
REMARK  Name = 
REMARK  5 active torsions:
REMARK  status: ('A' for Active; 'I' for Inactive)
REMARK    1  A    between atoms: C_2  and  C_24
REMARK    2  A    between atoms: N_3  and  C_4
REMARK    3  A    between atoms: C_4  and  C_5
REMARK    4  A    between atoms: C_12  and  C_13
REMARK    5  A    between atoms: C_13  and  N_14
REMARK                            x       y       z     vdW  Elec       q    Type
REMARK                         _______ _______ _______ _____ _____    ______ ____
ROOT
ATOM      5  C   UNL     1      -0.722   3.398  24.784  0.00  0.00    +0.079 C 
ATOM      6  C   UNL     1      -0.981   4.095  25.014  0.00  0.00    +0.018 C 
ATOM      7  C   UNL     1      -1.759   4.313  25.070  0.00  0.00    +0.005 C 
ATOM      8  C   UNL     1      -1.847   5.159  25.355  0.00  0.00    +0.017 C 
ATOM      9  C   UNL     1      -1.520   4.621  25.180  0.00  0.00    +0.072 C 
ATOM     10  N   UNL     1      -1.512   3.629  24.844  0.00  0.00    -0.272 NA
ATOM     11  C   UNL     1      -2.292   3.186  24.676  0.00  0.00    +0.073 C 
ATOM     12  C   UNL     1      -2.505   3.881  24.907  0.00  0.00    +0.032 C 
ENDROOT
BRANCH   5   4
ATOM      4  C   UNL     1      -0.125   2.854  24.613  0.00  0.00    +0.131 C 
BRANCH   4   3
ATOM      1  O   UNL     1       1.046   1.781  24.169  0.00  0.00    -0.268 OA
ATOM      2  C   UNL     1       0.281   1.515  24.324  0.00  0.00    +0.265 C 
ATOM      3  N   UNL     1      -0.305   2.052  24.546  0.00  0.00    -0.200 NA
BRANCH   2  24
ATOM     24  C   UNL     1       0.101   0.712  24.257  0.00  0.00    +0.058 A 
ATOM     25  C   UNL     1       0.355   0.287  23.597  0.00  0.00    +0.008 A 
ATOM     26  C   UNL     1       0.174  -0.516  23.530  0.00  0.00    +0.040 A 
ATOM     27  C   UNL     1      -0.259  -0.892  24.122  0.00  0.00    +0.176 A 
ATOM     28  O   UNL     1      -0.518  -1.671  24.207  0.00  0.00    -0.435 OA
ATOM     29  C   UNL     1      -0.931  -1.726  24.918  0.00  0.00    +0.429 C 
ATOM     30  O   UNL     1      -0.928  -0.982  25.274  0.00  0.00    -0.435 OA
ATOM     31  C   UNL     1      -0.513  -0.466  24.781  0.00  0.00    +0.177 A 
ATOM     32  C   UNL     1      -0.333   0.337  24.849  0.00  0.00    +0.045 A 
ENDBRANCH   2  24
ENDBRANCH   4   3
ENDBRANCH   5   4
BRANCH  12  13
ATOM     13  C   UNL     1      -3.274   4.166  24.986  0.00  0.00    +0.074 C 
BRANCH  13  14
ATOM     14  N   UNL     1      -3.914   3.650  24.926  0.00  0.00    -0.269 NA
ATOM     15  C   UNL     1      -4.117   3.328  24.194  0.00  0.00    +0.077 C 
ATOM     16  C   UNL     1      -4.758   2.811  24.133  0.00  0.00    +0.043 C 
ATOM     17  C   UNL     1      -5.196   2.616  24.805  0.00  0.00    -0.023 A 
ATOM     18  C   UNL     1      -4.992   2.938  25.537  0.00  0.00    -0.010 A 
ATOM     19  C   UNL     1      -4.352   3.455  25.598  0.00  0.00    +0.099 C 
ATOM     20  C   UNL     1      -5.430   2.743  26.209  0.00  0.00    -0.003 A 
ATOM     21  C   UNL     1      -6.071   2.226  26.149  0.00  0.00    -0.000 A 
ATOM     22  C   UNL     1      -6.273   1.904  25.417  0.00  0.00    -0.000 A 
ATOM     23  C   UNL     1      -5.835   2.099  24.745  0.00  0.00    -0.004 A 
ENDBRANCH  13  14
ENDBRANCH  12  13
TORSDOF 5
ENDMDL
MODEL 6
REMARK VINA RESULT:     -10.9      2.983      5.336
REMARK  Name = 
REMARK  5 active torsions:
REMARK  status: ('A' for Active; 'I' for Inactive)
REMARK    1  A    between atoms: C_2  and  C_24
REMARK    2  A    between atoms: N_3  and  C_4
REMARK    3  A    between atoms: C_4  and  C_5
REMARK    4  A    between atoms: C_12  and  C_13
REMARK    5  A    between atoms: C_13  and  N_14
REMARK                            x       y       z     vdW  Elec       q    Type
REMARK                         _______ _______ _______ _____ _____    ______ ____
ROOT
ATOM      5  C   UNL     1      -0.280   1.703  24.460  0.00  0.00    +0.079 C 
ATOM      6  C   UNL     1       0.115   1.236  23.980  0.00  0.00    +0.018 C 
ATOM      7  C   UNL     1       0.019   0.434  23.918  0.00  0.00    +0.005 C 
ATOM      8  C   UNL     1       0.571   0.079  23.306  0.00  0.00    +0.017 C 
ATOM      9  C   UNL     1       0.305   0.560  23.661  0.00  0.00    +0.072 C 
ATOM     10  N   UNL     1      -0.372   0.886  24.391  0.00  0.00    -0.272 NA
ATOM     11  C   UNL     1      -0.922   0.294  24.816  0.00  0.00    +0.073 C 
ATOM     12  C   UNL     1      -0.512  -0.129  24.331  0.00  0.00    +0.032 C 
ENDROOT
BRANCH   5   4
ATOM      4  C   UNL     1      -0.465   2.439  24.785  0.00  0.00    +0.131 C 
BRANCH   4   3
ATOM      1  O   UNL     1      -0.882   3.986  25.177  0.00  0.00    -0.268 OA
ATOM      2  C   UNL     1      -1.453   3.391  25.183  0.00  0.00    +0.265 C 
ATOM      3  N   UNL     1      -1.244   2.617  24.987  0.00  0.00    -0.200 NA
BRANCH   2  24
ATOM     24  C   UNL     1      -2.233   3.569  25.386  0.00  0.00    +0.058 A 
ATOM     25  C   UNL     1      -2.395   3.974  26.086  0.00  0.00    +0.008 A 
ATOM     26  C   UNL     1      -3.175   4.152  26.288  0.00  0.00    +0.040 A 
ATOM     27  C   UNL     1      -3.793   3.925  25.791  0.00  0.00    +0.176 A 
ATOM     28  O   UNL     1      -4.610   4.024  25.844  0.00  0.00    -0.435 OA
ATOM     29  C   UNL     1      -4.952   3.680  25.177  0.00  0.00    +0.429 C 
ATOM     30  O   UNL     1      -4.347   3.369  24.711  0.00  0.00    -0.435 OA
ATOM     31  C   UNL     1      -3.630   3.521  25.090  0.00  0.00    +0.177 A 
ATOM     32  C   UNL     1      -2.850   3.342  24.887  0.00  0.00    +0.045 A 
ENDBRANCH   2  24
ENDBRANCH   4   3
ENDBRANCH   5   4
BRANCH  12  13
ATOM     13  C   UNL     1      -0.560  -0.944  24.218  0.00  0.00    +0.074 C 
BRANCH  13  14
ATOM     14  N   UNL     1      -1.231  -1.356  24.462  0.00  0.00    -0.269 NA
ATOM     15  C   UNL     1      -1.207  -1.818  25.145  0.00  0.00    +0.077 C 
ATOM     16  C   UNL     1      -1.879  -2.231  25.389  0.00  0.00    +0.043 C 
ATOM     17  C   UNL     1      -2.577  -2.180  24.949  0.00  0.00    -0.023 A 
ATOM     18  C   UNL     1      -2.600  -1.718  24.266  0.00  0.00    -0.010 A 
ATOM     19  C   UNL     1      -1.928  -1.306  24.022  0.00  0.00    +0.099 C 
ATOM     20  C   UNL     1      -3.297  -1.668  23.826  0.00  0.00    -0.003 A 
ATOM     21  C   UNL     1      -3.969  -2.080  24.070  0.00  0.00    -0.000 A 
ATOM     22  C   UNL     1      -3.944  -2.542  24.753  0.00  0.00    -0.000 A 
ATOM     23  C   UNL     1      -3.248  -2.592  25.193  0.00  0.00    -0.004 A 
ENDBRANCH  13  14
ENDBRANCH  12  13
TORSDOF 5
ENDMDL
MODEL 7
REMARK VINA RESULT:     -10.9      3.112      5.468
REMARK  Name = 
REMARK  5 active torsions:
REMARK  status: ('A' for Active; 'I' for Inactive)
REMARK    1  A    between atoms: C_2  and  C_24
REMARK    2  A    between atoms: N_3  and  C_4
REMARK    3  A    between atoms: C_4  and  C_5
REMARK    4  A    between atoms: C_12  and  C_13
REMARK    5  A    between atoms: C_13  and  N_14
REMARK                            x       y       z     vdW  Elec       q    Type
REMARK                         _______ _______ _______ _____ _____    ______ ____
ROOT
ATOM      5  C   UNL     1      -0.435   0.872  24.837  0.00  0.00    +0.079 C 
ATOM      6  C   UNL     1      -0.144   1.515  24.511  0.00  0.00    +0.018 C 
ATOM      7  C   UNL     1      -0.468   2.256  24.561  0.00  0.00    +0.005 C 
ATOM      8  C   UNL     1       0.021   2.863  24.115  0.00  0.00    +0.017 C 
ATOM      9  C   UNL     1      -0.128   2.267  24.339  0.00  0.00    +0.072 C 
ATOM     10  N   UNL     1      -0.758   1.630  24.882  0.00  0.00    -0.272 NA
ATOM     11  C   UNL     1      -1.506   1.952  25.295  0.00  0.00    +0.073 C 
ATOM     12  C   UNL     1      -1.188   2.559  24.960  0.00  0.00    +0.032 C 
ENDROOT
BRANCH   5   4
ATOM      4  C   UNL     1      -0.428   0.064  25.006  0.00  0.00    +0.131 C 
BRANCH   4   3
ATOM      1  O   UNL     1      -0.515  -1.503  25.512  0.00  0.00    -0.268 OA
ATOM      2  C   UNL     1      -1.098  -1.198  25.016  0.00  0.00    +0.265 C 
ATOM      3  N   UNL     1      -1.055  -0.414  24.762  0.00  0.00    -0.200 NA
BRANCH   2  24
ATOM     24  C   UNL     1      -1.726  -1.676  24.772  0.00  0.00    +0.058 A 
ATOM     25  C   UNL     1      -1.588  -2.464  24.570  0.00  0.00    +0.008 A 
ATOM     26  C   UNL     1      -2.216  -2.942  24.326  0.00  0.00    +0.040 A 
ATOM     27  C   UNL     1      -2.979  -2.632  24.285  0.00  0.00    +0.176 A 
ATOM     28  O   UNL     1      -3.700  -2.967  24.066  0.00  0.00    -0.435 OA
ATOM     29  C   UNL     1      -4.282  -2.387  24.133  0.00  0.00    +0.429 C 
ATOM     30  O   UNL     1      -3.921  -1.692  24.393  0.00  0.00    -0.435 OA
ATOM     31  C   UNL     1      -3.115  -1.844  24.487  0.00  0.00    +0.177 A 
ATOM     32  C   UNL     1      -2.489  -1.366  24.731  0.00  0.00    +0.045 A 
ENDBRANCH   2  24
ENDBRANCH   4   3
ENDBRANCH   5   4
BRANCH  12  13
ATOM     13  C   UNL     1      -1.463   3.336  24.970  0.00  0.00    +0.074 C 
BRANCH  13  14
ATOM     14  N   UNL     1      -2.227   3.499  25.235  0.00  0.00    -0.269 NA
ATOM     15  C   UNL     1      -2.342   3.876  25.959  0.00  0.00    +0.077 C 
ATOM     16  C   UNL     1      -3.106   4.040  26.224  0.00  0.00    +0.043 C 
ATOM     17  C   UNL     1      -3.757   3.826  25.763  0.00  0.00    -0.023 A 
ATOM     18  C   UNL     1      -3.642   3.449  25.038  0.00  0.00    -0.010 A 
ATOM     19  C   UNL     1      -2.878   3.285  24.773  0.00  0.00    +0.099 C 
ATOM     20  C   UNL     1      -4.292   3.235  24.577  0.00  0.00    -0.003 A 
ATOM     21  C   UNL     1      -5.057   3.398  24.842  0.00  0.00    -0.000 A 
ATOM     22  C   UNL     1      -5.171   3.775  25.566  0.00  0.00    -0.000 A 
ATOM     23  C   UNL     1      -4.521   3.989  26.027  0.00  0.00    -0.004 A 
ENDBRANCH  13  14
ENDBRANCH  12  13
TORSDOF 5
ENDMDL
