MODEL 1
REMARK VINA RESULT:     -13.1      0.000      0.000
REMARK  Name = 
REMARK  8 active torsions:
REMARK  status: ('A' for Active; 'I' for Inactive)
REMARK    1  A    between atoms: C_2  and  C_3
REMARK    2  A    between atoms: C_5  and  O_26
REMARK    3  A    between atoms: C_10  and  C_11
REMARK    4  A    between atoms: C_11  and  C_12
REMARK    5  A    between atoms: C_18  and  C_19
REMARK    6  A    between atoms: O_26  and  C_27
REMARK    7  A    between atoms: N_29  and  C_30
REMARK    8  A    between atoms: C_32  and  C_36
REMARK                            x       y       z     vdW  Elec       q    Type
REMARK                         _______ _______ _______ _____ _____    ______ ____
ROOT
ATOM      1  C   UNL     1      -5.566   1.189  24.690  0.00  0.00    +0.006 C 
ATOM      2  C   UNL     1      -4.961   1.698  24.924  0.00  0.00    +0.068 C 
ATOM      5  C   UNL     1      -4.516   1.043  24.694  0.00  0.00    +0.173 C 
ATOM      6  C   UNL     1      -3.693   1.062  24.750  0.00  0.00    +0.044 C 
ATOM      7  C   UNL     1      -3.315   1.737  25.036  0.00  0.00    +0.004 C 
ATOM      8  C   UNL     1      -3.759   2.392  25.267  0.00  0.00    +0.003 C 
ATOM      9  C   UNL     1      -2.937   2.412  25.322  0.00  0.00    +0.000 C 
ATOM     10  C   UNL     1      -3.382   3.068  25.553  0.00  0.00    +0.040 C 
ATOM     21  C   UNL     1      -3.826   3.723  25.783  0.00  0.00    +0.152 C 
ATOM     22  O   UNL     1      -3.448   4.398  26.070  0.00  0.00    -0.223 OA
ATOM     23  C   UNL     1      -4.650   3.703  25.728  0.00  0.00    +0.033 C 
ATOM     24  C   UNL     1      -5.027   3.028  25.441  0.00  0.00    +0.003 C 
ATOM     25  C   UNL     1      -4.583   2.372  25.211  0.00  0.00    +0.006 C 
ENDROOT
BRANCH   2   3
ATOM      3  C   UNL     1      -5.616   2.176  25.073  0.00  0.00    +0.185 C 
ATOM      4  O   UNL     1      -6.377   1.888  24.936  0.00  0.00    -0.220 OA
ENDBRANCH   2   3
BRANCH  10  11
ATOM     11  C   UNL     1      -2.559   3.087  25.609  0.00  0.00    +0.088 C 
BRANCH  11  12
ATOM     12  C   UNL     1      -2.137   3.715  25.279  0.00  0.00    +0.226 C 
ATOM     13  O   UNL     1      -2.540   4.324  24.893  0.00  0.00    -0.275 OA
ATOM     14  N   UNL     1      -1.315   3.735  25.336  0.00  0.00    -0.279 N 
ATOM     15  C   UNL     1      -0.841   3.169  25.703  0.00  0.00    +0.093 C 
ATOM     16  C   UNL     1      -0.054   3.409  25.629  0.00  0.00    +0.023 C 
ATOM     17  C   UNL     1      -0.043   4.123  25.216  0.00  0.00    +0.024 C 
ATOM     18  C   UNL     1      -0.823   4.324  25.034  0.00  0.00    +0.108 C 
BRANCH  18  19
ATOM     19  C   UNL     1      -1.066   4.997  24.624  0.00  0.00    +0.202 C 
ATOM     20  O   UNL     1      -0.552   5.637  24.538  0.00  0.00    -0.219 OA
ENDBRANCH  18  19
ENDBRANCH  11  12
ENDBRANCH  10  11
BRANCH   5  26
ATOM     26  O   UNL     1      -4.894   0.367  24.407  0.00  0.00    -0.437 OA
BRANCH  26  27
ATOM     27  C   UNL     1      -4.451  -0.294  24.190  0.00  0.00    +0.425 C 
ATOM     28  O   UNL     1      -3.996  -0.276  23.500  0.00  0.00    -0.224 OA
ATOM     29  N   UNL     1      -4.461  -0.971  24.659  0.00  0.00    -0.142 NA
BRANCH  29  30
ATOM     30  C   UNL     1      -4.018  -1.631  24.441  0.00  0.00    +0.077 A 
ATOM     31  C   UNL     1      -3.244  -1.718  24.714  0.00  0.00    +0.021 A 
ATOM     32  C   UNL     1      -2.801  -2.378  24.496  0.00  0.00    +0.073 A 
ATOM     33  C   UNL     1      -3.132  -2.953  24.004  0.00  0.00    +0.004 A 
ATOM     34  C   UNL     1      -3.905  -2.867  23.731  0.00  0.00    +0.001 A 
ATOM     35  C   UNL     1      -4.349  -2.206  23.949  0.00  0.00    +0.017 A 
BRANCH  32  36
ATOM     36  C   UNL     1      -2.027  -2.465  24.769  0.00  0.00    +0.419 C 
ATOM     37  F   UNL     1      -1.254  -2.551  25.041  0.00  0.00    -0.166 F 
ATOM     38  F   UNL     1      -1.741  -2.258  24.023  0.00  0.00    -0.166 F 
ATOM     39  F   UNL     1      -2.314  -2.672  25.515  0.00  0.00    -0.166 F 
ENDBRANCH  32  36
ENDBRANCH  29  30
ENDBRANCH  26  27
ENDBRANCH   5  26
TORSDOF 8
ENDMDL
MODEL 2
REMARK VINA RESULT:     -11.9      1.678      3.576
REMARK  Name = 
REMARK  8 active torsions:
REMARK  status: ('A' for Active; 'I' for Inactive)
REMARK    1  A    between atoms: C_2  and  C_3
REMARK    2  A    between atoms: C_5  and  O_26
REMARK    3  A    between atoms: C_10  and  C_11
REMARK    4  A    between atoms: C_11  and  C_12
REMARK    5  A    between atoms: C_18  and  C_19
REMARK    6  A    between atoms: O_26  and  C_27
REMARK    7  A    between atoms: N_29  and  C_30
REMARK    8  A    between atoms: C_32  and  C_36
REMARK                            x       y       z     vdW  Elec       q    Type
REMARK                         _______ _______ _______ _____ _____    ______ ____
ROOT
ATOM      1  C   UNL     1      -0.126   1.625  25.515  0.00  0.00    +0.006 C 
ATOM      2  C   UNL     1      -0.823   2.049  25.398  0.00  0.00    +0.068 C 
ATOM      5  C   UNL     1      -1.058   1.308  25.124  0.00  0.00    +0.173 C 
ATOM      6  C   UNL     1      -1.827   1.196  24.841  0.00  0.00    +0.044 C 
ATOM      7  C   UNL     1      -2.358   1.827  24.833  0.00  0.00    +0.004 C 
ATOM      8  C   UNL     1      -2.123   2.568  25.107  0.00  0.00    +0.003 C 
ATOM      9  C   UNL     1      -2.889   2.457  24.825  0.00  0.00    +0.000 C 
ATOM     10  C   UNL     1      -2.654   3.199  25.099  0.00  0.00    +0.040 C 
ATOM     21  C   UNL     1      -2.419   3.940  25.373  0.00  0.00    +0.152 C 
ATOM     22  O   UNL     1      -2.951   4.571  25.365  0.00  0.00    -0.223 OA
ATOM     23  C   UNL     1      -1.651   4.051  25.655  0.00  0.00    +0.033 C 
ATOM     24  C   UNL     1      -1.120   3.421  25.664  0.00  0.00    +0.003 C 
ATOM     25  C   UNL     1      -1.355   2.679  25.389  0.00  0.00    +0.006 C 
ENDROOT
BRANCH   2   3
ATOM      3  C   UNL     1      -0.346   2.643  25.713  0.00  0.00    +0.185 C 
ATOM      4  O   UNL     1       0.430   2.473  25.938  0.00  0.00    -0.220 OA
ENDBRANCH   2   3
BRANCH  10  11
ATOM     11  C   UNL     1      -3.421   3.088  24.816  0.00  0.00    +0.088 C 
BRANCH  11  12
ATOM     12  C   UNL     1      -4.060   3.106  25.338  0.00  0.00    +0.226 C 
ATOM     13  O   UNL     1      -3.969   3.436  26.090  0.00  0.00    -0.275 OA
ATOM     14  N   UNL     1      -4.789   2.796  25.109  0.00  0.00    -0.279 N 
ATOM     15  C   UNL     1      -4.962   2.451  24.381  0.00  0.00    +0.093 C 
ATOM     16  C   UNL     1      -5.753   2.218  24.390  0.00  0.00    +0.023 C 
ATOM     17  C   UNL     1      -6.069   2.419  25.125  0.00  0.00    +0.024 C 
ATOM     18  C   UNL     1      -5.473   2.776  25.570  0.00  0.00    +0.108 C 
BRANCH  18  19
ATOM     19  C   UNL     1      -5.548   3.063  26.339  0.00  0.00    +0.202 C 
ATOM     20  O   UNL     1      -6.148   2.776  26.830  0.00  0.00    -0.219 OA
ENDBRANCH  18  19
ENDBRANCH  11  12
ENDBRANCH  10  11
BRANCH   5  26
ATOM     26  O   UNL     1      -0.527   0.676  25.132  0.00  0.00    -0.437 OA
BRANCH  26  27
ATOM     27  C   UNL     1      -0.759  -0.064  24.849  0.00  0.00    +0.425 C 
ATOM     28  O   UNL     1      -0.673  -0.245  24.048  0.00  0.00    -0.224 OA
ATOM     29  N   UNL     1      -1.077  -0.622  25.366  0.00  0.00    -0.142 NA
BRANCH  29  30
ATOM     30  C   UNL     1      -1.308  -1.361  25.084  0.00  0.00    +0.077 A 
ATOM     31  C   UNL     1      -2.110  -1.540  25.003  0.00  0.00    +0.021 A 
ATOM     32  C   UNL     1      -2.341  -2.279  24.720  0.00  0.00    +0.073 A 
ATOM     33  C   UNL     1      -1.771  -2.841  24.518  0.00  0.00    +0.004 A 
ATOM     34  C   UNL     1      -0.970  -2.662  24.598  0.00  0.00    +0.001 A 
ATOM     35  C   UNL     1      -0.738  -1.923  24.881  0.00  0.00    +0.017 A 
BRANCH  32  36
ATOM     36  C   UNL     1      -3.143  -2.458  24.639  0.00  0.00    +0.419 C 
ATOM     37  F   UNL     1      -3.943  -2.637  24.559  0.00  0.00    -0.166 F 
ATOM     38  F   UNL     1      -3.133  -2.155  23.872  0.00  0.00    -0.166 F 
ATOM     39  F   UNL     1      -3.152  -2.761  25.407  0.00  0.00    -0.166 F 
ENDBRANCH  32  36
ENDBRANCH  29  30
ENDBRANCH  26  27
ENDBRANCH   5  26
TORSDOF 8
ENDMDL
MODEL 3
REMARK VINA RESULT:     -11.7      2.938      4.801
REMARK  Name = 
REMARK  8 active torsions:
REMARK  status: ('A' for Active; 'I' for Inactive)
REMARK    1  A    between atoms: C_2  and  C_3
REMARK    2  A    between atoms: C_5  and  O_26
REMARK    3  A    between atoms: C_10  and  C_11
REMARK    4  A    between atoms: C_11  and  C_12
REMARK    5  A    between atoms: C_18  and  C_19
REMARK    6  A    between atoms: O_26  and  C_27
REMARK    7  A    between atoms: N_29  and  C_30
REMARK    8  A    between atoms: C_32  and  C_36
REMARK                            x       y       z     vdW  Elec       q    Type
REMARK                         _______ _______ _______ _____ _____    ______ ____
ROOT
ATOM      1  C   UNL     1      -4.215  -1.350  24.619  0.00  0.00    +0.006 C 
ATOM      2  C   UNL     1      -3.399  -1.231  24.623  0.00  0.00    +0.068 C 
ATOM      5  C   UNL     1      -3.657  -0.448  24.615  0.00  0.00    +0.173 C 
ATOM      6  C   UNL     1      -3.107   0.168  24.614  0.00  0.00    +0.044 C 
ATOM      7  C   UNL     1      -2.300  -0.000  24.620  0.00  0.00    +0.004 C 
ATOM      8  C   UNL     1      -2.042  -0.783  24.628  0.00  0.00    +0.003 C 
ATOM      9  C   UNL     1      -1.493  -0.169  24.626  0.00  0.00    +0.000 C 
ATOM     10  C   UNL     1      -1.234  -0.952  24.634  0.00  0.00    +0.040 C 
ATOM     21  C   UNL     1      -0.976  -1.735  24.641  0.00  0.00    +0.152 C 
ATOM     22  O   UNL     1      -0.168  -1.904  24.647  0.00  0.00    -0.223 OA
ATOM     23  C   UNL     1      -1.526  -2.351  24.642  0.00  0.00    +0.033 C 
ATOM     24  C   UNL     1      -2.333  -2.183  24.636  0.00  0.00    +0.003 C 
ATOM     25  C   UNL     1      -2.592  -1.399  24.629  0.00  0.00    +0.006 C 
ENDROOT
BRANCH   2   3
ATOM      3  C   UNL     1      -3.425  -2.056  24.629  0.00  0.00    +0.185 C 
ATOM      4  O   UNL     1      -4.132  -2.448  24.462  0.00  0.00    -0.220 OA
ENDBRANCH   2   3
BRANCH  10  11
ATOM     11  C   UNL     1      -0.685  -0.337  24.632  0.00  0.00    +0.088 C 
BRANCH  11  12
ATOM     12  C   UNL     1      -0.114  -0.294  24.038  0.00  0.00    +0.226 C 
ATOM     13  O   UNL     1      -0.024  -0.920  23.508  0.00  0.00    -0.275 OA
ATOM     14  N   UNL     1       0.365   0.374  23.974  0.00  0.00    -0.279 N 
ATOM     15  C   UNL     1       0.339   1.038  24.461  0.00  0.00    +0.093 C 
ATOM     16  C   UNL     1       0.913   1.570  24.199  0.00  0.00    +0.023 C 
ATOM     17  C   UNL     1       1.295   1.233  23.550  0.00  0.00    +0.024 C 
ATOM     18  C   UNL     1       0.956   0.494  23.411  0.00  0.00    +0.108 C 
BRANCH  18  19
ATOM     19  C   UNL     1       1.171  -0.033  22.813  0.00  0.00    +0.202 C 
ATOM     20  O   UNL     1       1.868   0.088  22.387  0.00  0.00    -0.219 OA
ENDBRANCH  18  19
ENDBRANCH  11  12
ENDBRANCH  10  11
BRANCH   5  26
ATOM     26  O   UNL     1      -4.465  -0.279  24.609  0.00  0.00    -0.437 OA
BRANCH  26  27
ATOM     27  C   UNL     1      -4.747   0.405  24.973  0.00  0.00    +0.425 C 
ATOM     28  O   UNL     1      -4.798   0.444  25.796  0.00  0.00    -0.224 OA
ATOM     29  N   UNL     1      -4.978   1.051  24.515  0.00  0.00    -0.142 NA
BRANCH  29  30
ATOM     30  C   UNL     1      -5.260   1.735  24.878  0.00  0.00    +0.077 A 
ATOM     31  C   UNL     1      -4.759   2.382  24.987  0.00  0.00    +0.021 A 
ATOM     32  C   UNL     1      -5.041   3.066  25.351  0.00  0.00    +0.073 A 
ATOM     33  C   UNL     1      -5.826   3.104  25.607  0.00  0.00    +0.004 A 
ATOM     34  C   UNL     1      -6.327   2.458  25.498  0.00  0.00    +0.001 A 
ATOM     35  C   UNL     1      -6.045   1.773  25.134  0.00  0.00    +0.017 A 
BRANCH  32  36
ATOM     36  C   UNL     1      -4.541   3.712  25.460  0.00  0.00    +0.419 C 
ATOM     37  F   UNL     1      -4.040   4.358  25.569  0.00  0.00    -0.166 F 
ATOM     38  F   UNL     1      -4.677   3.949  24.681  0.00  0.00    -0.166 F 
ATOM     39  F   UNL     1      -4.404   3.475  26.239  0.00  0.00    -0.166 F 
ENDBRANCH  32  36
ENDBRANCH  29  30
ENDBRANCH  26  27
ENDBRANCH   5  26
TORSDOF 8
ENDMDL
MODEL 4
REMARK VINA RESULT:     -11.7      2.125      3.525
REMARK  Name = 
REMARK  8 active torsions:
REMARK  status: ('A' for Active; 'I' for Inactive)
REMARK    1  A    between atoms: C_2  and  C_3
REMARK    2  A    between atoms: C_5  and  O_26
REMARK    3  A    between atoms: C_10  and  C_11
REMARK    4  A    between atoms: C_11  and  C_12
REMARK    5  A    between atoms: C_18  and  C_19
REMARK    6  A    between atoms: O_26  and  C_27
REMARK    7  A    between atoms: N_29  and  C_30
REMARK    8  A    between atoms: C_32  and  C_36
REMARK                            x       y       z     vdW  Elec       q    Type
REMARK                         _______ _______ _______ _____ _____    ______ ____
ROOT
ATOM      1  C   UNL     1       0.183  -0.147  24.080  0.00  0.00    +0.006 C 
ATOM      2  C   UNL     1      -0.114   0.587  24.312  0.00  0.00    +0.068 C 
ATOM      5  C   UNL     1      -0.629   0.089  24.720  0.00  0.00    +0.173 C 
ATOM      6  C   UNL     1      -1.227   0.409  25.191  0.00  0.00    +0.044 C 
ATOM      7  C   UNL     1      -1.308   1.227  25.253  0.00  0.00    +0.004 C 
ATOM      8  C   UNL     1      -0.793   1.725  24.845  0.00  0.00    +0.003 C 
ATOM      9  C   UNL     1      -1.390   2.045  25.315  0.00  0.00    +0.000 C 
ATOM     10  C   UNL     1      -0.875   2.544  24.907  0.00  0.00    +0.040 C 
ATOM     21  C   UNL     1      -0.360   3.042  24.499  0.00  0.00    +0.152 C 
ATOM     22  O   UNL     1      -0.441   3.861  24.561  0.00  0.00    -0.223 OA
ATOM     23  C   UNL     1       0.238   2.722  24.028  0.00  0.00    +0.033 C 
ATOM     24  C   UNL     1       0.320   1.904  23.966  0.00  0.00    +0.003 C 
ATOM     25  C   UNL     1      -0.195   1.405  24.374  0.00  0.00    +0.006 C 
ENDROOT
BRANCH   2   3
ATOM      3  C   UNL     1       0.505   0.830  23.823  0.00  0.00    +0.185 C 
ATOM      4  O   UNL     1       0.936   0.272  23.394  0.00  0.00    -0.220 OA
ENDBRANCH   2   3
BRANCH  10  11
ATOM     11  C   UNL     1      -1.472   2.864  25.377  0.00  0.00    +0.088 C 
BRANCH  11  12
ATOM     12  C   UNL     1      -2.125   3.225  25.026  0.00  0.00    +0.226 C 
ATOM     13  O   UNL     1      -2.234   3.177  24.209  0.00  0.00    -0.275 OA
ATOM     14  N   UNL     1      -2.670   3.634  25.491  0.00  0.00    -0.279 N 
ATOM     15  C   UNL     1      -2.635   3.729  26.309  0.00  0.00    +0.093 C 
ATOM     16  C   UNL     1      -3.289   4.174  26.543  0.00  0.00    +0.023 C 
ATOM     17  C   UNL     1      -3.729   4.354  25.869  0.00  0.00    +0.024 C 
ATOM     18  C   UNL     1      -3.346   4.020  25.218  0.00  0.00    +0.108 C 
BRANCH  18  19
ATOM     19  C   UNL     1      -3.596   4.065  24.433  0.00  0.00    +0.202 C 
ATOM     20  O   UNL     1      -4.373   4.283  24.259  0.00  0.00    -0.219 OA
ENDBRANCH  18  19
ENDBRANCH  11  12
ENDBRANCH  10  11
BRANCH   5  26
ATOM     26  O   UNL     1      -0.547  -0.730  24.658  0.00  0.00    -0.437 OA
BRANCH  26  27
ATOM     27  C   UNL     1      -1.195  -1.222  24.797  0.00  0.00    +0.425 C 
ATOM     28  O   UNL     1      -1.432  -1.383  25.572  0.00  0.00    -0.224 OA
ATOM     29  N   UNL     1      -1.606  -1.553  24.163  0.00  0.00    -0.142 NA
BRANCH  29  30
ATOM     30  C   UNL     1      -2.253  -2.044  24.303  0.00  0.00    +0.077 A 
ATOM     31  C   UNL     1      -3.013  -1.793  24.104  0.00  0.00    +0.021 A 
ATOM     32  C   UNL     1      -3.661  -2.284  24.243  0.00  0.00    +0.073 A 
ATOM     33  C   UNL     1      -3.548  -3.029  24.582  0.00  0.00    +0.004 A 
ATOM     34  C   UNL     1      -2.789  -3.280  24.781  0.00  0.00    +0.001 A 
ATOM     35  C   UNL     1      -2.141  -2.789  24.642  0.00  0.00    +0.017 A 
BRANCH  32  36
ATOM     36  C   UNL     1      -4.421  -2.033  24.044  0.00  0.00    +0.419 C 
ATOM     37  F   UNL     1      -5.180  -1.782  23.845  0.00  0.00    -0.166 F 
ATOM     38  F   UNL     1      -4.412  -1.505  24.679  0.00  0.00    -0.166 F 
ATOM     39  F   UNL     1      -4.429  -2.561  23.410  0.00  0.00    -0.166 F 
ENDBRANCH  32  36
ENDBRANCH  29  30
ENDBRANCH  26  27
ENDBRANCH   5  26
TORSDOF 8
ENDMDL
MODEL 5
REMARK VINA RESULT:     -11.7      1.914      5.230
REMARK  Name = 
REMARK  8 active torsions:
REMARK  status: ('A' for Active; 'I' for Inactive)
REMARK    1  A    between atoms: C_2  and  C_3
REMARK    2  A    between atoms: C_5  and  O_26
REMARK    3  A    between atoms: C_10  and  C_11
REMARK    4  A    between atoms: C_11  and  C_12
REMARK    5  A    between atoms: C_18  and  C_19
REMARK    6  A    between atoms: O_26  and  C_27
REMARK    7  A    between atoms: N_29  and  C_30
REMARK    8  A    between atoms: C_32  and  C_36
REMARK                            x       y       z     vdW  Elec       q    Type
REMARK                         _______ _______ _______ _____ _____    ______ ____
ROOT
ATOM      1  C   UNL     1      -4.866   3.867  25.445  0.00  0.00    +0.006 C 
ATOM      2  C   UNL     1      -4.903   3.064  25.262  0.00  0.00    +0.068 C 
ATOM      5  C   UNL     1      -4.164   3.249  24.946  0.00  0.00    +0.173 C 
ATOM      6  C   UNL     1      -3.714   2.663  24.578  0.00  0.00    +0.044 C 
ATOM      7  C   UNL     1      -4.002   1.893  24.526  0.00  0.00    +0.004 C 
ATOM      8  C   UNL     1      -4.741   1.707  24.842  0.00  0.00    +0.003 C 
ATOM      9  C   UNL     1      -4.291   1.122  24.475  0.00  0.00    +0.000 C 
ATOM     10  C   UNL     1      -5.030   0.936  24.791  0.00  0.00    +0.040 C 
ATOM     21  C   UNL     1      -5.769   0.750  25.107  0.00  0.00    +0.152 C 
ATOM     22  O   UNL     1      -6.058  -0.021  25.056  0.00  0.00    -0.223 OA
ATOM     23  C   UNL     1      -6.220   1.337  25.475  0.00  0.00    +0.033 C 
ATOM     24  C   UNL     1      -5.931   2.107  25.526  0.00  0.00    +0.003 C 
ATOM     25  C   UNL     1      -5.192   2.293  25.210  0.00  0.00    +0.006 C 
ENDROOT
BRANCH   2   3
ATOM      3  C   UNL     1      -5.629   3.157  25.641  0.00  0.00    +0.185 C 
ATOM      4  O   UNL     1      -5.886   3.910  25.861  0.00  0.00    -0.220 OA
ENDBRANCH   2   3
BRANCH  10  11
ATOM     11  C   UNL     1      -4.580   0.351  24.423  0.00  0.00    +0.088 C 
BRANCH  11  12
ATOM     12  C   UNL     1      -4.291  -0.285  24.863  0.00  0.00    +0.226 C 
ATOM     13  O   UNL     1      -4.208  -0.216  25.682  0.00  0.00    -0.275 OA
ATOM     14  N   UNL     1      -4.083  -0.987  24.485  0.00  0.00    -0.279 N 
ATOM     15  C   UNL     1      -4.135  -1.136  23.676  0.00  0.00    +0.093 C 
ATOM     16  C   UNL     1      -3.871  -1.907  23.541  0.00  0.00    +0.023 C 
ATOM     17  C   UNL     1      -3.657  -2.234  24.267  0.00  0.00    +0.024 C 
ATOM     18  C   UNL     1      -3.788  -1.665  24.851  0.00  0.00    +0.108 C 
BRANCH  18  19
ATOM     19  C   UNL     1      -3.648  -1.759  25.658  0.00  0.00    +0.202 C 
ATOM     20  O   UNL     1      -3.363  -2.478  25.947  0.00  0.00    -0.219 OA
ENDBRANCH  18  19
ENDBRANCH  11  12
ENDBRANCH  10  11
BRANCH   5  26
ATOM     26  O   UNL     1      -3.875   4.020  24.997  0.00  0.00    -0.437 OA
BRANCH  26  27
ATOM     27  C   UNL     1      -3.090   4.182  24.799  0.00  0.00    +0.425 C 
ATOM     28  O   UNL     1      -2.871   4.253  24.006  0.00  0.00    -0.224 OA
ATOM     29  N   UNL     1      -2.525   4.272  25.392  0.00  0.00    -0.142 NA
BRANCH  29  30
ATOM     30  C   UNL     1      -1.741   4.433  25.194  0.00  0.00    +0.077 A 
ATOM     31  C   UNL     1      -1.198   3.816  25.123  0.00  0.00    +0.021 A 
ATOM     32  C   UNL     1      -0.414   3.977  24.925  0.00  0.00    +0.073 A 
ATOM     33  C   UNL     1      -0.172   4.757  24.798  0.00  0.00    +0.004 A 
ATOM     34  C   UNL     1      -0.715   5.373  24.869  0.00  0.00    +0.001 A 
ATOM     35  C   UNL     1      -1.499   5.212  25.067  0.00  0.00    +0.017 A 
BRANCH  32  36
ATOM     36  C   UNL     1       0.130   3.361  24.854  0.00  0.00    +0.419 C 
ATOM     37  F   UNL     1       0.673   2.744  24.783  0.00  0.00    -0.166 F 
ATOM     38  F   UNL     1       0.150   3.283  25.676  0.00  0.00    -0.166 F 
ATOM     39  F   UNL     1       0.110   3.438  24.033  0.00  0.00    -0.166 F 
ENDBRANCH  32  36
ENDBRANCH  29  30
ENDBRANCH  26  27
ENDBRANCH   5  26
TORSDOF 8
ENDMDL
MODEL 6
REMARK VINA RESULT:     -11.0      2.716      6.076
REMARK  Name = 
REMARK  8 active torsions:
REMARK  status: ('A' for Active; 'I' for Inactive)
REMARK    1  A    between atoms: C_2  and  C_3
REMARK    2  A    between atoms: C_5  and  O_26
REMARK    3  A    between atoms: C_10  and  C_11
REMARK    4  A    between atoms: C_11  and  C_12
REMARK    5  A    between atoms: C_18  and  C_19
REMARK    6  A    between atoms: O_26  and  C_27
REMARK    7  A    between atoms: N_29  and  C_30
REMARK    8  A    between atoms: C_32  and  C_36
REMARK                            x       y       z     vdW  Elec       q    Type
REMARK                         _______ _______ _______ _____ _____    ______ ____
ROOT
ATOM      1  C   UNL     1       0.116   2.104  24.478  0.00  0.00    +0.006 C 
ATOM      2  C   UNL     1      -0.193   1.341  24.523  0.00  0.00    +0.068 C 
ATOM      5  C   UNL     1      -0.700   1.731  25.042  0.00  0.00    +0.173 C 
ATOM      6  C   UNL     1      -1.304   1.313  25.421  0.00  0.00    +0.044 C 
ATOM      7  C   UNL     1      -1.398   0.506  25.280  0.00  0.00    +0.004 C 
ATOM      8  C   UNL     1      -0.891   0.116  24.761  0.00  0.00    +0.003 C 
ATOM      9  C   UNL     1      -1.493  -0.300  25.139  0.00  0.00    +0.000 C 
ATOM     10  C   UNL     1      -0.985  -0.691  24.619  0.00  0.00    +0.040 C 
ATOM     21  C   UNL     1      -0.477  -1.081  24.100  0.00  0.00    +0.152 C 
ATOM     22  O   UNL     1      -0.571  -1.889  23.958  0.00  0.00    -0.223 OA
ATOM     23  C   UNL     1       0.127  -0.663  23.721  0.00  0.00    +0.033 C 
ATOM     24  C   UNL     1       0.221   0.143  23.862  0.00  0.00    +0.003 C 
ATOM     25  C   UNL     1      -0.287   0.534  24.382  0.00  0.00    +0.006 C 
ENDROOT
BRANCH   2   3
ATOM      3  C   UNL     1       0.423   1.216  23.988  0.00  0.00    +0.185 C 
ATOM      4  O   UNL     1       0.982   1.809  23.857  0.00  0.00    -0.220 OA
ENDBRANCH   2   3
BRANCH  10  11
ATOM     11  C   UNL     1      -1.588  -1.108  24.997  0.00  0.00    +0.088 C 
BRANCH  11  12
ATOM     12  C   UNL     1      -2.227  -1.396  24.562  0.00  0.00    +0.226 C 
ATOM     13  O   UNL     1      -2.362  -1.119  23.796  0.00  0.00    -0.275 OA
ATOM     14  N   UNL     1      -2.730  -1.959  24.892  0.00  0.00    -0.279 N 
ATOM     15  C   UNL     1      -2.665  -2.285  25.647  0.00  0.00    +0.093 C 
ATOM     16  C   UNL     1      -3.282  -2.824  25.746  0.00  0.00    +0.023 C 
ATOM     17  C   UNL     1      -3.729  -2.830  25.053  0.00  0.00    +0.024 C 
ATOM     18  C   UNL     1      -3.388  -2.296  24.525  0.00  0.00    +0.108 C 
BRANCH  18  19
ATOM     19  C   UNL     1      -3.657  -2.127  23.764  0.00  0.00    +0.202 C 
ATOM     20  O   UNL     1      -4.384  -2.425  23.508  0.00  0.00    -0.219 OA
ENDBRANCH  18  19
ENDBRANCH  11  12
ENDBRANCH  10  11
BRANCH   5  26
ATOM     26  O   UNL     1      -0.606   2.538  25.184  0.00  0.00    -0.437 OA
BRANCH  26  27
ATOM     27  C   UNL     1      -1.226   2.976  25.509  0.00  0.00    +0.425 C 
ATOM     28  O   UNL     1      -1.314   3.020  26.329  0.00  0.00    -0.224 OA
ATOM     29  N   UNL     1      -1.756   3.370  25.016  0.00  0.00    -0.142 NA
BRANCH  29  30
ATOM     30  C   UNL     1      -2.374   3.808  25.341  0.00  0.00    +0.077 A 
ATOM     31  C   UNL     1      -3.151   3.537  25.276  0.00  0.00    +0.021 A 
ATOM     32  C   UNL     1      -3.770   3.974  25.601  0.00  0.00    +0.073 A 
ATOM     33  C   UNL     1      -3.612   4.684  25.992  0.00  0.00    +0.004 A 
ATOM     34  C   UNL     1      -2.836   4.955  26.057  0.00  0.00    +0.001 A 
ATOM     35  C   UNL     1      -2.217   4.518  25.732  0.00  0.00    +0.017 A 
BRANCH  32  36
ATOM     36  C   UNL     1      -4.546   3.703  25.536  0.00  0.00    +0.419 C 
ATOM     37  F   UNL     1      -5.322   3.433  25.470  0.00  0.00    -0.166 F 
ATOM     38  F   UNL     1      -4.479   3.333  26.270  0.00  0.00    -0.166 F 
ATOM     39  F   UNL     1      -4.613   4.074  24.801  0.00  0.00    -0.166 F 
ENDBRANCH  32  36
ENDBRANCH  29  30
ENDBRANCH  26  27
ENDBRANCH   5  26
TORSDOF 8
ENDMDL
MODEL 7
REMARK VINA RESULT:     -10.9      2.560      5.183
REMARK  Name = 
REMARK  8 active torsions:
REMARK  status: ('A' for Active; 'I' for Inactive)
REMARK    1  A    between atoms: C_2  and  C_3
REMARK    2  A    between atoms: C_5  and  O_26
REMARK    3  A    between atoms: C_10  and  C_11
REMARK    4  A    between atoms: C_11  and  C_12
REMARK    5  A    between atoms: C_18  and  C_19
REMARK    6  A    between atoms: O_26  and  C_27
REMARK    7  A    between atoms: N_29  and  C_30
REMARK    8  A    between atoms: C_32  and  C_36
REMARK                            x       y       z     vdW  Elec       q    Type
REMARK                         _______ _______ _______ _____ _____    ______ ____
ROOT
ATOM      1  C   UNL     1      -4.973   2.059  25.068  0.00  0.00    +0.006 C 
ATOM      2  C   UNL     1      -4.486   1.426  24.861  0.00  0.00    +0.068 C 
ATOM      5  C   UNL     1      -3.955   2.050  24.773  0.00  0.00    +0.173 C 
ATOM      6  C   UNL     1      -3.178   1.901  24.534  0.00  0.00    +0.044 C 
ATOM      7  C   UNL     1      -2.935   1.128  24.383  0.00  0.00    +0.004 C 
ATOM      8  C   UNL     1      -3.467   0.504  24.471  0.00  0.00    +0.003 C 
ATOM      9  C   UNL     1      -2.692   0.355  24.232  0.00  0.00    +0.000 C 
ATOM     10  C   UNL     1      -3.224  -0.270  24.320  0.00  0.00    +0.040 C 
ATOM     21  C   UNL     1      -3.755  -0.894  24.408  0.00  0.00    +0.152 C 
ATOM     22  O   UNL     1      -3.512  -1.669  24.257  0.00  0.00    -0.223 OA
ATOM     23  C   UNL     1      -4.531  -0.745  24.648  0.00  0.00    +0.033 C 
ATOM     24  C   UNL     1      -4.774   0.028  24.798  0.00  0.00    +0.003 C 
ATOM     25  C   UNL     1      -4.243   0.653  24.710  0.00  0.00    +0.006 C 
ENDROOT
BRANCH   2   3
ATOM      3  C   UNL     1      -5.187   1.022  25.021  0.00  0.00    +0.185 C 
ATOM      4  O   UNL     1      -5.867   1.441  25.230  0.00  0.00    -0.220 OA
ENDBRANCH   2   3
BRANCH  10  11
ATOM     11  C   UNL     1      -2.448  -0.420  24.081  0.00  0.00    +0.088 C 
BRANCH  11  12
ATOM     12  C   UNL     1      -1.941  -0.850  24.569  0.00  0.00    +0.226 C 
ATOM     13  O   UNL     1      -2.230  -1.196  25.261  0.00  0.00    -0.275 OA
ATOM     14  N   UNL     1      -1.147  -0.934  24.367  0.00  0.00    -0.279 N 
ATOM     15  C   UNL     1      -0.781  -0.622  23.697  0.00  0.00    +0.093 C 
ATOM     16  C   UNL     1       0.014  -0.841  23.714  0.00  0.00    +0.023 C 
ATOM     17  C   UNL     1       0.140  -1.289  24.395  0.00  0.00    +0.024 C 
ATOM     18  C   UNL     1      -0.578  -1.347  24.799  0.00  0.00    +0.108 C 
BRANCH  18  19
ATOM     19  C   UNL     1      -0.704  -1.747  25.509  0.00  0.00    +0.202 C 
ATOM     20  O   UNL     1      -0.082  -2.155  25.869  0.00  0.00    -0.219 OA
ENDBRANCH  18  19
ENDBRANCH  11  12
ENDBRANCH  10  11
BRANCH   5  26
ATOM     26  O   UNL     1      -4.197   2.824  24.924  0.00  0.00    -0.437 OA
BRANCH  26  27
ATOM     27  C   UNL     1      -3.667   3.450  24.831  0.00  0.00    +0.425 C 
ATOM     28  O   UNL     1      -3.595   3.823  24.097  0.00  0.00    -0.224 OA
ATOM     29  N   UNL     1      -3.211   3.703  25.469  0.00  0.00    -0.142 NA
BRANCH  29  30
ATOM     30  C   UNL     1      -2.681   4.328  25.375  0.00  0.00    +0.077 A 
ATOM     31  C   UNL     1      -1.882   4.176  25.235  0.00  0.00    +0.021 A 
ATOM     32  C   UNL     1      -1.353   4.801  25.141  0.00  0.00    +0.073 A 
ATOM     33  C   UNL     1      -1.622   5.580  25.187  0.00  0.00    +0.004 A 
ATOM     34  C   UNL     1      -2.420   5.733  25.327  0.00  0.00    +0.001 A 
ATOM     35  C   UNL     1      -2.951   5.107  25.421  0.00  0.00    +0.017 A 
BRANCH  32  36
ATOM     36  C   UNL     1      -0.554   4.648  25.002  0.00  0.00    +0.419 C 
ATOM     37  F   UNL     1       0.244   4.496  24.862  0.00  0.00    -0.166 F 
ATOM     38  F   UNL     1      -0.574   4.037  25.556  0.00  0.00    -0.166 F 
ATOM     39  F   UNL     1      -0.535   5.260  24.447  0.00  0.00    -0.166 F 
ENDBRANCH  32  36
ENDBRANCH  29  30
ENDBRANCH  26  27
ENDBRANCH   5  26
TORSDOF 8
ENDMDL
MODEL 8
REMARK VINA RESULT:     -10.9      2.602      5.318
REMARK  Name = 
REMARK  8 active torsions:
REMARK  status: ('A' for Active; 'I' for Inactive)
REMARK    1  A    between atoms: C_2  and  C_3
REMARK    2  A    between atoms: C_5  and  O_26
REMARK    3  A    between atoms: C_10  and  C_11
REMARK    4  A    between atoms: C_11  and  C_12
REMARK    5  A    between atoms: C_18  and  C_19
REMARK    6  A    between atoms: O_26  and  C_27
REMARK    7  A    between atoms: N_29  and  C_30
REMARK    8  A    between atoms: C_32  and  C_36
REMARK                            x       y       z     vdW  Elec       q    Type
REMARK                         _______ _______ _______ _____ _____    ______ ____
ROOT
ATOM      1  C   UNL     1      -1.436   3.927  24.809  0.00  0.00    +0.006 C 
ATOM      2  C   UNL     1      -1.244   3.144  24.633  0.00  0.00    +0.068 C 
ATOM      5  C   UNL     1      -2.052   3.065  24.774  0.00  0.00    +0.173 C 
ATOM      6  C   UNL     1      -2.411   2.323  24.711  0.00  0.00    +0.044 C 
ATOM      7  C   UNL     1      -1.961   1.663  24.507  0.00  0.00    +0.004 C 
ATOM      8  C   UNL     1      -1.153   1.743  24.367  0.00  0.00    +0.003 C 
ATOM      9  C   UNL     1      -1.511   1.003  24.304  0.00  0.00    +0.000 C 
ATOM     10  C   UNL     1      -0.702   1.082  24.164  0.00  0.00    +0.040 C 
ATOM     21  C   UNL     1       0.107   1.161  24.024  0.00  0.00    +0.152 C 
ATOM     22  O   UNL     1       0.558   0.501  23.820  0.00  0.00    -0.223 OA
ATOM     23  C   UNL     1       0.466   1.903  24.087  0.00  0.00    +0.033 C 
ATOM     24  C   UNL     1       0.016   2.563  24.290  0.00  0.00    +0.003 C 
ATOM     25  C   UNL     1      -0.794   2.484  24.430  0.00  0.00    +0.006 C 
ENDROOT
BRANCH   2   3
ATOM      3  C   UNL     1      -0.502   3.495  24.554  0.00  0.00    +0.185 C 
ATOM      4  O   UNL     1      -0.412   4.305  24.686  0.00  0.00    -0.220 OA
ENDBRANCH   2   3
BRANCH  10  11
ATOM     11  C   UNL     1      -1.061   0.342  24.101  0.00  0.00    +0.088 C 
BRANCH  11  12
ATOM     12  C   UNL     1      -0.807  -0.282  24.577  0.00  0.00    +0.226 C 
ATOM     13  O   UNL     1      -0.202  -0.162  25.126  0.00  0.00    -0.275 OA
ATOM     14  N   UNL     1      -1.156  -1.025  24.505  0.00  0.00    -0.279 N 
ATOM     15  C   UNL     1      -1.763  -1.227  23.984  0.00  0.00    +0.093 C 
ATOM     16  C   UNL     1      -1.943  -2.024  24.099  0.00  0.00    +0.023 C 
ATOM     17  C   UNL     1      -1.447  -2.315  24.691  0.00  0.00    +0.024 C 
ATOM     18  C   UNL     1      -0.961  -1.697  24.942  0.00  0.00    +0.108 C 
BRANCH  18  19
ATOM     19  C   UNL     1      -0.381  -1.743  25.527  0.00  0.00    +0.202 C 
ATOM     20  O   UNL     1      -0.107  -2.481  25.779  0.00  0.00    -0.219 OA
ENDBRANCH  18  19
ENDBRANCH  11  12
ENDBRANCH  10  11
BRANCH   5  26
ATOM     26  O   UNL     1      -2.503   3.725  24.977  0.00  0.00    -0.437 OA
BRANCH  26  27
ATOM     27  C   UNL     1      -3.327   3.683  24.966  0.00  0.00    +0.425 C 
ATOM     28  O   UNL     1      -3.731   3.698  24.245  0.00  0.00    -0.224 OA
ATOM     29  N   UNL     1      -3.747   3.625  25.673  0.00  0.00    -0.142 NA
BRANCH  29  30
ATOM     30  C   UNL     1      -4.571   3.583  25.661  0.00  0.00    +0.077 A 
ATOM     31  C   UNL     1      -4.949   2.861  25.786  0.00  0.00    +0.021 A 
ATOM     32  C   UNL     1      -5.772   2.819  25.774  0.00  0.00    +0.073 A 
ATOM     33  C   UNL     1      -6.219   3.500  25.637  0.00  0.00    +0.004 A 
ATOM     34  C   UNL     1      -5.841   4.222  25.512  0.00  0.00    +0.001 A 
ATOM     35  C   UNL     1      -5.017   4.265  25.524  0.00  0.00    +0.017 A 
BRANCH  32  36
ATOM     36  C   UNL     1      -6.151   2.096  25.899  0.00  0.00    +0.419 C 
ATOM     37  F   UNL     1      -6.530   1.375  26.025  0.00  0.00    -0.166 F 
ATOM     38  F   UNL     1      -6.217   1.989  25.084  0.00  0.00    -0.166 F 
ATOM     39  F   UNL     1      -6.085   2.204  26.715  0.00  0.00    -0.166 F 
ENDBRANCH  32  36
ENDBRANCH  29  30
ENDBRANCH  26  27
ENDBRANCH   5  26
TORSDOF 8
ENDMDL
MODEL 9
REMARK VINA RESULT:      -9.8     15.640     18.899
REMARK  Name = 
REMARK  8 active torsions:
REMARK  status: ('A' for Active; 'I' for Inactive)
REMARK    1  A    between atoms: C_2  and  C_3
REMARK    2  A    between atoms: C_5  and  O_26
REMARK    3  A    between atoms: C_10  and  C_11
REMARK    4  A    between atoms: C_11  and  C_12
REMARK    5  A    between atoms: C_18  and  C_19
REMARK    6  A    between atoms: O_26  and  C_27
REMARK    7  A    between atoms: N_29  and  C_30
REMARK    8  A    between atoms: C_32  and  C_36
REMARK                            x       y       z     vdW  Elec       q    Type
REMARK                         _______ _______ _______ _____ _____    ______ ____
ROOT
ATOM      1  C   UNL     1      13.833   7.745  17.365  0.00  0.00    +0.006 C 
ATOM      2  C   UNL     1      13.247   7.958  17.906  0.00  0.00    +0.068 C 
ATOM      5  C   UNL     1      13.900   7.919  18.408  0.00  0.00    +0.173 C 
ATOM      6  C   UNL     1      13.811   8.081  19.213  0.00  0.00    +0.044 C 
ATOM      7  C   UNL     1      13.070   8.281  19.514  0.00  0.00    +0.004 C 
ATOM      8  C   UNL     1      12.418   8.320  19.011  0.00  0.00    +0.003 C 
ATOM      9  C   UNL     1      12.329   8.482  19.814  0.00  0.00    +0.000 C 
ATOM     10  C   UNL     1      11.676   8.521  19.312  0.00  0.00    +0.040 C 
ATOM     21  C   UNL     1      11.023   8.559  18.809  0.00  0.00    +0.152 C 
ATOM     22  O   UNL     1      10.281   8.760  19.110  0.00  0.00    -0.223 OA
ATOM     23  C   UNL     1      11.112   8.397  18.004  0.00  0.00    +0.033 C 
ATOM     24  C   UNL     1      11.853   8.197  17.704  0.00  0.00    +0.003 C 
ATOM     25  C   UNL     1      12.506   8.158  18.206  0.00  0.00    +0.006 C 
ENDROOT
BRANCH   2   3
ATOM      3  C   UNL     1      12.798   7.922  17.215  0.00  0.00    +0.185 C 
ATOM      4  O   UNL     1      13.173   7.872  16.481  0.00  0.00    -0.220 OA
ENDBRANCH   2   3
BRANCH  10  11
ATOM     11  C   UNL     1      11.587   8.683  20.116  0.00  0.00    +0.088 C 
BRANCH  11  12
ATOM     12  C   UNL     1      11.166   8.162  20.598  0.00  0.00    +0.226 C 
ATOM     13  O   UNL     1      10.939   7.423  20.307  0.00  0.00    -0.275 OA
ATOM     14  N   UNL     1      10.973   8.378  21.369  0.00  0.00    -0.279 N 
ATOM     15  C   UNL     1      11.162   9.094  21.734  0.00  0.00    +0.093 C 
ATOM     16  C   UNL     1      10.862   9.075  22.503  0.00  0.00    +0.023 C 
ATOM     17  C   UNL     1      10.488   8.348  22.613  0.00  0.00    +0.024 C 
ATOM     18  C   UNL     1      10.556   7.917  21.912  0.00  0.00    +0.108 C 
BRANCH  18  19
ATOM     19  C   UNL     1      10.261   7.160  21.779  0.00  0.00    +0.202 C 
ATOM     20  O   UNL     1       9.901   6.742  22.395  0.00  0.00    -0.219 OA
ENDBRANCH  18  19
ENDBRANCH  11  12
ENDBRANCH  10  11
BRANCH   5  26
ATOM     26  O   UNL     1      14.642   7.719  18.108  0.00  0.00    -0.437 OA
BRANCH  26  27
ATOM     27  C   UNL     1      15.253   7.508  18.621  0.00  0.00    +0.425 C 
ATOM     28  O   UNL     1      15.678   8.094  19.018  0.00  0.00    -0.224 OA
ATOM     29  N   UNL     1      15.439   6.714  18.738  0.00  0.00    -0.142 NA
BRANCH  29  30
ATOM     30  C   UNL     1      16.049   6.504  19.250  0.00  0.00    +0.077 A 
ATOM     31  C   UNL     1      15.917   6.485  20.065  0.00  0.00    +0.021 A 
ATOM     32  C   UNL     1      16.528   6.275  20.577  0.00  0.00    +0.073 A 
ATOM     33  C   UNL     1      17.273   6.084  20.276  0.00  0.00    +0.004 A 
ATOM     34  C   UNL     1      17.405   6.103  19.462  0.00  0.00    +0.001 A 
ATOM     35  C   UNL     1      16.794   6.313  18.949  0.00  0.00    +0.017 A 
BRANCH  32  36
ATOM     36  C   UNL     1      16.396   6.255  21.392  0.00  0.00    +0.419 C 
ATOM     37  F   UNL     1      16.263   6.236  22.205  0.00  0.00    -0.166 F 
ATOM     38  F   UNL     1      16.946   6.862  21.495  0.00  0.00    -0.166 F 
ATOM     39  F   UNL     1      15.845   5.649  21.287  0.00  0.00    -0.166 F 
ENDBRANCH  32  36
ENDBRANCH  29  30
ENDBRANCH  26  27
ENDBRANCH   5  26
TORSDOF 8
ENDMDL
