MODEL 1
REMARK VINA RESULT:      -9.6      0.000      0.000
REMARK  Name = 
REMARK  6 active torsions:
REMARK  status: ('A' for Active; 'I' for Inactive)
REMARK    1  A    between atoms: O_2  and  C_3
REMARK    2  A    between atoms: C_6  and  C_9
REMARK    3  A    between atoms: N_14  and  C_15
REMARK    4  A    between atoms: C_19  and  N_23
REMARK    5  A    between atoms: C_24  and  C_26
REMARK    6  A    between atoms: C_29  and  C_32
REMARK                            x       y       z     vdW  Elec       q    Type
REMARK                         _______ _______ _______ _____ _____    ______ ____
ROOT
ATOM     15  C   UNL     1      -0.135   0.873  24.111  0.00  0.00    +0.154 C 
ATOM     16  C   UNL     1      -0.582   0.191  23.985  0.00  0.00    +0.166 C 
ATOM     17  O   UNL     1      -1.379   0.397  24.037  0.00  0.00    -0.350 OA
ATOM     18  C   UNL     1      -1.425   1.204  24.195  0.00  0.00    +0.166 C 
ATOM     19  C   UNL     1      -1.945   1.831  24.325  0.00  0.00    +0.155 C 
ATOM     20  C   UNL     1      -1.498   2.513  24.451  0.00  0.00    +0.166 C 
ATOM     21  O   UNL     1      -0.701   2.307  24.399  0.00  0.00    -0.350 OA
ATOM     22  C   UNL     1      -0.655   1.499  24.240  0.00  0.00    +0.166 C 
ENDROOT
BRANCH  15  14
ATOM      9  C   UNL     1       2.380   0.182  22.940  0.00  0.00    +0.086 A 
ATOM     10  C   UNL     1       1.990  -0.258  22.361  0.00  0.00    +0.040 A 
ATOM     11  C   UNL     1       1.166  -0.305  22.364  0.00  0.00    +0.103 A 
ATOM     12  N   UNL     1       0.732   0.088  22.946  0.00  0.00    -0.211 NA
ATOM     13  C   UNL     1       1.123   0.527  23.525  0.00  0.00    +0.237 A 
ATOM     14  N   UNL     1       0.689   0.920  24.107  0.00  0.00    -0.200 NA
ATOM     36  N   UNL     1       1.946   0.574  23.522  0.00  0.00    -0.212 NA
BRANCH   9   6
ATOM      3  C   UNL     1       4.851   0.323  22.929  0.00  0.00    +0.139 A 
ATOM      4  C   UNL     1       4.478  -0.368  23.184  0.00  0.00    +0.037 A 
ATOM      5  C   UNL     1       3.654  -0.415  23.187  0.00  0.00    +0.005 A 
ATOM      6  C   UNL     1       3.203   0.228  22.937  0.00  0.00    +0.018 A 
ATOM      7  C   UNL     1       3.576   0.919  22.682  0.00  0.00    +0.005 A 
ATOM      8  C   UNL     1       4.400   0.966  22.679  0.00  0.00    +0.037 A 
BRANCH   3   2
ATOM      1  C   UNL     1       6.100   0.198  23.612  0.00  0.00    +0.252 C 
ATOM      2  O   UNL     1       5.674   0.369  22.926  0.00  0.00    -0.471 OA
ENDBRANCH   3   2
ENDBRANCH   9   6
ENDBRANCH  15  14
BRANCH  19  23
ATOM     23  N   UNL     1      -2.769   1.784  24.328  0.00  0.00    -0.198 NA
ATOM     24  C   UNL     1      -3.199   2.126  24.943  0.00  0.00    +0.265 C 
ATOM     25  O   UNL     1      -2.806   2.515  25.555  0.00  0.00    -0.268 OA
BRANCH  24  26
ATOM     26  C   UNL     1      -4.023   2.079  24.946  0.00  0.00    +0.055 A 
ATOM     27  C   UNL     1      -4.394   1.343  24.971  0.00  0.00    +0.005 A 
ATOM     28  C   UNL     1      -5.218   1.295  24.975  0.00  0.00    +0.004 A 
ATOM     29  C   UNL     1      -5.670   1.986  24.952  0.00  0.00    +0.071 A 
ATOM     30  C   UNL     1      -5.299   2.721  24.927  0.00  0.00    +0.004 A 
ATOM     31  C   UNL     1      -4.475   2.769  24.924  0.00  0.00    +0.005 A 
BRANCH  29  32
ATOM     32  C   UNL     1      -6.494   1.939  24.956  0.00  0.00    +0.419 C 
ATOM     33  F   UNL     1      -7.317   1.892  24.959  0.00  0.00    -0.166 F 
ATOM     34  F   UNL     1      -6.496   1.913  24.132  0.00  0.00    -0.166 F 
ATOM     35  F   UNL     1      -6.493   1.964  25.781  0.00  0.00    -0.166 F 
ENDBRANCH  29  32
ENDBRANCH  24  26
ENDBRANCH  19  23
TORSDOF 6
ENDMDL
MODEL 2
REMARK VINA RESULT:      -9.5      3.855      8.134
REMARK  Name = 
REMARK  6 active torsions:
REMARK  status: ('A' for Active; 'I' for Inactive)
REMARK    1  A    between atoms: O_2  and  C_3
REMARK    2  A    between atoms: C_6  and  C_9
REMARK    3  A    between atoms: N_14  and  C_15
REMARK    4  A    between atoms: C_19  and  N_23
REMARK    5  A    between atoms: C_24  and  C_26
REMARK    6  A    between atoms: C_29  and  C_32
REMARK                            x       y       z     vdW  Elec       q    Type
REMARK                         _______ _______ _______ _____ _____    ______ ____
ROOT
ATOM     15  C   UNL     1      -0.467   1.627  23.960  0.00  0.00    +0.154 C 
ATOM     16  C   UNL     1       0.010   2.192  24.327  0.00  0.00    +0.166 C 
ATOM     17  O   UNL     1       0.795   1.951  24.249  0.00  0.00    -0.350 OA
ATOM     18  C   UNL     1       0.804   1.239  23.835  0.00  0.00    +0.166 C 
ATOM     19  C   UNL     1       1.293   0.649  23.530  0.00  0.00    +0.155 C 
ATOM     20  C   UNL     1       0.817   0.084  23.163  0.00  0.00    +0.166 C 
ATOM     21  O   UNL     1       0.032   0.325  23.241  0.00  0.00    -0.350 OA
ATOM     22  C   UNL     1       0.023   1.039  23.656  0.00  0.00    +0.166 C 
ENDROOT
BRANCH  15  14
ATOM      9  C   UNL     1      -3.001   2.355  25.064  0.00  0.00    +0.086 A 
ATOM     10  C   UNL     1      -2.622   2.676  25.723  0.00  0.00    +0.040 A 
ATOM     11  C   UNL     1      -1.798   2.655  25.776  0.00  0.00    +0.103 A 
ATOM     12  N   UNL     1      -1.354   2.312  25.171  0.00  0.00    -0.211 NA
ATOM     13  C   UNL     1      -1.734   1.991  24.512  0.00  0.00    +0.237 A 
ATOM     14  N   UNL     1      -1.290   1.649  23.907  0.00  0.00    -0.200 NA
ATOM     36  N   UNL     1      -2.557   2.013  24.459  0.00  0.00    -0.212 NA
BRANCH   9   6
ATOM      3  C   UNL     1      -5.470   2.419  24.906  0.00  0.00    +0.139 A 
ATOM      4  C   UNL     1      -5.041   3.122  24.958  0.00  0.00    +0.037 A 
ATOM      5  C   UNL     1      -4.219   3.101  25.011  0.00  0.00    +0.005 A 
ATOM      6  C   UNL     1      -3.823   2.376  25.011  0.00  0.00    +0.018 A 
ATOM      7  C   UNL     1      -4.252   1.673  24.959  0.00  0.00    +0.005 A 
ATOM      8  C   UNL     1      -5.075   1.694  24.906  0.00  0.00    +0.037 A 
BRANCH   3   2
ATOM      1  C   UNL     1      -6.731   1.751  24.970  0.00  0.00    +0.252 C 
ATOM      2  O   UNL     1      -6.293   2.440  24.853  0.00  0.00    -0.471 OA
ENDBRANCH   3   2
ENDBRANCH   9   6
ENDBRANCH  15  14
BRANCH  19  23
ATOM     23  N   UNL     1       2.117   0.627  23.583  0.00  0.00    -0.198 NA
ATOM     24  C   UNL     1       2.556   0.223  23.014  0.00  0.00    +0.265 C 
ATOM     25  O   UNL     1       2.174  -0.161  22.392  0.00  0.00    -0.268 OA
BRANCH  24  26
ATOM     26  C   UNL     1       3.380   0.201  23.068  0.00  0.00    +0.055 A 
ATOM     27  C   UNL     1       3.756  -0.467  23.370  0.00  0.00    +0.005 A 
ATOM     28  C   UNL     1       4.579  -0.490  23.423  0.00  0.00    +0.004 A 
ATOM     29  C   UNL     1       5.026   0.159  23.174  0.00  0.00    +0.071 A 
ATOM     30  C   UNL     1       4.649   0.827  22.872  0.00  0.00    +0.004 A 
ATOM     31  C   UNL     1       3.826   0.849  22.818  0.00  0.00    +0.005 A 
BRANCH  29  32
ATOM     32  C   UNL     1       5.849   0.138  23.227  0.00  0.00    +0.419 C 
ATOM     33  F   UNL     1       6.671   0.116  23.279  0.00  0.00    -0.166 F 
ATOM     34  F   UNL     1       5.807   0.438  23.994  0.00  0.00    -0.166 F 
ATOM     35  F   UNL     1       5.891  -0.163  22.459  0.00  0.00    -0.166 F 
ENDBRANCH  29  32
ENDBRANCH  24  26
ENDBRANCH  19  23
TORSDOF 6
ENDMDL
MODEL 3
REMARK VINA RESULT:      -5.9     15.606     16.954
REMARK  Name = 
REMARK  6 active torsions:
REMARK  status: ('A' for Active; 'I' for Inactive)
REMARK    1  A    between atoms: O_2  and  C_3
REMARK    2  A    between atoms: C_6  and  C_9
REMARK    3  A    between atoms: N_14  and  C_15
REMARK    4  A    between atoms: C_19  and  N_23
REMARK    5  A    between atoms: C_24  and  C_26
REMARK    6  A    between atoms: C_29  and  C_32
REMARK                            x       y       z     vdW  Elec       q    Type
REMARK                         _______ _______ _______ _____ _____    ______ ____
ROOT
ATOM     15  C   UNL     1      -7.326 -10.462  13.741  0.00  0.00    +0.154 C 
ATOM     16  C   UNL     1      -6.550 -10.714  13.859  0.00  0.00    +0.166 C 
ATOM     17  O   UNL     1      -6.426 -10.781  14.672  0.00  0.00    -0.350 OA
ATOM     18  C   UNL     1      -7.125 -10.572  15.055  0.00  0.00    +0.166 C 
ATOM     19  C   UNL     1      -7.482 -10.483  15.794  0.00  0.00    +0.155 C 
ATOM     20  C   UNL     1      -8.258 -10.232  15.675  0.00  0.00    +0.166 C 
ATOM     21  O   UNL     1      -8.382 -10.164  14.863  0.00  0.00    -0.350 OA
ATOM     22  C   UNL     1      -7.681 -10.374  14.479  0.00  0.00    +0.166 C 
ENDROOT
BRANCH  15  14
ATOM      9  C   UNL     1      -7.263  -9.281  11.138  0.00  0.00    +0.086 A 
ATOM     10  C   UNL     1      -6.516  -8.970  11.297  0.00  0.00    +0.040 A 
ATOM     11  C   UNL     1      -6.158  -9.109  12.028  0.00  0.00    +0.103 A 
ATOM     12  N   UNL     1      -6.547  -9.560  12.599  0.00  0.00    -0.211 NA
ATOM     13  C   UNL     1      -7.295  -9.871  12.439  0.00  0.00    +0.237 A 
ATOM     14  N   UNL     1      -7.684 -10.322  13.010  0.00  0.00    -0.200 NA
ATOM     36  N   UNL     1      -7.652  -9.732  11.709  0.00  0.00    -0.212 NA
BRANCH   9   6
ATOM      3  C   UNL     1      -8.336  -8.862   8.947  0.00  0.00    +0.139 A 
ATOM      4  C   UNL     1      -8.645  -8.519   9.631  0.00  0.00    +0.037 A 
ATOM      5  C   UNL     1      -8.288  -8.659  10.361  0.00  0.00    +0.005 A 
ATOM      6  C   UNL     1      -7.620  -9.141  10.408  0.00  0.00    +0.018 A 
ATOM      7  C   UNL     1      -7.310  -9.484   9.725  0.00  0.00    +0.005 A 
ATOM      8  C   UNL     1      -7.668  -9.345   8.995  0.00  0.00    +0.037 A 
BRANCH   3   2
ATOM      1  C   UNL     1      -9.502  -8.850   8.124  0.00  0.00    +0.252 C 
ATOM      2  O   UNL     1      -8.693  -8.722   8.217  0.00  0.00    -0.471 OA
ENDBRANCH   3   2
ENDBRANCH   9   6
ENDBRANCH  15  14
BRANCH  19  23
ATOM     23  N   UNL     1      -7.124 -10.623  16.524  0.00  0.00    -0.198 NA
ATOM     24  C   UNL     1      -7.219 -10.083  17.141  0.00  0.00    +0.265 C 
ATOM     25  O   UNL     1      -7.672  -9.403  17.027  0.00  0.00    -0.268 OA
BRANCH  24  26
ATOM     26  C   UNL     1      -6.861 -10.223  17.871  0.00  0.00    +0.055 A 
ATOM     27  C   UNL     1      -6.051 -10.371  17.912  0.00  0.00    +0.005 A 
ATOM     28  C   UNL     1      -5.692 -10.511  18.641  0.00  0.00    +0.004 A 
ATOM     29  C   UNL     1      -6.146 -10.502  19.331  0.00  0.00    +0.071 A 
ATOM     30  C   UNL     1      -6.956 -10.354  19.290  0.00  0.00    +0.004 A 
ATOM     31  C   UNL     1      -7.314 -10.214  18.560  0.00  0.00    +0.005 A 
BRANCH  29  32
ATOM     32  C   UNL     1      -5.788 -10.641  20.062  0.00  0.00    +0.419 C 
ATOM     33  F   UNL     1      -5.431 -10.781  20.791  0.00  0.00    -0.166 F 
ATOM     34  F   UNL     1      -5.051 -10.676  19.694  0.00  0.00    -0.166 F 
ATOM     35  F   UNL     1      -6.526 -10.606  20.430  0.00  0.00    -0.166 F 
ENDBRANCH  29  32
ENDBRANCH  24  26
ENDBRANCH  19  23
TORSDOF 6
ENDMDL
