MODEL 1
REMARK VINA RESULT:     -11.5      0.000      0.000
REMARK  Name = 
REMARK  2 active torsions:
REMARK  status: ('A' for Active; 'I' for Inactive)
REMARK    1  A    between atoms: N_6  and  C_7
REMARK    2  A    between atoms: C_7  and  C_8
REMARK                            x       y       z     vdW  Elec       q    Type
REMARK                         _______ _______ _______ _____ _____    ______ ____
ROOT
ATOM      1  C   UNL     1      -5.465   3.712  25.743  0.00  0.00    +0.117 C 
ATOM      2  N   UNL     1      -5.049   3.126  25.339  0.00  0.00    -0.261 N 
ATOM      3  C   UNL     1      -5.266   2.333  25.276  0.00  0.00    +0.116 C 
ATOM      4  C   UNL     1      -4.694   1.947  24.824  0.00  0.00    +0.113 C 
ATOM      5  C   UNL     1      -4.618   1.162  24.581  0.00  0.00    +0.094 C 
ATOM      6  N   UNL     1      -3.972   0.933  24.123  0.00  0.00    -0.266 NA
ATOM     18  C   UNL     1      -3.401   1.488  23.907  0.00  0.00    +0.094 C 
ATOM     19  C   UNL     1      -3.476   2.273  24.149  0.00  0.00    +0.112 C 
ATOM     20  N   UNL     1      -4.123   2.502  24.608  0.00  0.00    -0.261 N 
ATOM     21  C   UNL     1      -4.343   3.231  24.926  0.00  0.00    +0.307 C 
ATOM     22  O   UNL     1      -3.928   3.940  24.845  0.00  0.00    -0.252 OA
ENDROOT
BRANCH   6   7
ATOM      7  C   UNL     1      -3.896   0.148  23.880  0.00  0.00    +0.101 C 
BRANCH   7   8
ATOM      8  C   UNL     1      -3.485  -0.392  24.349  0.00  0.00    +0.012 A 
ATOM      9  C   UNL     1      -2.897  -0.207  24.898  0.00  0.00    +0.073 A 
ATOM     10  N   UNL     1      -2.638  -0.912  25.240  0.00  0.00    -0.324 N 
ATOM     11  C   UNL     1      -2.054  -0.985  25.818  0.00  0.00    +0.130 C 
ATOM     12  C   UNL     1      -3.065  -1.532  24.902  0.00  0.00    +0.060 A 
ATOM     13  C   UNL     1      -3.588  -1.210  24.351  0.00  0.00    +0.015 A 
ATOM     14  C   UNL     1      -4.092  -1.704  23.923  0.00  0.00    +0.001 A 
ATOM     15  C   UNL     1      -4.071  -2.520  24.046  0.00  0.00    +0.000 A 
ATOM     16  C   UNL     1      -3.548  -2.842  24.596  0.00  0.00    +0.001 A 
ATOM     17  C   UNL     1      -3.045  -2.348  25.024  0.00  0.00    +0.017 A 
ENDBRANCH   7   8
ENDBRANCH   6   7
TORSDOF 2
ENDMDL
MODEL 2
REMARK VINA RESULT:     -10.4      2.279      3.231
REMARK  Name = 
REMARK  2 active torsions:
REMARK  status: ('A' for Active; 'I' for Inactive)
REMARK    1  A    between atoms: N_6  and  C_7
REMARK    2  A    between atoms: C_7  and  C_8
REMARK                            x       y       z     vdW  Elec       q    Type
REMARK                         _______ _______ _______ _____ _____    ______ ____
ROOT
ATOM      1  C   UNL     1       0.190   2.911  25.731  0.00  0.00    +0.117 C 
ATOM      2  N   UNL     1      -0.119   2.184  25.495  0.00  0.00    -0.261 N 
ATOM      3  C   UNL     1      -0.684   1.742  25.903  0.00  0.00    +0.116 C 
ATOM      4  C   UNL     1      -0.832   1.056  25.469  0.00  0.00    +0.113 C 
ATOM      5  C   UNL     1      -1.337   0.416  25.601  0.00  0.00    +0.094 C 
ATOM      6  N   UNL     1      -1.368  -0.204  25.059  0.00  0.00    -0.266 NA
ATOM     18  C   UNL     1      -0.895  -0.186  24.383  0.00  0.00    +0.094 C 
ATOM     19  C   UNL     1      -0.390   0.453  24.250  0.00  0.00    +0.112 C 
ATOM     20  N   UNL     1      -0.359   1.074  24.793  0.00  0.00    -0.261 N 
ATOM     21  C   UNL     1       0.082   1.772  24.810  0.00  0.00    +0.307 C 
ATOM     22  O   UNL     1       0.628   2.013  24.240  0.00  0.00    -0.252 OA
ENDROOT
BRANCH   6   7
ATOM      7  C   UNL     1      -1.873  -0.843  25.191  0.00  0.00    +0.101 C 
BRANCH   7   8
ATOM      8  C   UNL     1      -2.637  -0.837  24.881  0.00  0.00    +0.012 A 
ATOM      9  C   UNL     1      -3.114  -0.171  24.780  0.00  0.00    +0.073 A 
ATOM     10  N   UNL     1      -3.830  -0.418  24.455  0.00  0.00    -0.324 N 
ATOM     11  C   UNL     1      -4.469   0.068  24.263  0.00  0.00    +0.130 C 
ATOM     12  C   UNL     1      -3.797  -1.236  24.355  0.00  0.00    +0.060 A 
ATOM     13  C   UNL     1      -3.060  -1.495  24.619  0.00  0.00    +0.015 A 
ATOM     14  C   UNL     1      -2.868  -2.297  24.586  0.00  0.00    +0.001 A 
ATOM     15  C   UNL     1      -3.414  -2.840  24.289  0.00  0.00    +0.000 A 
ATOM     16  C   UNL     1      -4.151  -2.581  24.025  0.00  0.00    +0.001 A 
ATOM     17  C   UNL     1      -4.343  -1.779  24.058  0.00  0.00    +0.017 A 
ENDBRANCH   7   8
ENDBRANCH   6   7
TORSDOF 2
ENDMDL
MODEL 3
REMARK VINA RESULT:     -10.3      1.912      4.277
REMARK  Name = 
REMARK  2 active torsions:
REMARK  status: ('A' for Active; 'I' for Inactive)
REMARK    1  A    between atoms: N_6  and  C_7
REMARK    2  A    between atoms: C_7  and  C_8
REMARK                            x       y       z     vdW  Elec       q    Type
REMARK                         _______ _______ _______ _____ _____    ______ ____
ROOT
ATOM      1  C   UNL     1      -0.587  -1.419  25.338  0.00  0.00    +0.117 C 
ATOM      2  N   UNL     1      -1.030  -0.809  25.003  0.00  0.00    -0.261 N 
ATOM      3  C   UNL     1      -1.833  -0.670  25.126  0.00  0.00    +0.116 C 
ATOM      4  C   UNL     1      -2.047  -0.006  24.684  0.00  0.00    +0.113 C 
ATOM      5  C   UNL     1      -2.766   0.388  24.590  0.00  0.00    +0.094 C 
ATOM      6  N   UNL     1      -2.813   1.051  24.102  0.00  0.00    -0.266 NA
ATOM     18  C   UNL     1      -2.141   1.320  23.707  0.00  0.00    +0.094 C 
ATOM     19  C   UNL     1      -1.422   0.928  23.800  0.00  0.00    +0.112 C 
ATOM     20  N   UNL     1      -1.375   0.264  24.289  0.00  0.00    -0.261 N 
ATOM     21  C   UNL     1      -0.746  -0.233  24.486  0.00  0.00    +0.307 C 
ATOM     22  O   UNL     1       0.030  -0.164  24.213  0.00  0.00    -0.252 OA
ENDROOT
BRANCH   6   7
ATOM      7  C   UNL     1      -3.532   1.444  24.009  0.00  0.00    +0.101 C 
BRANCH   7   8
ATOM      8  C   UNL     1      -3.734   2.063  24.516  0.00  0.00    +0.012 A 
ATOM      9  C   UNL     1      -3.224   2.652  24.788  0.00  0.00    +0.073 A 
ATOM     10  N   UNL     1      -3.655   3.154  25.280  0.00  0.00    -0.324 N 
ATOM     11  C   UNL     1      -3.362   3.818  25.672  0.00  0.00    +0.130 C 
ATOM     12  C   UNL     1      -4.431   2.876  25.312  0.00  0.00    +0.060 A 
ATOM     13  C   UNL     1      -4.480   2.201  24.840  0.00  0.00    +0.015 A 
ATOM     14  C   UNL     1      -5.197   1.800  24.765  0.00  0.00    +0.001 A 
ATOM     15  C   UNL     1      -5.866   2.074  25.163  0.00  0.00    +0.000 A 
ATOM     16  C   UNL     1      -5.817   2.748  25.636  0.00  0.00    +0.001 A 
ATOM     17  C   UNL     1      -5.101   3.149  25.710  0.00  0.00    +0.017 A 
ENDBRANCH   7   8
ENDBRANCH   6   7
TORSDOF 2
ENDMDL
MODEL 4
REMARK VINA RESULT:     -10.2      1.961      4.649
REMARK  Name = 
REMARK  2 active torsions:
REMARK  status: ('A' for Active; 'I' for Inactive)
REMARK    1  A    between atoms: N_6  and  C_7
REMARK    2  A    between atoms: C_7  and  C_8
REMARK                            x       y       z     vdW  Elec       q    Type
REMARK                         _______ _______ _______ _____ _____    ______ ____
ROOT
ATOM      1  C   UNL     1      -3.514  -1.989  25.386  0.00  0.00    +0.117 C 
ATOM      2  N   UNL     1      -3.359  -1.241  25.074  0.00  0.00    -0.261 N 
ATOM      3  C   UNL     1      -2.794  -0.708  25.352  0.00  0.00    +0.116 C 
ATOM      4  C   UNL     1      -2.827  -0.033  24.879  0.00  0.00    +0.113 C 
ATOM      5  C   UNL     1      -2.400   0.673  24.892  0.00  0.00    +0.094 C 
ATOM      6  N   UNL     1      -2.559   1.262  24.338  0.00  0.00    -0.266 NA
ATOM     18  C   UNL     1      -3.145   1.146  23.769  0.00  0.00    +0.094 C 
ATOM     19  C   UNL     1      -3.573   0.441  23.754  0.00  0.00    +0.112 C 
ATOM     20  N   UNL     1      -3.414  -0.149  24.310  0.00  0.00    -0.261 N 
ATOM     21  C   UNL     1      -3.742  -0.896  24.431  0.00  0.00    +0.307 C 
ATOM     22  O   UNL     1      -4.348  -1.237  23.986  0.00  0.00    -0.252 OA
ENDROOT
BRANCH   6   7
ATOM      7  C   UNL     1      -2.132   1.968  24.351  0.00  0.00    +0.101 C 
BRANCH   7   8
ATOM      8  C   UNL     1      -2.444   2.633  24.726  0.00  0.00    +0.012 A 
ATOM      9  C   UNL     1      -3.219   2.717  24.997  0.00  0.00    +0.073 A 
ATOM     10  N   UNL     1      -3.290   3.466  25.335  0.00  0.00    -0.324 N 
ATOM     11  C   UNL     1      -3.973   3.782  25.676  0.00  0.00    +0.130 C 
ATOM     12  C   UNL     1      -2.560   3.845  25.274  0.00  0.00    +0.060 A 
ATOM     13  C   UNL     1      -2.037   3.330  24.898  0.00  0.00    +0.015 A 
ATOM     14  C   UNL     1      -1.257   3.561  24.759  0.00  0.00    +0.001 A 
ATOM     15  C   UNL     1      -1.001   4.309  24.998  0.00  0.00    +0.000 A 
ATOM     16  C   UNL     1      -1.524   4.824  25.374  0.00  0.00    +0.001 A 
ATOM     17  C   UNL     1      -2.303   4.592  25.512  0.00  0.00    +0.017 A 
ENDBRANCH   7   8
ENDBRANCH   6   7
TORSDOF 2
ENDMDL
MODEL 5
REMARK VINA RESULT:     -10.0      1.542      4.492
REMARK  Name = 
REMARK  2 active torsions:
REMARK  status: ('A' for Active; 'I' for Inactive)
REMARK    1  A    between atoms: N_6  and  C_7
REMARK    2  A    between atoms: C_7  and  C_8
REMARK                            x       y       z     vdW  Elec       q    Type
REMARK                         _______ _______ _______ _____ _____    ______ ____
ROOT
ATOM      1  C   UNL     1      -3.667  -3.071  24.288  0.00  0.00    +0.117 C 
ATOM      2  N   UNL     1      -3.567  -2.254  24.334  0.00  0.00    -0.261 N 
ATOM      3  C   UNL     1      -4.043  -1.687  23.971  0.00  0.00    +0.116 C 
ATOM      4  C   UNL     1      -3.743  -0.942  24.163  0.00  0.00    +0.113 C 
ATOM      5  C   UNL     1      -3.985  -0.179  23.962  0.00  0.00    +0.094 C 
ATOM      6  N   UNL     1      -3.568   0.474  24.242  0.00  0.00    -0.266 NA
ATOM     18  C   UNL     1      -2.907   0.366  24.724  0.00  0.00    +0.094 C 
ATOM     19  C   UNL     1      -2.663  -0.396  24.925  0.00  0.00    +0.112 C 
ATOM     20  N   UNL     1      -3.081  -1.050  24.645  0.00  0.00    -0.261 N 
ATOM     21  C   UNL     1      -2.973  -1.862  24.750  0.00  0.00    +0.307 C 
ATOM     22  O   UNL     1      -2.375  -2.217  25.194  0.00  0.00    -0.252 OA
ENDROOT
BRANCH   6   7
ATOM      7  C   UNL     1      -3.811   1.237  24.041  0.00  0.00    +0.101 C 
BRANCH   7   8
ATOM      8  C   UNL     1      -4.313   1.656  24.543  0.00  0.00    +0.012 A 
ATOM      9  C   UNL     1      -4.936   1.339  24.981  0.00  0.00    +0.073 A 
ATOM     10  N   UNL     1      -5.288   1.953  25.405  0.00  0.00    -0.324 N 
ATOM     11  C   UNL     1      -5.933   1.883  25.915  0.00  0.00    +0.130 C 
ATOM     12  C   UNL     1      -4.883   2.650  25.229  0.00  0.00    +0.060 A 
ATOM     13  C   UNL     1      -4.280   2.466  24.697  0.00  0.00    +0.015 A 
ATOM     14  C   UNL     1      -3.778   3.060  24.420  0.00  0.00    +0.001 A 
ATOM     15  C   UNL     1      -3.880   3.838  24.676  0.00  0.00    +0.000 A 
ATOM     16  C   UNL     1      -4.483   4.021  25.209  0.00  0.00    +0.001 A 
ATOM     17  C   UNL     1      -4.984   3.428  25.485  0.00  0.00    +0.017 A 
ENDBRANCH   7   8
ENDBRANCH   6   7
TORSDOF 2
ENDMDL
