REMARK  Name = 
REMARK  6 active torsions:
REMARK  status: ('A' for Active; 'I' for Inactive)
REMARK    1  A    between atoms: O_2  and  C_3
REMARK    2  A    between atoms: C_6  and  C_9
REMARK    3  A    between atoms: N_11  and  C_12
REMARK    4  A    between atoms: N_20  and  S_22
REMARK    5  A    between atoms: S_22  and  C_25
REMARK    6  A    between atoms: C_27  and  C_31
REMARK                            x       y       z     vdW  Elec       q    Type
REMARK                         _______ _______ _______ _____ _____    ______ ____
ROOT
ATOM     12  C   UNL     1      -1.296  -1.150   0.000  0.00  0.00    +0.130 A 
ATOM     13  C   UNL     1      -1.167  -0.335   0.000  0.00  0.00    +0.023 A 
ATOM     14  C   UNL     1      -0.397  -0.039   0.000  0.00  0.00    +0.014 A 
ATOM     15  C   UNL     1       0.244  -0.558   0.000  0.00  0.00    +0.041 A 
ATOM     16  C   UNL     1       1.163  -0.557   0.000  0.00  0.00    +0.056 C 
ATOM     17  C   UNL     1       1.713  -0.121   0.000  0.00  0.00    +0.011 C 
ATOM     18  C   UNL     1       1.582  -0.925   0.000  0.00  0.00    +0.041 C 
ATOM     19  C   UNL     1       1.629  -1.912   0.000  0.00  0.00    +0.098 C 
ATOM     20  N   UNL     1       0.813  -2.091   0.000  0.00  0.00    -0.155 NA
ATOM     21  C   UNL     1       1.225  -1.510   0.000  0.00  0.00    +0.102 C 
ATOM     35  C   UNL     1       0.622  -0.936   0.000  0.00  0.00    +0.110 C 
ATOM     36  N   UNL     1       0.115  -1.373   0.000  0.00  0.00    -0.298 N 
ATOM     37  C   UNL     1      -0.655  -1.669   0.000  0.00  0.00    +0.276 A 
ATOM     38  O   UNL     1      -0.784  -2.484   0.000  0.00  0.00    -0.266 OA
ENDROOT
BRANCH  12  11
ATOM      9  C   UNL     1      -2.707  -0.926   0.000  0.00  0.00    +0.269 C 
ATOM     10  O   UNL     1      -3.478  -1.222   0.000  0.00  0.00    -0.268 OA
ATOM     11  N   UNL     1      -2.066  -1.445   0.000  0.00  0.00    -0.171 NA
BRANCH   9   6
ATOM      3  C   UNL     1      -2.321   1.518   0.000  0.00  0.00    +0.139 A 
ATOM      4  C   UNL     1      -1.679   0.999   0.000  0.00  0.00    +0.037 A 
ATOM      5  C   UNL     1      -1.808   0.184   0.000  0.00  0.00    +0.008 A 
ATOM      6  C   UNL     1      -2.578  -0.111   0.000  0.00  0.00    +0.056 A 
ATOM      7  C   UNL     1      -3.220   0.408   0.000  0.00  0.00    +0.008 A 
ATOM      8  C   UNL     1      -3.091   1.223   0.000  0.00  0.00    +0.037 A 
BRANCH   3   2
ATOM      1  C   UNL     1      -2.833   2.852   0.000  0.00  0.00    +0.252 C 
ATOM      2  O   UNL     1      -2.192   2.333   0.000  0.00  0.00    -0.471 OA
ENDBRANCH   3   2
ENDBRANCH   9   6
ENDBRANCH  12  11
BRANCH  20  22
ATOM     22  S   UNL     1       0.125  -2.547   0.000  0.00  0.00    +0.063 S 
ATOM     23  O   UNL     1      -0.331  -1.859   0.000  0.00  0.00    -0.153 OA
ATOM     24  O   UNL     1       0.581  -3.235   0.000  0.00  0.00    -0.153 OA
BRANCH  22  25
ATOM     25  C   UNL     1      -0.563  -3.003   0.000  0.00  0.00    +0.122 A 
ATOM     26  C   UNL     1      -0.512  -3.826   0.000  0.00  0.00    +0.024 A 
ATOM     27  C   UNL     1      -1.200  -4.282   0.000  0.00  0.00    +0.073 A 
ATOM     28  C   UNL     1      -1.938  -3.914   0.000  0.00  0.00    +0.004 A 
ATOM     29  C   UNL     1      -1.989  -3.091   0.000  0.00  0.00    +0.001 A 
ATOM     30  C   UNL     1      -1.301  -2.635   0.000  0.00  0.00    +0.020 A 
BRANCH  27  31
ATOM     31  C   UNL     1      -1.149  -5.105   0.000  0.00  0.00    +0.419 C 
ATOM     32  F   UNL     1      -1.098  -5.929   0.000  0.00  0.00    -0.166 F 
ATOM     33  F   UNL     1      -1.973  -5.156   0.000  0.00  0.00    -0.166 F 
ATOM     34  F   UNL     1      -0.326  -5.054   0.000  0.00  0.00    -0.166 F 
ENDBRANCH  27  31
ENDBRANCH  22  25
ENDBRANCH  20  22
TORSDOF 6
