MODEL 1
REMARK VINA RESULT:     -10.7      0.000      0.000
REMARK  Name = 
REMARK  6 active torsions:
REMARK  status: ('A' for Active; 'I' for Inactive)
REMARK    1  A    between atoms: C_2  and  C_3
REMARK    2  A    between atoms: C_2  and  C_27
REMARK    3  A    between atoms: C_10  and  N_11
REMARK    4  A    between atoms: C_12  and  C_14
REMARK    5  A    between atoms: C_14  and  O_15
REMARK    6  A    between atoms: O_15  and  C_16
REMARK                            x       y       z     vdW  Elec       q    Type
REMARK                         _______ _______ _______ _____ _____    ______ ____
ROOT
ATOM      3  C   UNL     1      -2.940   1.439  24.354  0.00  0.00    +0.039 C 
ATOM      4  C   UNL     1      -3.111   0.677  24.625  0.00  0.00    +0.003 C 
ATOM      5  C   UNL     1      -2.512   0.114  24.677  0.00  0.00    +0.000 C 
ATOM      6  C   UNL     1      -1.741   0.310  24.459  0.00  0.00    +0.002 C 
ATOM      7  C   UNL     1      -1.913  -0.450  24.729  0.00  0.00    +0.000 C 
ATOM      8  C   UNL     1      -1.141  -0.254  24.511  0.00  0.00    +0.002 C 
ATOM      9  C   UNL     1      -0.371  -0.058  24.293  0.00  0.00    +0.022 C 
ATOM     10  C   UNL     1      -0.199   0.703  24.023  0.00  0.00    +0.095 C 
ATOM     22  C   UNL     1      -0.798   1.267  23.970  0.00  0.00    +0.022 C 
ATOM     23  C   UNL     1      -0.627   2.027  23.700  0.00  0.00    +0.002 C 
ATOM     24  C   UNL     1      -1.570   1.071  24.188  0.00  0.00    +0.032 C 
ATOM     25  C   UNL     1      -2.169   1.634  24.136  0.00  0.00    +0.152 C 
ATOM     26  O   UNL     1      -1.998   2.395  23.865  0.00  0.00    -0.223 OA
ENDROOT
BRANCH  10  11
ATOM     11  N   UNL     1       0.572   0.899  23.805  0.00  0.00    -0.204 NA
ATOM     12  C   UNL     1       1.003   0.396  23.313  0.00  0.00    +0.286 C 
ATOM     13  O   UNL     1       0.662  -0.305  23.039  0.00  0.00    -0.269 OA
BRANCH  12  14
ATOM     14  C   UNL     1       1.774   0.592  23.095  0.00  0.00    +0.291 C 
BRANCH  14  15
ATOM     15  O   UNL     1       2.306  -0.001  22.882  0.00  0.00    -0.466 OA
BRANCH  15  16
ATOM     16  C   UNL     1       3.118   0.141  22.915  0.00  0.00    +0.139 A 
ATOM     17  C   UNL     1       3.620  -0.412  23.265  0.00  0.00    +0.037 A 
ATOM     18  C   UNL     1       4.432  -0.271  23.298  0.00  0.00    +0.003 A 
ATOM     19  C   UNL     1       4.742   0.425  22.981  0.00  0.00    +0.000 A 
ATOM     20  C   UNL     1       4.240   0.979  22.631  0.00  0.00    +0.003 A 
ATOM     21  C   UNL     1       3.428   0.836  22.598  0.00  0.00    +0.037 A 
ENDBRANCH  15  16
ENDBRANCH  14  15
ENDBRANCH  12  14
ENDBRANCH  10  11
BRANCH   3   2
ATOM      1  C   UNL     1      -3.824   2.238  23.563  0.00  0.00    +0.010 C 
ATOM      2  C   UNL     1      -3.540   2.002  24.302  0.00  0.00    +0.079 C 
BRANCH   2  27
ATOM     27  C   UNL     1      -3.857   2.331  24.989  0.00  0.00    +0.225 C 
ATOM     28  O   UNL     1      -3.359   2.679  25.548  0.00  0.00    -0.275 OA
ATOM     29  N   UNL     1      -4.673   2.312  25.117  0.00  0.00    -0.280 N 
ATOM     30  C   UNL     1      -5.067   2.617  25.774  0.00  0.00    +0.093 C 
ATOM     31  C   UNL     1      -5.874   2.479  25.674  0.00  0.00    +0.023 C 
ATOM     32  C   UNL     1      -5.978   2.088  24.955  0.00  0.00    +0.023 C 
ATOM     33  C   UNL     1      -5.235   1.985  24.610  0.00  0.00    +0.093 C 
ENDBRANCH   2  27
ENDBRANCH   3   2
TORSDOF 6
ENDMDL
MODEL 2
REMARK VINA RESULT:     -10.6      3.613      5.099
REMARK  Name = 
REMARK  6 active torsions:
REMARK  status: ('A' for Active; 'I' for Inactive)
REMARK    1  A    between atoms: C_2  and  C_3
REMARK    2  A    between atoms: C_2  and  C_27
REMARK    3  A    between atoms: C_10  and  N_11
REMARK    4  A    between atoms: C_12  and  C_14
REMARK    5  A    between atoms: C_14  and  O_15
REMARK    6  A    between atoms: O_15  and  C_16
REMARK                            x       y       z     vdW  Elec       q    Type
REMARK                         _______ _______ _______ _____ _____    ______ ____
ROOT
ATOM      3  C   UNL     1      -4.410  -0.068  24.596  0.00  0.00    +0.039 C 
ATOM      4  C   UNL     1      -5.164  -0.014  24.930  0.00  0.00    +0.003 C 
ATOM      5  C   UNL     1      -5.460   0.719  25.163  0.00  0.00    +0.000 C 
ATOM      6  C   UNL     1      -5.004   1.398  25.064  0.00  0.00    +0.002 C 
ATOM      7  C   UNL     1      -5.756   1.452  25.397  0.00  0.00    +0.000 C 
ATOM      8  C   UNL     1      -5.299   2.132  25.298  0.00  0.00    +0.002 C 
ATOM      9  C   UNL     1      -4.843   2.812  25.199  0.00  0.00    +0.022 C 
ATOM     10  C   UNL     1      -4.090   2.758  24.865  0.00  0.00    +0.095 C 
ATOM     22  C   UNL     1      -3.794   2.025  24.632  0.00  0.00    +0.022 C 
ATOM     23  C   UNL     1      -3.041   1.971  24.298  0.00  0.00    +0.002 C 
ATOM     24  C   UNL     1      -4.250   1.345  24.731  0.00  0.00    +0.032 C 
ATOM     25  C   UNL     1      -3.954   0.611  24.497  0.00  0.00    +0.152 C 
ATOM     26  O   UNL     1      -3.201   0.558  24.164  0.00  0.00    -0.223 OA
ENDROOT
BRANCH  10  11
ATOM     11  N   UNL     1      -3.633   3.439  24.766  0.00  0.00    -0.204 NA
ATOM     12  C   UNL     1      -3.435   3.902  25.419  0.00  0.00    +0.286 C 
ATOM     13  O   UNL     1      -3.694   3.684  26.173  0.00  0.00    -0.269 OA
BRANCH  12  14
ATOM     14  C   UNL     1      -2.979   4.582  25.320  0.00  0.00    +0.291 C 
BRANCH  14  15
ATOM     15  O   UNL     1      -2.264   4.662  25.723  0.00  0.00    -0.466 OA
BRANCH  15  16
ATOM     16  C   UNL     1      -1.585   4.895  25.317  0.00  0.00    +0.139 A 
ATOM     17  C   UNL     1      -0.957   4.368  25.227  0.00  0.00    +0.037 A 
ATOM     18  C   UNL     1      -0.277   4.601  24.821  0.00  0.00    +0.003 A 
ATOM     19  C   UNL     1      -0.226   5.361  24.504  0.00  0.00    +0.000 A 
ATOM     20  C   UNL     1      -0.855   5.888  24.593  0.00  0.00    +0.003 A 
ATOM     21  C   UNL     1      -1.534   5.655  24.999  0.00  0.00    +0.037 A 
ENDBRANCH  15  16
ENDBRANCH  14  15
ENDBRANCH  12  14
ENDBRANCH  10  11
BRANCH   3   2
ATOM      1  C   UNL     1      -4.108  -1.010  23.564  0.00  0.00    +0.010 C 
ATOM      2  C   UNL     1      -4.114  -0.802  24.362  0.00  0.00    +0.079 C 
BRANCH   2  27
ATOM     27  C   UNL     1      -3.825  -1.329  24.928  0.00  0.00    +0.225 C 
ATOM     28  O   UNL     1      -3.657  -1.063  25.691  0.00  0.00    -0.275 OA
ATOM     29  N   UNL     1      -3.704  -2.121  24.730  0.00  0.00    -0.280 N 
ATOM     30  C   UNL     1      -3.420  -2.708  25.235  0.00  0.00    +0.093 C 
ATOM     31  C   UNL     1      -3.386  -3.415  24.810  0.00  0.00    +0.023 C 
ATOM     32  C   UNL     1      -3.650  -3.264  24.043  0.00  0.00    +0.023 C 
ATOM     33  C   UNL     1      -3.847  -2.464  23.994  0.00  0.00    +0.093 C 
ENDBRANCH   2  27
ENDBRANCH   3   2
TORSDOF 6
ENDMDL
MODEL 3
REMARK VINA RESULT:     -10.1      1.386      2.052
REMARK  Name = 
REMARK  6 active torsions:
REMARK  status: ('A' for Active; 'I' for Inactive)
REMARK    1  A    between atoms: C_2  and  C_3
REMARK    2  A    between atoms: C_2  and  C_27
REMARK    3  A    between atoms: C_10  and  N_11
REMARK    4  A    between atoms: C_12  and  C_14
REMARK    5  A    between atoms: C_14  and  O_15
REMARK    6  A    between atoms: O_15  and  C_16
REMARK                            x       y       z     vdW  Elec       q    Type
REMARK                         _______ _______ _______ _____ _____    ______ ____
ROOT
ATOM      3  C   UNL     1      -3.284   3.379  24.817  0.00  0.00    +0.039 C 
ATOM      4  C   UNL     1      -2.994   3.889  25.398  0.00  0.00    +0.003 C 
ATOM      5  C   UNL     1      -2.186   3.909  25.562  0.00  0.00    +0.000 C 
ATOM      6  C   UNL     1      -1.669   3.420  25.147  0.00  0.00    +0.002 C 
ATOM      7  C   UNL     1      -1.379   3.929  25.727  0.00  0.00    +0.000 C 
ATOM      8  C   UNL     1      -0.860   3.440  25.311  0.00  0.00    +0.002 C 
ATOM      9  C   UNL     1      -0.342   2.951  24.896  0.00  0.00    +0.022 C 
ATOM     10  C   UNL     1      -0.633   2.441  24.315  0.00  0.00    +0.095 C 
ATOM     22  C   UNL     1      -1.440   2.421  24.151  0.00  0.00    +0.022 C 
ATOM     23  C   UNL     1      -1.731   1.911  23.571  0.00  0.00    +0.002 C 
ATOM     24  C   UNL     1      -1.959   2.910  24.566  0.00  0.00    +0.032 C 
ATOM     25  C   UNL     1      -2.767   2.890  24.402  0.00  0.00    +0.152 C 
ATOM     26  O   UNL     1      -3.057   2.380  23.822  0.00  0.00    -0.223 OA
ENDROOT
BRANCH  10  11
ATOM     11  N   UNL     1      -0.114   1.951  23.900  0.00  0.00    -0.204 NA
ATOM     12  C   UNL     1       0.573   1.676  24.262  0.00  0.00    +0.286 C 
ATOM     13  O   UNL     1       0.743   1.891  25.041  0.00  0.00    -0.269 OA
BRANCH  12  14
ATOM     14  C   UNL     1       1.092   1.187  23.847  0.00  0.00    +0.291 C 
BRANCH  14  15
ATOM     15  O   UNL     1       1.820   1.478  23.593  0.00  0.00    -0.466 OA
BRANCH  15  16
ATOM     16  C   UNL     1       2.321   1.002  23.141  0.00  0.00    +0.139 A 
ATOM     17  C   UNL     1       2.018   0.349  22.740  0.00  0.00    +0.037 A 
ATOM     18  C   UNL     1       2.519  -0.126  22.288  0.00  0.00    +0.003 A 
ATOM     19  C   UNL     1       3.322   0.052  22.237  0.00  0.00    +0.000 A 
ATOM     20  C   UNL     1       3.626   0.707  22.639  0.00  0.00    +0.003 A 
ATOM     21  C   UNL     1       3.125   1.181  23.091  0.00  0.00    +0.037 A 
ENDBRANCH  15  16
ENDBRANCH  14  15
ENDBRANCH  12  14
ENDBRANCH  10  11
BRANCH   3   2
ATOM      1  C   UNL     1      -4.356   3.358  23.871  0.00  0.00    +0.010 C 
ATOM      2  C   UNL     1      -4.093   3.359  24.653  0.00  0.00    +0.079 C 
BRANCH   2  27
ATOM     27  C   UNL     1      -4.639   3.341  25.271  0.00  0.00    +0.225 C 
ATOM     28  O   UNL     1      -4.619   3.923  25.857  0.00  0.00    -0.275 OA
ATOM     29  N   UNL     1      -5.204   2.740  25.305  0.00  0.00    -0.280 N 
ATOM     30  C   UNL     1      -5.782   2.651  25.887  0.00  0.00    +0.093 C 
ATOM     31  C   UNL     1      -6.226   1.979  25.704  0.00  0.00    +0.023 C 
ATOM     32  C   UNL     1      -5.921   1.655  25.009  0.00  0.00    +0.023 C 
ATOM     33  C   UNL     1      -5.290   2.125  24.763  0.00  0.00    +0.093 C 
ENDBRANCH   2  27
ENDBRANCH   3   2
TORSDOF 6
ENDMDL
MODEL 4
REMARK VINA RESULT:     -10.0      3.576      5.252
REMARK  Name = 
REMARK  6 active torsions:
REMARK  status: ('A' for Active; 'I' for Inactive)
REMARK    1  A    between atoms: C_2  and  C_3
REMARK    2  A    between atoms: C_2  and  C_27
REMARK    3  A    between atoms: C_10  and  N_11
REMARK    4  A    between atoms: C_12  and  C_14
REMARK    5  A    between atoms: C_14  and  O_15
REMARK    6  A    between atoms: O_15  and  C_16
REMARK                            x       y       z     vdW  Elec       q    Type
REMARK                         _______ _______ _______ _____ _____    ______ ____
ROOT
ATOM      3  C   UNL     1      -2.944   3.576  25.642  0.00  0.00    +0.039 C 
ATOM      4  C   UNL     1      -3.682   3.928  25.759  0.00  0.00    +0.003 C 
ATOM      5  C   UNL     1      -4.369   3.521  25.557  0.00  0.00    +0.000 C 
ATOM      6  C   UNL     1      -4.320   2.762  25.238  0.00  0.00    +0.002 C 
ATOM      7  C   UNL     1      -5.057   3.113  25.355  0.00  0.00    +0.000 C 
ATOM      8  C   UNL     1      -5.008   2.353  25.036  0.00  0.00    +0.002 C 
ATOM      9  C   UNL     1      -4.960   1.595  24.718  0.00  0.00    +0.022 C 
ATOM     10  C   UNL     1      -4.222   1.243  24.601  0.00  0.00    +0.095 C 
ATOM     22  C   UNL     1      -3.534   1.650  24.803  0.00  0.00    +0.022 C 
ATOM     23  C   UNL     1      -2.797   1.298  24.686  0.00  0.00    +0.002 C 
ATOM     24  C   UNL     1      -3.582   2.410  25.122  0.00  0.00    +0.032 C 
ATOM     25  C   UNL     1      -2.895   2.817  25.324  0.00  0.00    +0.152 C 
ATOM     26  O   UNL     1      -2.158   2.466  25.207  0.00  0.00    -0.223 OA
ENDROOT
BRANCH  10  11
ATOM     11  N   UNL     1      -4.173   0.483  24.282  0.00  0.00    -0.204 NA
ATOM     12  C   UNL     1      -4.428  -0.166  24.722  0.00  0.00    +0.286 C 
ATOM     13  O   UNL     1      -4.731  -0.057  25.482  0.00  0.00    -0.269 OA
BRANCH  12  14
ATOM     14  C   UNL     1      -4.380  -0.926  24.403  0.00  0.00    +0.291 C 
BRANCH  14  15
ATOM     15  O   UNL     1      -4.185  -1.565  24.886  0.00  0.00    -0.466 OA
BRANCH  15  16
ATOM     16  C   UNL     1      -3.716  -2.177  24.593  0.00  0.00    +0.139 A 
ATOM     17  C   UNL     1      -4.019  -2.696  24.029  0.00  0.00    +0.037 A 
ATOM     18  C   UNL     1      -3.549  -3.308  23.736  0.00  0.00    +0.003 A 
ATOM     19  C   UNL     1      -2.776  -3.400  24.008  0.00  0.00    +0.000 A 
ATOM     20  C   UNL     1      -2.472  -2.881  24.573  0.00  0.00    +0.003 A 
ATOM     21  C   UNL     1      -2.942  -2.269  24.865  0.00  0.00    +0.037 A 
ENDBRANCH  15  16
ENDBRANCH  14  15
ENDBRANCH  12  14
ENDBRANCH  10  11
BRANCH   3   2
ATOM      1  C   UNL     1      -1.681   3.621  26.311  0.00  0.00    +0.010 C 
ATOM      2  C   UNL     1      -2.256   3.984  25.844  0.00  0.00    +0.079 C 
BRANCH   2  27
ATOM     27  C   UNL     1      -2.143   4.757  25.579  0.00  0.00    +0.225 C 
ATOM     28  O   UNL     1      -2.714   5.334  25.730  0.00  0.00    -0.275 OA
ATOM     29  N   UNL     1      -1.457   4.955  25.163  0.00  0.00    -0.280 N 
ATOM     30  C   UNL     1      -1.269   5.701  24.866  0.00  0.00    +0.093 C 
ATOM     31  C   UNL     1      -0.536   5.649  24.490  0.00  0.00    +0.023 C 
ATOM     32  C   UNL     1      -0.272   4.870  24.557  0.00  0.00    +0.023 C 
ATOM     33  C   UNL     1      -0.842   4.441  24.972  0.00  0.00    +0.093 C 
ENDBRANCH   2  27
ENDBRANCH   3   2
TORSDOF 6
ENDMDL
MODEL 5
REMARK VINA RESULT:      -9.6      2.747      4.596
REMARK  Name = 
REMARK  6 active torsions:
REMARK  status: ('A' for Active; 'I' for Inactive)
REMARK    1  A    between atoms: C_2  and  C_3
REMARK    2  A    between atoms: C_2  and  C_27
REMARK    3  A    between atoms: C_10  and  N_11
REMARK    4  A    between atoms: C_12  and  C_14
REMARK    5  A    between atoms: C_14  and  O_15
REMARK    6  A    between atoms: O_15  and  C_16
REMARK                            x       y       z     vdW  Elec       q    Type
REMARK                         _______ _______ _______ _____ _____    ______ ____
ROOT
ATOM      3  C   UNL     1      -2.204  -1.313  25.037  0.00  0.00    +0.039 C 
ATOM      4  C   UNL     1      -1.496  -1.723  24.924  0.00  0.00    +0.003 C 
ATOM      5  C   UNL     1      -0.810  -1.313  24.720  0.00  0.00    +0.000 C 
ATOM      6  C   UNL     1      -0.831  -0.494  24.629  0.00  0.00    +0.002 C 
ATOM      7  C   UNL     1      -0.125  -0.903  24.516  0.00  0.00    +0.000 C 
ATOM      8  C   UNL     1      -0.145  -0.083  24.425  0.00  0.00    +0.002 C 
ATOM      9  C   UNL     1      -0.166   0.736  24.334  0.00  0.00    +0.022 C 
ATOM     10  C   UNL     1      -0.874   1.146  24.447  0.00  0.00    +0.095 C 
ATOM     22  C   UNL     1      -1.560   0.736  24.650  0.00  0.00    +0.022 C 
ATOM     23  C   UNL     1      -2.267   1.146  24.763  0.00  0.00    +0.002 C 
ATOM     24  C   UNL     1      -1.539  -0.084  24.742  0.00  0.00    +0.032 C 
ATOM     25  C   UNL     1      -2.225  -0.494  24.945  0.00  0.00    +0.152 C 
ATOM     26  O   UNL     1      -2.932  -0.084  25.058  0.00  0.00    -0.223 OA
ENDROOT
BRANCH  10  11
ATOM     11  N   UNL     1      -0.895   1.966  24.355  0.00  0.00    -0.204 NA
ATOM     12  C   UNL     1      -0.359   2.441  24.765  0.00  0.00    +0.286 C 
ATOM     13  O   UNL     1       0.198   2.095  25.267  0.00  0.00    -0.269 OA
BRANCH  12  14
ATOM     14  C   UNL     1      -0.380   3.260  24.673  0.00  0.00    +0.291 C 
BRANCH  14  15
ATOM     15  O   UNL     1      -0.569   3.743  25.314  0.00  0.00    -0.466 OA
BRANCH  15  16
ATOM     16  C   UNL     1      -0.977   4.450  25.193  0.00  0.00    +0.139 A 
ATOM     17  C   UNL     1      -0.617   5.069  24.785  0.00  0.00    +0.037 A 
ATOM     18  C   UNL     1      -1.025   5.777  24.664  0.00  0.00    +0.003 A 
ATOM     19  C   UNL     1      -1.793   5.863  24.952  0.00  0.00    +0.000 A 
ATOM     20  C   UNL     1      -2.154   5.243  25.360  0.00  0.00    +0.003 A 
ATOM     21  C   UNL     1      -1.745   4.537  25.481  0.00  0.00    +0.037 A 
ENDBRANCH  15  16
ENDBRANCH  14  15
ENDBRANCH  12  14
ENDBRANCH  10  11
BRANCH   3   2
ATOM      1  C   UNL     1      -3.414  -1.406  25.794  0.00  0.00    +0.010 C 
ATOM      2  C   UNL     1      -2.890  -1.724  25.241  0.00  0.00    +0.079 C 
BRANCH   2  27
ATOM     27  C   UNL     1      -3.053  -2.453  24.891  0.00  0.00    +0.225 C 
ATOM     28  O   UNL     1      -2.590  -3.111  25.074  0.00  0.00    -0.275 OA
ATOM     29  N   UNL     1      -3.679  -2.524  24.357  0.00  0.00    -0.280 N 
ATOM     30  C   UNL     1      -3.907  -3.214  23.967  0.00  0.00    +0.093 C 
ATOM     31  C   UNL     1      -4.556  -3.035  23.489  0.00  0.00    +0.023 C 
ATOM     32  C   UNL     1      -4.728  -2.234  23.586  0.00  0.00    +0.023 C 
ATOM     33  C   UNL     1      -4.187  -1.918  24.123  0.00  0.00    +0.093 C 
ENDBRANCH   2  27
ENDBRANCH   3   2
TORSDOF 6
ENDMDL
MODEL 6
REMARK VINA RESULT:      -9.2      1.192      6.403
REMARK  Name = 
REMARK  6 active torsions:
REMARK  status: ('A' for Active; 'I' for Inactive)
REMARK    1  A    between atoms: C_2  and  C_3
REMARK    2  A    between atoms: C_2  and  C_27
REMARK    3  A    between atoms: C_10  and  N_11
REMARK    4  A    between atoms: C_12  and  C_14
REMARK    5  A    between atoms: C_14  and  O_15
REMARK    6  A    between atoms: O_15  and  C_16
REMARK                            x       y       z     vdW  Elec       q    Type
REMARK                         _______ _______ _______ _____ _____    ______ ____
ROOT
ATOM      3  C   UNL     1       0.286   0.022  23.810  0.00  0.00    +0.039 C 
ATOM      4  C   UNL     1       0.330  -0.797  23.907  0.00  0.00    +0.003 C 
ATOM      5  C   UNL     1      -0.297  -1.206  24.252  0.00  0.00    +0.000 C 
ATOM      6  C   UNL     1      -0.969  -0.798  24.500  0.00  0.00    +0.002 C 
ATOM      7  C   UNL     1      -0.924  -1.615  24.597  0.00  0.00    +0.000 C 
ATOM      8  C   UNL     1      -1.597  -1.207  24.846  0.00  0.00    +0.002 C 
ATOM      9  C   UNL     1      -2.268  -0.798  25.095  0.00  0.00    +0.022 C 
ATOM     10  C   UNL     1      -2.313   0.021  24.998  0.00  0.00    +0.095 C 
ATOM     22  C   UNL     1      -1.686   0.430  24.652  0.00  0.00    +0.022 C 
ATOM     23  C   UNL     1      -1.730   1.248  24.555  0.00  0.00    +0.002 C 
ATOM     24  C   UNL     1      -1.013   0.021  24.403  0.00  0.00    +0.032 C 
ATOM     25  C   UNL     1      -0.386   0.430  24.058  0.00  0.00    +0.152 C 
ATOM     26  O   UNL     1      -0.430   1.248  23.961  0.00  0.00    -0.223 OA
ENDROOT
BRANCH  10  11
ATOM     11  N   UNL     1      -2.985   0.429  25.247  0.00  0.00    -0.204 NA
ATOM     12  C   UNL     1      -3.727   0.221  24.954  0.00  0.00    +0.286 C 
ATOM     13  O   UNL     1      -3.797  -0.397  24.410  0.00  0.00    -0.269 OA
BRANCH  12  14
ATOM     14  C   UNL     1      -4.399   0.629  25.202  0.00  0.00    +0.291 C 
BRANCH  14  15
ATOM     15  O   UNL     1      -4.748   1.191  24.709  0.00  0.00    -0.466 OA
BRANCH  15  16
ATOM     16  C   UNL     1      -5.157   1.829  25.035  0.00  0.00    +0.139 A 
ATOM     17  C   UNL     1      -5.809   1.697  25.521  0.00  0.00    +0.037 A 
ATOM     18  C   UNL     1      -6.219   2.335  25.846  0.00  0.00    +0.003 A 
ATOM     19  C   UNL     1      -5.975   3.107  25.684  0.00  0.00    +0.000 A 
ATOM     20  C   UNL     1      -5.322   3.239  25.197  0.00  0.00    +0.003 A 
ATOM     21  C   UNL     1      -4.913   2.600  24.873  0.00  0.00    +0.037 A 
ENDBRANCH  15  16
ENDBRANCH  14  15
ENDBRANCH  12  14
ENDBRANCH  10  11
BRANCH   3   2
ATOM      1  C   UNL     1       1.184   1.134  23.800  0.00  0.00    +0.010 C 
ATOM      2  C   UNL     1       0.914   0.430  23.464  0.00  0.00    +0.079 C 
BRANCH   2  27
ATOM     27  C   UNL     1       1.272   0.135  22.782  0.00  0.00    +0.225 C 
ATOM     28  O   UNL     1       0.821  -0.272  22.222  0.00  0.00    -0.275 OA
ATOM     29  N   UNL     1       2.081   0.246  22.659  0.00  0.00    -0.280 N 
ATOM     30  C   UNL     1       2.512  -0.017  22.007  0.00  0.00    +0.093 C 
ATOM     31  C   UNL     1       3.298   0.214  22.112  0.00  0.00    +0.023 C 
ATOM     32  C   UNL     1       3.350   0.619  22.829  0.00  0.00    +0.023 C 
ATOM     33  C   UNL     1       2.598   0.639  23.167  0.00  0.00    +0.093 C 
ENDBRANCH   2  27
ENDBRANCH   3   2
TORSDOF 6
ENDMDL
MODEL 7
REMARK VINA RESULT:      -9.1      1.701      2.614
REMARK  Name = 
REMARK  6 active torsions:
REMARK  status: ('A' for Active; 'I' for Inactive)
REMARK    1  A    between atoms: C_2  and  C_3
REMARK    2  A    between atoms: C_2  and  C_27
REMARK    3  A    between atoms: C_10  and  N_11
REMARK    4  A    between atoms: C_12  and  C_14
REMARK    5  A    between atoms: C_14  and  O_15
REMARK    6  A    between atoms: O_15  and  C_16
REMARK                            x       y       z     vdW  Elec       q    Type
REMARK                         _______ _______ _______ _____ _____    ______ ____
ROOT
ATOM      3  C   UNL     1      -2.872  -0.050  24.590  0.00  0.00    +0.039 C 
ATOM      4  C   UNL     1      -3.209   0.582  24.180  0.00  0.00    +0.003 C 
ATOM      5  C   UNL     1      -2.726   1.154  23.834  0.00  0.00    +0.000 C 
ATOM      6  C   UNL     1      -1.907   1.094  23.897  0.00  0.00    +0.002 C 
ATOM      7  C   UNL     1      -2.243   1.725  23.488  0.00  0.00    +0.000 C 
ATOM      8  C   UNL     1      -1.422   1.666  23.551  0.00  0.00    +0.002 C 
ATOM      9  C   UNL     1      -0.603   1.606  23.615  0.00  0.00    +0.022 C 
ATOM     10  C   UNL     1      -0.265   0.974  24.025  0.00  0.00    +0.095 C 
ATOM     22  C   UNL     1      -0.748   0.402  24.371  0.00  0.00    +0.022 C 
ATOM     23  C   UNL     1      -0.412  -0.230  24.780  0.00  0.00    +0.002 C 
ATOM     24  C   UNL     1      -1.569   0.461  24.307  0.00  0.00    +0.032 C 
ATOM     25  C   UNL     1      -2.052  -0.110  24.653  0.00  0.00    +0.152 C 
ATOM     26  O   UNL     1      -1.715  -0.742  25.063  0.00  0.00    -0.223 OA
ENDROOT
BRANCH  10  11
ATOM     11  N   UNL     1       0.555   0.914  24.088  0.00  0.00    -0.204 NA
ATOM     12  C   UNL     1       1.010   0.744  23.422  0.00  0.00    +0.286 C 
ATOM     13  O   UNL     1       0.643   0.632  22.690  0.00  0.00    -0.269 OA
BRANCH  12  14
ATOM     14  C   UNL     1       1.830   0.685  23.485  0.00  0.00    +0.291 C 
BRANCH  14  15
ATOM     15  O   UNL     1       2.278   0.439  22.837  0.00  0.00    -0.466 OA
BRANCH  15  16
ATOM     16  C   UNL     1       3.098   0.379  22.901  0.00  0.00    +0.139 A 
ATOM     17  C   UNL     1       3.440  -0.313  23.190  0.00  0.00    +0.037 A 
ATOM     18  C   UNL     1       4.260  -0.374  23.254  0.00  0.00    +0.003 A 
ATOM     19  C   UNL     1       4.739   0.259  23.027  0.00  0.00    +0.000 A 
ATOM     20  C   UNL     1       4.397   0.953  22.738  0.00  0.00    +0.003 A 
ATOM     21  C   UNL     1       3.576   1.012  22.675  0.00  0.00    +0.037 A 
ENDBRANCH  15  16
ENDBRANCH  14  15
ENDBRANCH  12  14
ENDBRANCH  10  11
BRANCH   3   2
ATOM      1  C   UNL     1      -3.237  -0.845  25.721  0.00  0.00    +0.010 C 
ATOM      2  C   UNL     1      -3.356  -0.622  24.936  0.00  0.00    +0.079 C 
BRANCH   2  27
ATOM     27  C   UNL     1      -3.960  -0.971  24.495  0.00  0.00    +0.225 C 
ATOM     28  O   UNL     1      -4.576  -0.508  24.199  0.00  0.00    -0.275 OA
ATOM     29  N   UNL     1      -3.950  -1.784  24.352  0.00  0.00    -0.280 N 
ATOM     30  C   UNL     1      -4.513  -2.208  23.924  0.00  0.00    +0.093 C 
ATOM     31  C   UNL     1      -4.285  -3.001  23.918  0.00  0.00    +0.023 C 
ATOM     32  C   UNL     1      -3.581  -3.067  24.344  0.00  0.00    +0.023 C 
ATOM     33  C   UNL     1      -3.374  -2.314  24.612  0.00  0.00    +0.093 C 
ENDBRANCH   2  27
ENDBRANCH   3   2
TORSDOF 6
ENDMDL
