MODEL 1
REMARK VINA RESULT:     -14.0      0.000      0.000
REMARK  Name = 
REMARK  7 active torsions:
REMARK  status: ('A' for Active; 'I' for Inactive)
REMARK    1  A    between atoms: S_2  and  N_4
REMARK    2  A    between atoms: S_2  and  C_31
REMARK    3  A    between atoms: N_4  and  C_5
REMARK    4  A    between atoms: C_9  and  N_13
REMARK    5  A    between atoms: C_17  and  O_18
REMARK    6  A    between atoms: O_18  and  C_19
REMARK    7  A    between atoms: C_23  and  N_25
REMARK                            x       y       z     vdW  Elec       q    Type
REMARK                         _______ _______ _______ _____ _____    ______ ____
ROOT
ATOM      5  C   UNL     1      -0.570   0.740  24.779  0.00  0.00    +0.157 C 
ATOM      6  C   UNL     1      -0.883   1.023  24.069  0.00  0.00    +0.164 C 
ATOM      7  O   UNL     1      -0.973   1.839  24.139  0.00  0.00    -0.350 OA
ATOM      8  C   UNL     1      -0.717   2.062  24.891  0.00  0.00    +0.169 C 
ATOM      9  C   UNL     1      -0.615   2.704  25.399  0.00  0.00    +0.170 C 
ATOM     10  C   UNL     1      -0.303   2.421  26.108  0.00  0.00    +0.169 C 
ATOM     11  O   UNL     1      -0.212   1.604  26.039  0.00  0.00    -0.350 OA
ATOM     12  C   UNL     1      -0.468   1.382  25.287  0.00  0.00    +0.164 C 
ENDROOT
BRANCH   9  13
ATOM     13  N   UNL     1      -0.793   3.491  25.228  0.00  0.00    -0.180 N 
ATOM     14  N   UNL     1      -0.358   3.990  24.734  0.00  0.00    -0.040 NA
ATOM     15  N   UNL     1      -0.733   4.725  24.720  0.00  0.00    -0.020 NA
ATOM     16  N   UNL     1      -1.398   4.680  25.206  0.00  0.00    -0.071 NA
ATOM     17  C   UNL     1      -1.436   3.918  25.519  0.00  0.00    +0.343 A 
BRANCH  17  18
ATOM     18  O   UNL     1      -2.013   3.632  26.034  0.00  0.00    -0.421 OA
BRANCH  18  19
ATOM     19  C   UNL     1      -2.804   3.839  25.922  0.00  0.00    +0.150 A 
ATOM     20  C   UNL     1      -3.051   4.614  26.059  0.00  0.00    +0.038 A 
ATOM     21  C   UNL     1      -3.842   4.821  25.947  0.00  0.00    +0.004 A 
ATOM     22  C   UNL     1      -4.386   4.253  25.697  0.00  0.00    +0.015 A 
ATOM     23  C   UNL     1      -4.139   3.478  25.560  0.00  0.00    +0.051 A 
ATOM     24  C   UNL     1      -3.348   3.271  25.672  0.00  0.00    +0.052 A 
BRANCH  23  25
ATOM     25  N   UNL     1      -4.682   2.910  25.310  0.00  0.00    -0.303 N 
ATOM     26  C   UNL     1      -5.343   2.740  25.774  0.00  0.00    +0.123 C 
ATOM     27  C   UNL     1      -5.886   2.171  25.524  0.00  0.00    +0.164 C 
ATOM     28  O   UNL     1      -5.769   1.773  24.811  0.00  0.00    -0.350 OA
ATOM     29  C   UNL     1      -5.109   1.944  24.348  0.00  0.00    +0.164 C 
ATOM     30  C   UNL     1      -4.565   2.512  24.597  0.00  0.00    +0.123 C 
ENDBRANCH  23  25
ENDBRANCH  18  19
ENDBRANCH  17  18
ENDBRANCH   9  13
BRANCH   5   4
ATOM      4  N   UNL     1      -0.392  -0.047  24.950  0.00  0.00    -0.074 NA
BRANCH   4   2
ATOM      1  O   UNL     1      -1.193  -0.574  25.616  0.00  0.00    -0.152 OA
ATOM      2  S   UNL     1      -0.957  -0.635  24.827  0.00  0.00    +0.077 S 
ATOM      3  O   UNL     1      -0.722  -0.696  24.039  0.00  0.00    -0.152 OA
BRANCH   2  31
ATOM     31  C   UNL     1      -1.523  -1.223  24.704  0.00  0.00    +0.124 A 
ATOM     32  C   UNL     1      -2.310  -1.018  24.570  0.00  0.00    +0.020 A 
ATOM     33  C   UNL     1      -2.874  -1.606  24.447  0.00  0.00    +0.001 A 
ATOM     34  C   UNL     1      -3.662  -1.401  24.312  0.00  0.00    +0.000 A 
ATOM     35  C   UNL     1      -4.227  -1.989  24.189  0.00  0.00    +0.000 A 
ATOM     36  C   UNL     1      -4.004  -2.784  24.201  0.00  0.00    +0.000 A 
ATOM     37  C   UNL     1      -3.217  -2.990  24.335  0.00  0.00    +0.000 A 
ATOM     38  C   UNL     1      -2.651  -2.401  24.458  0.00  0.00    +0.000 A 
ATOM     39  C   UNL     1      -1.864  -2.607  24.592  0.00  0.00    +0.001 A 
ATOM     40  C   UNL     1      -1.300  -2.019  24.715  0.00  0.00    +0.020 A 
ENDBRANCH   2  31
ENDBRANCH   4   2
ENDBRANCH   5   4
TORSDOF 7
ENDMDL
MODEL 2
REMARK VINA RESULT:     -12.9      1.479      4.845
REMARK  Name = 
REMARK  7 active torsions:
REMARK  status: ('A' for Active; 'I' for Inactive)
REMARK    1  A    between atoms: S_2  and  N_4
REMARK    2  A    between atoms: S_2  and  C_31
REMARK    3  A    between atoms: N_4  and  C_5
REMARK    4  A    between atoms: C_9  and  N_13
REMARK    5  A    between atoms: C_17  and  O_18
REMARK    6  A    between atoms: O_18  and  C_19
REMARK    7  A    between atoms: C_23  and  N_25
REMARK                            x       y       z     vdW  Elec       q    Type
REMARK                         _______ _______ _______ _____ _____    ______ ____
ROOT
ATOM      5  C   UNL     1      -1.835   2.652  24.056  0.00  0.00    +0.157 C 
ATOM      6  C   UNL     1      -2.073   2.238  23.382  0.00  0.00    +0.164 C 
ATOM      7  O   UNL     1      -1.553   1.607  23.275  0.00  0.00    -0.350 OA
ATOM      8  C   UNL     1      -0.994   1.629  23.881  0.00  0.00    +0.169 C 
ATOM      9  C   UNL     1      -0.328   1.254  24.189  0.00  0.00    +0.170 C 
ATOM     10  C   UNL     1      -0.090   1.667  24.862  0.00  0.00    +0.169 C 
ATOM     11  O   UNL     1      -0.610   2.299  24.971  0.00  0.00    -0.350 OA
ATOM     12  C   UNL     1      -1.168   2.275  24.365  0.00  0.00    +0.164 C 
ENDROOT
BRANCH   9  13
ATOM     13  N   UNL     1       0.037   0.582  23.879  0.00  0.00    -0.180 N 
ATOM     14  N   UNL     1       0.536   0.562  23.222  0.00  0.00    -0.040 NA
ATOM     15  N   UNL     1       0.776  -0.219  23.107  0.00  0.00    -0.020 NA
ATOM     16  N   UNL     1       0.424  -0.681  23.694  0.00  0.00    -0.071 NA
ATOM     17  C   UNL     1      -0.031  -0.187  24.170  0.00  0.00    +0.343 A 
BRANCH  17  18
ATOM     18  O   UNL     1      -0.478  -0.419  24.824  0.00  0.00    -0.421 OA
BRANCH  18  19
ATOM     19  C   UNL     1      -0.857  -1.152  24.825  0.00  0.00    +0.150 A 
ATOM     20  C   UNL     1      -0.440  -1.831  25.039  0.00  0.00    +0.038 A 
ATOM     21  C   UNL     1      -0.818  -2.564  25.040  0.00  0.00    +0.004 A 
ATOM     22  C   UNL     1      -1.614  -2.618  24.828  0.00  0.00    +0.015 A 
ATOM     23  C   UNL     1      -2.031  -1.939  24.614  0.00  0.00    +0.051 A 
ATOM     24  C   UNL     1      -1.652  -1.205  24.613  0.00  0.00    +0.052 A 
BRANCH  23  25
ATOM     25  N   UNL     1      -2.826  -1.992  24.402  0.00  0.00    -0.303 N 
ATOM     26  C   UNL     1      -3.271  -1.305  24.293  0.00  0.00    +0.123 C 
ATOM     27  C   UNL     1      -4.066  -1.359  24.081  0.00  0.00    +0.164 C 
ATOM     28  O   UNL     1      -4.417  -2.098  23.978  0.00  0.00    -0.350 OA
ATOM     29  C   UNL     1      -3.973  -2.784  24.087  0.00  0.00    +0.164 C 
ATOM     30  C   UNL     1      -3.177  -2.731  24.299  0.00  0.00    +0.123 C 
ENDBRANCH  23  25
ENDBRANCH  18  19
ENDBRANCH  17  18
ENDBRANCH   9  13
BRANCH   5   4
ATOM      4  N   UNL     1      -2.200   3.323  24.366  0.00  0.00    -0.074 NA
BRANCH   4   2
ATOM      1  O   UNL     1      -3.259   3.283  23.879  0.00  0.00    -0.152 OA
ATOM      2  S   UNL     1      -2.972   3.278  24.653  0.00  0.00    +0.077 S 
ATOM      3  O   UNL     1      -2.686   3.274  25.426  0.00  0.00    -0.152 OA
BRANCH   2  31
ATOM     31  C   UNL     1      -3.745   3.234  24.939  0.00  0.00    +0.124 A 
ATOM     32  C   UNL     1      -4.134   2.507  24.968  0.00  0.00    +0.020 A 
ATOM     33  C   UNL     1      -4.905   2.464  25.254  0.00  0.00    +0.001 A 
ATOM     34  C   UNL     1      -5.295   1.737  25.284  0.00  0.00    +0.000 A 
ATOM     35  C   UNL     1      -6.067   1.693  25.570  0.00  0.00    +0.000 A 
ATOM     36  C   UNL     1      -6.451   2.377  25.827  0.00  0.00    +0.000 A 
ATOM     37  C   UNL     1      -6.063   3.104  25.798  0.00  0.00    +0.000 A 
ATOM     38  C   UNL     1      -5.290   3.148  25.512  0.00  0.00    +0.000 A 
ATOM     39  C   UNL     1      -4.901   3.875  25.482  0.00  0.00    +0.001 A 
ATOM     40  C   UNL     1      -4.130   3.918  25.196  0.00  0.00    +0.020 A 
ENDBRANCH   2  31
ENDBRANCH   4   2
ENDBRANCH   5   4
TORSDOF 7
ENDMDL
MODEL 3
REMARK VINA RESULT:     -12.2      1.980      5.974
REMARK  Name = 
REMARK  7 active torsions:
REMARK  status: ('A' for Active; 'I' for Inactive)
REMARK    1  A    between atoms: S_2  and  N_4
REMARK    2  A    between atoms: S_2  and  C_31
REMARK    3  A    between atoms: N_4  and  C_5
REMARK    4  A    between atoms: C_9  and  N_13
REMARK    5  A    between atoms: C_17  and  O_18
REMARK    6  A    between atoms: O_18  and  C_19
REMARK    7  A    between atoms: C_23  and  N_25
REMARK                            x       y       z     vdW  Elec       q    Type
REMARK                         _______ _______ _______ _____ _____    ______ ____
ROOT
ATOM      5  C   UNL     1      -4.281   1.678  24.569  0.00  0.00    +0.157 C 
ATOM      6  C   UNL     1      -3.952   1.552  23.822  0.00  0.00    +0.164 C 
ATOM      7  O   UNL     1      -3.852   0.739  23.722  0.00  0.00    -0.350 OA
ATOM      8  C   UNL     1      -4.119   0.363  24.406  0.00  0.00    +0.169 C 
ATOM      9  C   UNL     1      -4.222  -0.371  24.768  0.00  0.00    +0.170 C 
ATOM     10  C   UNL     1      -4.550  -0.245  25.514  0.00  0.00    +0.169 C 
ATOM     11  O   UNL     1      -4.650   0.568  25.614  0.00  0.00    -0.350 OA
ATOM     12  C   UNL     1      -4.384   0.944  24.930  0.00  0.00    +0.164 C 
ENDROOT
BRANCH   9  13
ATOM     13  N   UNL     1      -4.030  -1.104  24.441  0.00  0.00    -0.180 N 
ATOM     14  N   UNL     1      -4.468  -1.509  23.871  0.00  0.00    -0.040 NA
ATOM     15  N   UNL     1      -4.076  -2.216  23.703  0.00  0.00    -0.020 NA
ATOM     16  N   UNL     1      -3.397  -2.247  24.171  0.00  0.00    -0.071 NA
ATOM     17  C   UNL     1      -3.368  -1.561  24.626  0.00  0.00    +0.343 A 
BRANCH  17  18
ATOM     18  O   UNL     1      -2.782  -1.363  25.172  0.00  0.00    -0.421 OA
BRANCH  18  19
ATOM     19  C   UNL     1      -1.990  -1.520  24.999  0.00  0.00    +0.150 A 
ATOM     20  C   UNL     1      -1.667  -2.259  25.175  0.00  0.00    +0.038 A 
ATOM     21  C   UNL     1      -0.876  -2.414  25.002  0.00  0.00    +0.004 A 
ATOM     22  C   UNL     1      -0.407  -1.832  24.655  0.00  0.00    +0.015 A 
ATOM     23  C   UNL     1      -0.729  -1.093  24.480  0.00  0.00    +0.051 A 
ATOM     24  C   UNL     1      -1.521  -0.937  24.652  0.00  0.00    +0.052 A 
BRANCH  23  25
ATOM     25  N   UNL     1      -0.260  -0.510  24.133  0.00  0.00    -0.303 N 
ATOM     26  C   UNL     1      -0.330   0.276  24.377  0.00  0.00    +0.123 C 
ATOM     27  C   UNL     1       0.138   0.859  24.030  0.00  0.00    +0.164 C 
ATOM     28  O   UNL     1       0.678   0.658  23.439  0.00  0.00    -0.350 OA
ATOM     29  C   UNL     1       0.748  -0.127  23.195  0.00  0.00    +0.164 C 
ATOM     30  C   UNL     1       0.279  -0.711  23.542  0.00  0.00    +0.123 C 
ENDBRANCH  23  25
ENDBRANCH  18  19
ENDBRANCH  17  18
ENDBRANCH   9  13
BRANCH   5   4
ATOM      4  N   UNL     1      -4.472   2.410  24.896  0.00  0.00    -0.074 NA
BRANCH   4   2
ATOM      1  O   UNL     1      -3.763   2.812  25.730  0.00  0.00    -0.152 OA
ATOM      2  S   UNL     1      -3.902   3.005  24.940  0.00  0.00    +0.077 S 
ATOM      3  O   UNL     1      -4.042   3.199  24.150  0.00  0.00    -0.152 OA
BRANCH   2  31
ATOM     31  C   UNL     1      -3.332   3.600  24.985  0.00  0.00    +0.124 A 
ATOM     32  C   UNL     1      -2.531   3.409  24.942  0.00  0.00    +0.020 A 
ATOM     33  C   UNL     1      -1.962   4.003  24.987  0.00  0.00    +0.001 A 
ATOM     34  C   UNL     1      -1.160   3.812  24.943  0.00  0.00    +0.000 A 
ATOM     35  C   UNL     1      -0.591   4.406  24.988  0.00  0.00    +0.000 A 
ATOM     36  C   UNL     1      -0.823   5.194  25.077  0.00  0.00    +0.000 A 
ATOM     37  C   UNL     1      -1.624   5.386  25.120  0.00  0.00    +0.000 A 
ATOM     38  C   UNL     1      -2.194   4.791  25.075  0.00  0.00    +0.000 A 
ATOM     39  C   UNL     1      -2.994   4.982  25.119  0.00  0.00    +0.001 A 
ATOM     40  C   UNL     1      -3.564   4.388  25.074  0.00  0.00    +0.020 A 
ENDBRANCH   2  31
ENDBRANCH   4   2
ENDBRANCH   5   4
TORSDOF 7
ENDMDL
MODEL 4
REMARK VINA RESULT:     -12.1      1.371      3.497
REMARK  Name = 
REMARK  7 active torsions:
REMARK  status: ('A' for Active; 'I' for Inactive)
REMARK    1  A    between atoms: S_2  and  N_4
REMARK    2  A    between atoms: S_2  and  C_31
REMARK    3  A    between atoms: N_4  and  C_5
REMARK    4  A    between atoms: C_9  and  N_13
REMARK    5  A    between atoms: C_17  and  O_18
REMARK    6  A    between atoms: O_18  and  C_19
REMARK    7  A    between atoms: C_23  and  N_25
REMARK                            x       y       z     vdW  Elec       q    Type
REMARK                         _______ _______ _______ _____ _____    ______ ____
ROOT
ATOM      5  C   UNL     1      -4.490   0.854  24.647  0.00  0.00    +0.157 C 
ATOM      6  C   UNL     1      -4.102   1.005  23.935  0.00  0.00    +0.164 C 
ATOM      7  O   UNL     1      -4.023   1.822  23.857  0.00  0.00    -0.350 OA
ATOM      8  C   UNL     1      -4.362   2.177  24.519  0.00  0.00    +0.169 C 
ATOM      9  C   UNL     1      -4.523   2.900  24.881  0.00  0.00    +0.170 C 
ATOM     10  C   UNL     1      -4.911   2.749  25.593  0.00  0.00    +0.169 C 
ATOM     11  O   UNL     1      -4.991   1.932  25.672  0.00  0.00    -0.350 OA
ATOM     12  C   UNL     1      -4.652   1.578  25.009  0.00  0.00    +0.164 C 
ENDROOT
BRANCH   9  13
ATOM     13  N   UNL     1      -4.330   3.645  24.583  0.00  0.00    -0.180 N 
ATOM     14  N   UNL     1      -4.719   4.038  23.970  0.00  0.00    -0.040 NA
ATOM     15  N   UNL     1      -4.344   4.763  23.853  0.00  0.00    -0.020 NA
ATOM     16  N   UNL     1      -3.724   4.819  24.395  0.00  0.00    -0.071 NA
ATOM     17  C   UNL     1      -3.715   4.129  24.846  0.00  0.00    +0.343 A 
BRANCH  17  18
ATOM     18  O   UNL     1      -3.185   3.952  25.452  0.00  0.00    -0.421 OA
BRANCH  18  19
ATOM     19  C   UNL     1      -2.382   4.119  25.360  0.00  0.00    +0.150 A 
ATOM     20  C   UNL     1      -2.126   4.902  25.317  0.00  0.00    +0.038 A 
ATOM     21  C   UNL     1      -1.324   5.069  25.225  0.00  0.00    +0.004 A 
ATOM     22  C   UNL     1      -0.777   4.453  25.176  0.00  0.00    +0.015 A 
ATOM     23  C   UNL     1      -1.033   3.670  25.220  0.00  0.00    +0.051 A 
ATOM     24  C   UNL     1      -1.836   3.503  25.312  0.00  0.00    +0.052 A 
BRANCH  23  25
ATOM     25  N   UNL     1      -0.486   3.054  25.171  0.00  0.00    -0.303 N 
ATOM     26  C   UNL     1      -0.253   2.767  24.433  0.00  0.00    +0.123 C 
ATOM     27  C   UNL     1       0.293   2.151  24.384  0.00  0.00    +0.164 C 
ATOM     28  O   UNL     1       0.606   1.821  25.073  0.00  0.00    -0.350 OA
ATOM     29  C   UNL     1       0.373   2.108  25.810  0.00  0.00    +0.164 C 
ATOM     30  C   UNL     1      -0.173   2.725  25.859  0.00  0.00    +0.123 C 
ENDBRANCH  23  25
ENDBRANCH  18  19
ENDBRANCH  17  18
ENDBRANCH   9  13
BRANCH   5   4
ATOM      4  N   UNL     1      -4.684   0.110  24.945  0.00  0.00    -0.074 NA
BRANCH   4   2
ATOM      1  O   UNL     1      -3.924  -0.429  25.648  0.00  0.00    -0.152 OA
ATOM      2  S   UNL     1      -4.156  -0.519  24.861  0.00  0.00    +0.077 S 
ATOM      3  O   UNL     1      -4.388  -0.609  24.075  0.00  0.00    -0.152 OA
BRANCH   2  31
ATOM     31  C   UNL     1      -3.628  -1.147  24.777  0.00  0.00    +0.124 A 
ATOM     32  C   UNL     1      -2.821  -1.028  24.894  0.00  0.00    +0.020 A 
ATOM     33  C   UNL     1      -2.294  -1.656  24.810  0.00  0.00    +0.001 A 
ATOM     34  C   UNL     1      -1.486  -1.536  24.927  0.00  0.00    +0.000 A 
ATOM     35  C   UNL     1      -0.959  -2.165  24.843  0.00  0.00    +0.000 A 
ATOM     36  C   UNL     1      -1.240  -2.915  24.642  0.00  0.00    +0.000 A 
ATOM     37  C   UNL     1      -2.048  -3.035  24.525  0.00  0.00    +0.000 A 
ATOM     38  C   UNL     1      -2.575  -2.406  24.609  0.00  0.00    +0.000 A 
ATOM     39  C   UNL     1      -3.383  -2.526  24.492  0.00  0.00    +0.001 A 
ATOM     40  C   UNL     1      -3.909  -1.898  24.576  0.00  0.00    +0.020 A 
ENDBRANCH   2  31
ENDBRANCH   4   2
ENDBRANCH   5   4
TORSDOF 7
ENDMDL
MODEL 5
REMARK VINA RESULT:     -12.0      1.465      4.789
REMARK  Name = 
REMARK  7 active torsions:
REMARK  status: ('A' for Active; 'I' for Inactive)
REMARK    1  A    between atoms: S_2  and  N_4
REMARK    2  A    between atoms: S_2  and  C_31
REMARK    3  A    between atoms: N_4  and  C_5
REMARK    4  A    between atoms: C_9  and  N_13
REMARK    5  A    between atoms: C_17  and  O_18
REMARK    6  A    between atoms: O_18  and  C_19
REMARK    7  A    between atoms: C_23  and  N_25
REMARK                            x       y       z     vdW  Elec       q    Type
REMARK                         _______ _______ _______ _____ _____    ______ ____
ROOT
ATOM      5  C   UNL     1      -0.174   1.022  24.872  0.00  0.00    +0.157 C 
ATOM      6  C   UNL     1      -0.332   0.909  24.070  0.00  0.00    +0.164 C 
ATOM      7  O   UNL     1      -0.718   0.185  23.986  0.00  0.00    -0.350 OA
ATOM      8  C   UNL     1      -0.798  -0.150  24.735  0.00  0.00    +0.169 C 
ATOM      9  C   UNL     1      -1.086  -0.805  25.147  0.00  0.00    +0.170 C 
ATOM     10  C   UNL     1      -0.928  -0.692  25.948  0.00  0.00    +0.169 C 
ATOM     11  O   UNL     1      -0.542   0.032  26.033  0.00  0.00    -0.350 OA
ATOM     12  C   UNL     1      -0.462   0.367  25.284  0.00  0.00    +0.164 C 
ENDROOT
BRANCH   9  13
ATOM     13  N   UNL     1      -1.465  -1.458  24.815  0.00  0.00    -0.180 N 
ATOM     14  N   UNL     1      -1.111  -2.038  24.346  0.00  0.00    -0.040 NA
ATOM     15  N   UNL     1      -1.691  -2.585  24.135  0.00  0.00    -0.020 NA
ATOM     16  N   UNL     1      -2.404  -2.342  24.472  0.00  0.00    -0.071 NA
ATOM     17  C   UNL     1      -2.265  -1.647  24.892  0.00  0.00    +0.343 A 
BRANCH  17  18
ATOM     18  O   UNL     1      -2.825  -1.214  25.315  0.00  0.00    -0.421 OA
BRANCH  18  19
ATOM     19  C   UNL     1      -3.520  -0.966  24.945  0.00  0.00    +0.150 A 
ATOM     20  C   UNL     1      -3.974  -1.505  24.516  0.00  0.00    +0.038 A 
ATOM     21  C   UNL     1      -4.668  -1.256  24.147  0.00  0.00    +0.004 A 
ATOM     22  C   UNL     1      -4.908  -0.469  24.205  0.00  0.00    +0.015 A 
ATOM     23  C   UNL     1      -4.454   0.070  24.634  0.00  0.00    +0.051 A 
ATOM     24  C   UNL     1      -3.759  -0.179  25.004  0.00  0.00    +0.052 A 
BRANCH  23  25
ATOM     25  N   UNL     1      -4.693   0.857  24.693  0.00  0.00    -0.303 N 
ATOM     26  C   UNL     1      -4.339   1.432  24.219  0.00  0.00    +0.123 C 
ATOM     27  C   UNL     1      -4.578   2.219  24.277  0.00  0.00    +0.164 C 
ATOM     28  O   UNL     1      -5.171   2.432  24.810  0.00  0.00    -0.350 OA
ATOM     29  C   UNL     1      -5.525   1.857  25.283  0.00  0.00    +0.164 C 
ATOM     30  C   UNL     1      -5.287   1.069  25.225  0.00  0.00    +0.123 C 
ENDBRANCH  23  25
ENDBRANCH  18  19
ENDBRANCH  17  18
ENDBRANCH   9  13
BRANCH   5   4
ATOM      4  N   UNL     1       0.205   1.674  25.204  0.00  0.00    -0.074 NA
BRANCH   4   2
ATOM      1  O   UNL     1      -0.255   2.407  25.988  0.00  0.00    -0.152 OA
ATOM      2  S   UNL     1      -0.148   2.419  25.170  0.00  0.00    +0.077 S 
ATOM      3  O   UNL     1      -0.041   2.432  24.352  0.00  0.00    -0.152 OA
BRANCH   2  31
ATOM     31  C   UNL     1      -0.501   3.164  25.135  0.00  0.00    +0.124 A 
ATOM     32  C   UNL     1      -1.230   3.293  25.498  0.00  0.00    +0.020 A 
ATOM     33  C   UNL     1      -1.582   4.038  25.463  0.00  0.00    +0.001 A 
ATOM     34  C   UNL     1      -2.312   4.167  25.826  0.00  0.00    +0.000 A 
ATOM     35  C   UNL     1      -2.664   4.912  25.792  0.00  0.00    +0.000 A 
ATOM     36  C   UNL     1      -2.287   5.529  25.393  0.00  0.00    +0.000 A 
ATOM     37  C   UNL     1      -1.558   5.400  25.030  0.00  0.00    +0.000 A 
ATOM     38  C   UNL     1      -1.205   4.655  25.065  0.00  0.00    +0.000 A 
ATOM     39  C   UNL     1      -0.476   4.526  24.702  0.00  0.00    +0.001 A 
ATOM     40  C   UNL     1      -0.123   3.782  24.737  0.00  0.00    +0.020 A 
ENDBRANCH   2  31
ENDBRANCH   4   2
ENDBRANCH   5   4
TORSDOF 7
ENDMDL
MODEL 6
REMARK VINA RESULT:     -11.6      3.100      4.945
REMARK  Name = 
REMARK  7 active torsions:
REMARK  status: ('A' for Active; 'I' for Inactive)
REMARK    1  A    between atoms: S_2  and  N_4
REMARK    2  A    between atoms: S_2  and  C_31
REMARK    3  A    between atoms: N_4  and  C_5
REMARK    4  A    between atoms: C_9  and  N_13
REMARK    5  A    between atoms: C_17  and  O_18
REMARK    6  A    between atoms: O_18  and  C_19
REMARK    7  A    between atoms: C_23  and  N_25
REMARK                            x       y       z     vdW  Elec       q    Type
REMARK                         _______ _______ _______ _____ _____    ______ ____
ROOT
ATOM      5  C   UNL     1       0.779   0.190  23.337  0.00  0.00    +0.157 C 
ATOM      6  C   UNL     1       0.759   0.793  23.900  0.00  0.00    +0.164 C 
ATOM      7  O   UNL     1       0.170   0.611  24.447  0.00  0.00    -0.350 OA
ATOM      8  C   UNL     1      -0.176  -0.104  24.223  0.00  0.00    +0.169 C 
ATOM      9  C   UNL     1      -0.753  -0.658  24.422  0.00  0.00    +0.170 C 
ATOM     10  C   UNL     1      -0.733  -1.261  23.860  0.00  0.00    +0.169 C 
ATOM     11  O   UNL     1      -0.143  -1.079  23.312  0.00  0.00    -0.350 OA
ATOM     12  C   UNL     1       0.201  -0.365  23.537  0.00  0.00    +0.164 C 
ENDROOT
BRANCH   9  13
ATOM     13  N   UNL     1      -1.262  -0.617  25.071  0.00  0.00    -0.180 N 
ATOM     14  N   UNL     1      -1.067  -0.803  25.851  0.00  0.00    -0.040 NA
ATOM     15  N   UNL     1      -1.738  -0.684  26.317  0.00  0.00    -0.020 NA
ATOM     16  N   UNL     1      -2.347  -0.425  25.823  0.00  0.00    -0.071 NA
ATOM     17  C   UNL     1      -2.053  -0.383  25.054  0.00  0.00    +0.343 A 
BRANCH  17  18
ATOM     18  O   UNL     1      -2.474  -0.150  24.385  0.00  0.00    -0.421 OA
BRANCH  18  19
ATOM     19  C   UNL     1      -3.215   0.204  24.467  0.00  0.00    +0.150 A 
ATOM     20  C   UNL     1      -3.893  -0.264  24.516  0.00  0.00    +0.038 A 
ATOM     21  C   UNL     1      -4.633   0.090  24.598  0.00  0.00    +0.004 A 
ATOM     22  C   UNL     1      -4.696   0.912  24.632  0.00  0.00    +0.015 A 
ATOM     23  C   UNL     1      -4.019   1.380  24.583  0.00  0.00    +0.051 A 
ATOM     24  C   UNL     1      -3.278   1.026  24.500  0.00  0.00    +0.052 A 
BRANCH  23  25
ATOM     25  N   UNL     1      -4.082   2.202  24.616  0.00  0.00    -0.303 N 
ATOM     26  C   UNL     1      -4.309   2.570  25.319  0.00  0.00    +0.123 C 
ATOM     27  C   UNL     1      -4.371   3.392  25.352  0.00  0.00    +0.164 C 
ATOM     28  O   UNL     1      -4.207   3.846  24.683  0.00  0.00    -0.350 OA
ATOM     29  C   UNL     1      -3.980   3.478  23.981  0.00  0.00    +0.164 C 
ATOM     30  C   UNL     1      -3.917   2.656  23.947  0.00  0.00    +0.123 C 
ENDBRANCH  23  25
ENDBRANCH  18  19
ENDBRANCH  17  18
ENDBRANCH   9  13
BRANCH   5   4
ATOM      4  N   UNL     1       1.287   0.148  22.689  0.00  0.00    -0.074 NA
BRANCH   4   2
ATOM      1  O   UNL     1       2.012   0.994  23.038  0.00  0.00    -0.152 OA
ATOM      2  S   UNL     1       2.102   0.209  22.799  0.00  0.00    +0.077 S 
ATOM      3  O   UNL     1       2.193  -0.576  22.560  0.00  0.00    -0.152 OA
BRANCH   2  31
ATOM     31  C   UNL     1       2.918   0.270  22.908  0.00  0.00    +0.124 A 
ATOM     32  C   UNL     1       3.327  -0.326  23.306  0.00  0.00    +0.020 A 
ATOM     33  C   UNL     1       4.142  -0.265  23.415  0.00  0.00    +0.001 A 
ATOM     34  C   UNL     1       4.551  -0.861  23.812  0.00  0.00    +0.000 A 
ATOM     35  C   UNL     1       5.366  -0.799  23.922  0.00  0.00    +0.000 A 
ATOM     36  C   UNL     1       5.773  -0.141  23.633  0.00  0.00    +0.000 A 
ATOM     37  C   UNL     1       5.364   0.454  23.235  0.00  0.00    +0.000 A 
ATOM     38  C   UNL     1       4.549   0.393  23.126  0.00  0.00    +0.000 A 
ATOM     39  C   UNL     1       4.140   0.989  22.728  0.00  0.00    +0.001 A 
ATOM     40  C   UNL     1       3.325   0.928  22.619  0.00  0.00    +0.020 A 
ENDBRANCH   2  31
ENDBRANCH   4   2
ENDBRANCH   5   4
TORSDOF 7
ENDMDL
