MODEL 1
REMARK VINA RESULT:      -8.0      0.000      0.000
REMARK  Name = 
REMARK  3 active torsions:
REMARK  status: ('A' for Active; 'I' for Inactive)
REMARK    1  A    between atoms: O_2  and  C_3
REMARK    2  A    between atoms: N_8  and  C_9
REMARK    3  A    between atoms: C_9  and  C_10
REMARK                            x       y       z     vdW  Elec       q    Type
REMARK                         _______ _______ _______ _____ _____    ______ ____
ROOT
ATOM      3  C   UNL     1      -1.374   0.283  25.255  0.00  0.00    +0.161 C 
ATOM      4  C   UNL     1      -0.675   0.000  24.921  0.00  0.00    +0.173 C 
ATOM      5  O   UNL     1      -0.513  -0.753  24.627  0.00  0.00    -0.350 OA
ATOM      6  C   UNL     1      -1.011  -1.410  24.593  0.00  0.00    +0.160 C 
ATOM      7  C   UNL     1      -1.794  -1.475  24.846  0.00  0.00    +0.105 C 
ATOM      8  N   UNL     1      -2.271  -0.901  25.195  0.00  0.00    -0.265 NA
ATOM     17  C   UNL     1      -2.085  -0.118  25.377  0.00  0.00    +0.105 C 
ENDROOT
BRANCH   3   2
ATOM      1  C   UNL     1      -0.649   1.488  25.508  0.00  0.00    +0.174 C 
ATOM      2  O   UNL     1      -1.361   1.071  25.500  0.00  0.00    -0.350 OA
ENDBRANCH   3   2
BRANCH   8   9
ATOM      9  C   UNL     1      -3.038  -1.140  25.387  0.00  0.00    +0.103 C 
BRANCH   9  10
ATOM     10  C   UNL     1      -3.560  -1.370  24.791  0.00  0.00    +0.043 A 
ATOM     11  C   UNL     1      -4.047  -0.870  24.353  0.00  0.00    +0.152 A 
ATOM     12  C   UNL     1      -4.098  -0.050  24.434  0.00  0.00    +0.075 C 
ATOM     13  O   UNL     1      -4.475  -1.332  23.820  0.00  0.00    -0.358 OA
ATOM     14  N   UNL     1      -4.252  -2.119  23.928  0.00  0.00    -0.082 NA
ATOM     15  C   UNL     1      -3.686  -2.143  24.529  0.00  0.00    +0.098 A 
ATOM     16  C   UNL     1      -3.312  -2.819  24.816  0.00  0.00    +0.055 C 
ENDBRANCH   9  10
ENDBRANCH   8   9
TORSDOF 3
ENDMDL
MODEL 2
REMARK VINA RESULT:      -7.7      2.708      4.026
REMARK  Name = 
REMARK  3 active torsions:
REMARK  status: ('A' for Active; 'I' for Inactive)
REMARK    1  A    between atoms: O_2  and  C_3
REMARK    2  A    between atoms: N_8  and  C_9
REMARK    3  A    between atoms: C_9  and  C_10
REMARK                            x       y       z     vdW  Elec       q    Type
REMARK                         _______ _______ _______ _____ _____    ______ ____
ROOT
ATOM      3  C   UNL     1      -3.935   0.018  24.614  0.00  0.00    +0.161 C 
ATOM      4  C   UNL     1      -3.143  -0.090  24.818  0.00  0.00    +0.173 C 
ATOM      5  O   UNL     1      -2.559   0.481  24.934  0.00  0.00    -0.350 OA
ATOM      6  C   UNL     1      -2.624   1.302  24.876  0.00  0.00    +0.160 C 
ATOM      7  C   UNL     1      -3.288   1.754  24.687  0.00  0.00    +0.105 C 
ATOM      8  N   UNL     1      -4.051   1.496  24.510  0.00  0.00    -0.265 NA
ATOM     17  C   UNL     1      -4.339   0.725  24.477  0.00  0.00    +0.105 C 
ENDROOT
BRANCH   3   2
ATOM      1  C   UNL     1      -4.052  -1.339  24.184  0.00  0.00    +0.174 C 
ATOM      2  O   UNL     1      -4.382  -0.671  24.538  0.00  0.00    -0.350 OA
ENDBRANCH   3   2
BRANCH   8   9
ATOM      9  C   UNL     1      -4.599   2.090  24.342  0.00  0.00    +0.103 C 
BRANCH   9  10
ATOM     10  C   UNL     1      -4.795   2.646  24.920  0.00  0.00    +0.043 A 
ATOM     11  C   UNL     1      -4.441   3.384  25.023  0.00  0.00    +0.152 A 
ATOM     12  C   UNL     1      -3.828   3.695  24.567  0.00  0.00    +0.075 C 
ATOM     13  O   UNL     1      -4.807   3.755  25.663  0.00  0.00    -0.358 OA
ATOM     14  N   UNL     1      -5.387   3.247  25.955  0.00  0.00    -0.082 NA
ATOM     15  C   UNL     1      -5.380   2.561  25.496  0.00  0.00    +0.098 A 
ATOM     16  C   UNL     1      -5.871   1.906  25.594  0.00  0.00    +0.055 C 
ENDBRANCH   9  10
ENDBRANCH   8   9
TORSDOF 3
ENDMDL
MODEL 3
REMARK VINA RESULT:      -7.6      1.663      2.801
REMARK  Name = 
REMARK  3 active torsions:
REMARK  status: ('A' for Active; 'I' for Inactive)
REMARK    1  A    between atoms: O_2  and  C_3
REMARK    2  A    between atoms: N_8  and  C_9
REMARK    3  A    between atoms: C_9  and  C_10
REMARK                            x       y       z     vdW  Elec       q    Type
REMARK                         _______ _______ _______ _____ _____    ______ ____
ROOT
ATOM      3  C   UNL     1      -4.694   1.291  24.759  0.00  0.00    +0.161 C 
ATOM      4  C   UNL     1      -4.210   1.881  24.445  0.00  0.00    +0.173 C 
ATOM      5  O   UNL     1      -3.394   1.870  24.331  0.00  0.00    -0.350 OA
ATOM      6  C   UNL     1      -2.859   1.265  24.502  0.00  0.00    +0.160 C 
ATOM      7  C   UNL     1      -3.008   0.523  24.830  0.00  0.00    +0.105 C 
ATOM      8  N   UNL     1      -3.730   0.202  25.067  0.00  0.00    -0.265 NA
ATOM     17  C   UNL     1      -4.480   0.543  25.035  0.00  0.00    +0.105 C 
ENDROOT
BRANCH   3   2
ATOM      1  C   UNL     1      -5.747   2.150  25.199  0.00  0.00    +0.174 C 
ATOM      2  O   UNL     1      -5.498   1.472  24.801  0.00  0.00    -0.350 OA
ENDBRANCH   3   2
BRANCH   8   9
ATOM      9  C   UNL     1      -3.697  -0.562  25.377  0.00  0.00    +0.103 C 
BRANCH   9  10
ATOM     10  C   UNL     1      -3.276  -1.151  24.981  0.00  0.00    +0.043 A 
ATOM     11  C   UNL     1      -3.559  -1.617  24.362  0.00  0.00    +0.152 A 
ATOM     12  C   UNL     1      -4.314  -1.577  24.031  0.00  0.00    +0.075 C 
ATOM     13  O   UNL     1      -2.955  -2.131  24.133  0.00  0.00    -0.358 OA
ATOM     14  N   UNL     1      -2.299  -1.982  24.610  0.00  0.00    -0.082 NA
ATOM     15  C   UNL     1      -2.497  -1.376  25.135  0.00  0.00    +0.098 A 
ATOM     16  C   UNL     1      -2.003  -1.053  25.710  0.00  0.00    +0.055 C 
ENDBRANCH   9  10
ENDBRANCH   8   9
TORSDOF 3
ENDMDL
MODEL 4
REMARK VINA RESULT:      -7.6      2.967      3.963
REMARK  Name = 
REMARK  3 active torsions:
REMARK  status: ('A' for Active; 'I' for Inactive)
REMARK    1  A    between atoms: O_2  and  C_3
REMARK    2  A    between atoms: N_8  and  C_9
REMARK    3  A    between atoms: C_9  and  C_10
REMARK                            x       y       z     vdW  Elec       q    Type
REMARK                         _______ _______ _______ _____ _____    ______ ____
ROOT
ATOM      3  C   UNL     1      -2.195   3.772  25.240  0.00  0.00    +0.161 C 
ATOM      4  C   UNL     1      -1.548   3.305  25.451  0.00  0.00    +0.173 C 
ATOM      5  O   UNL     1      -1.467   2.486  25.403  0.00  0.00    -0.350 OA
ATOM      6  C   UNL     1      -2.014   1.930  25.133  0.00  0.00    +0.160 C 
ATOM      7  C   UNL     1      -2.776   2.057  24.843  0.00  0.00    +0.105 C 
ATOM      8  N   UNL     1      -3.179   2.770  24.753  0.00  0.00    -0.265 NA
ATOM     17  C   UNL     1      -2.922   3.533  24.929  0.00  0.00    +0.105 C 
ENDROOT
BRANCH   3   2
ATOM      1  C   UNL     1      -1.396   4.952  25.146  0.00  0.00    +0.174 C 
ATOM      2  O   UNL     1      -2.104   4.584  25.355  0.00  0.00    -0.350 OA
ENDBRANCH   3   2
BRANCH   8   9
ATOM      9  C   UNL     1      -3.944   2.713  24.445  0.00  0.00    +0.103 C 
BRANCH   9  10
ATOM     10  C   UNL     1      -4.554   2.409  24.910  0.00  0.00    +0.043 A 
ATOM     11  C   UNL     1      -4.771   1.616  24.968  0.00  0.00    +0.152 A 
ATOM     12  C   UNL     1      -4.416   0.986  24.570  0.00  0.00    +0.075 C 
ATOM     13  O   UNL     1      -5.406   1.563  25.492  0.00  0.00    -0.358 OA
ATOM     14  N   UNL     1      -5.581   2.323  25.759  0.00  0.00    -0.082 NA
ATOM     15  C   UNL     1      -5.054   2.847  25.399  0.00  0.00    +0.098 A 
ATOM     16  C   UNL     1      -5.032   3.664  25.509  0.00  0.00    +0.055 C 
ENDBRANCH   9  10
ENDBRANCH   8   9
TORSDOF 3
ENDMDL
MODEL 5
REMARK VINA RESULT:      -7.4      1.949      2.810
REMARK  Name = 
REMARK  3 active torsions:
REMARK  status: ('A' for Active; 'I' for Inactive)
REMARK    1  A    between atoms: O_2  and  C_3
REMARK    2  A    between atoms: N_8  and  C_9
REMARK    3  A    between atoms: C_9  and  C_10
REMARK                            x       y       z     vdW  Elec       q    Type
REMARK                         _______ _______ _______ _____ _____    ______ ____
ROOT
ATOM      3  C   UNL     1      -1.505   0.265  25.002  0.00  0.00    +0.161 C 
ATOM      4  C   UNL     1      -0.999   0.761  25.423  0.00  0.00    +0.173 C 
ATOM      5  O   UNL     1      -1.047   1.578  25.525  0.00  0.00    -0.350 OA
ATOM      6  C   UNL     1      -1.613   2.101  25.230  0.00  0.00    +0.160 C 
ATOM      7  C   UNL     1      -2.272   1.935  24.761  0.00  0.00    +0.105 C 
ATOM      8  N   UNL     1      -2.526   1.207  24.471  0.00  0.00    -0.265 NA
ATOM     17  C   UNL     1      -2.185   0.463  24.578  0.00  0.00    +0.105 C 
ENDROOT
BRANCH   3   2
ATOM      1  C   UNL     1      -0.576  -0.780  24.710  0.00  0.00    +0.174 C 
ATOM      2  O   UNL     1      -1.306  -0.536  25.005  0.00  0.00    -0.350 OA
ENDBRANCH   3   2
BRANCH   8   9
ATOM      9  C   UNL     1      -3.212   1.223  24.013  0.00  0.00    +0.103 C 
BRANCH   9  10
ATOM     10  C   UNL     1      -3.915   1.514  24.333  0.00  0.00    +0.043 A 
ATOM     11  C   UNL     1      -4.200   2.284  24.256  0.00  0.00    +0.152 A 
ATOM     12  C   UNL     1      -3.833   2.899  23.846  0.00  0.00    +0.075 C 
ATOM     13  O   UNL     1      -4.918   2.332  24.662  0.00  0.00    -0.358 OA
ATOM     14  N   UNL     1      -5.076   1.591  24.989  0.00  0.00    -0.082 NA
ATOM     15  C   UNL     1      -4.456   1.085  24.786  0.00  0.00    +0.098 A 
ATOM     16  C   UNL     1      -4.389   0.291  24.998  0.00  0.00    +0.055 C 
ENDBRANCH   9  10
ENDBRANCH   8   9
TORSDOF 3
ENDMDL
