MODEL 1
REMARK VINA RESULT:     -10.4      0.000      0.000
REMARK  Name = 
REMARK  7 active torsions:
REMARK  status: ('A' for Active; 'I' for Inactive)
REMARK    1  A    between atoms: O_2  and  C_3
REMARK    2  A    between atoms: C_3  and  C_4
REMARK    3  A    between atoms: N_6  and  C_9
REMARK    4  A    between atoms: C_13  and  O_17
REMARK    5  A    between atoms: O_17  and  C_18
REMARK    6  A    between atoms: N_20  and  C_21
REMARK    7  A    between atoms: C_23  and  C_27
REMARK                            x       y       z     vdW  Elec       q    Type
REMARK                         _______ _______ _______ _____ _____    ______ ____
ROOT
ATOM      9  C   UNL     1      -1.349  -0.821  25.164  0.00  0.00    +0.166 C 
ATOM     10  C   UNL     1      -1.237  -0.598  25.950  0.00  0.00    +0.169 C 
ATOM     11  O   UNL     1      -0.860   0.135  25.955  0.00  0.00    -0.348 OA
ATOM     12  C   UNL     1      -0.740   0.366  25.173  0.00  0.00    +0.187 C 
ATOM     13  C   UNL     1      -0.433   0.962  24.691  0.00  0.00    +0.229 C 
ATOM     14  C   UNL     1      -0.546   0.739  23.905  0.00  0.00    +0.188 C 
ATOM     15  O   UNL     1      -0.923   0.005  23.901  0.00  0.00    -0.348 OA
ATOM     16  C   UNL     1      -1.043  -0.225  24.684  0.00  0.00    +0.171 C 
ENDROOT
BRANCH   9   6
ATOM      4  C   UNL     1      -2.627  -2.413  24.536  0.00  0.00    +0.131 A 
ATOM      5  C   UNL     1      -2.517  -1.640  24.803  0.00  0.00    +0.116 A 
ATOM      6  N   UNL     1      -1.707  -1.518  24.904  0.00  0.00    -0.227 N 
ATOM      7  N   UNL     1      -1.317  -2.216  24.700  0.00  0.00    -0.064 NA
ATOM      8  N   UNL     1      -1.885  -2.769  24.472  0.00  0.00    -0.131 NA
BRANCH   4   3
ATOM      3  C   UNL     1      -3.352  -2.767  24.363  0.00  0.00    +0.191 C 
BRANCH   3   2
ATOM      1  C   UNL     1      -4.604  -2.703  23.677  0.00  0.00    +0.175 C 
ATOM      2  O   UNL     1      -3.956  -2.323  24.019  0.00  0.00    -0.345 OA
ENDBRANCH   3   2
ENDBRANCH   4   3
ENDBRANCH   9   6
BRANCH  13  17
ATOM     17  O   UNL     1      -0.076   1.659  24.951  0.00  0.00    -0.432 OA
BRANCH  17  18
ATOM     18  C   UNL     1      -0.463   2.381  24.856  0.00  0.00    +0.425 C 
ATOM     19  O   UNL     1      -0.669   2.642  24.102  0.00  0.00    -0.224 OA
ATOM     20  N   UNL     1      -0.644   2.843  25.515  0.00  0.00    -0.142 NA
BRANCH  20  21
ATOM     21  C   UNL     1      -1.031   3.565  25.420  0.00  0.00    +0.077 A 
ATOM     22  C   UNL     1      -1.828   3.636  25.618  0.00  0.00    +0.021 A 
ATOM     23  C   UNL     1      -2.215   4.357  25.524  0.00  0.00    +0.073 A 
ATOM     24  C   UNL     1      -1.804   5.011  25.230  0.00  0.00    +0.004 A 
ATOM     25  C   UNL     1      -1.006   4.940  25.032  0.00  0.00    +0.001 A 
ATOM     26  C   UNL     1      -0.620   4.218  25.127  0.00  0.00    +0.017 A 
BRANCH  23  27
ATOM     27  C   UNL     1      -3.013   4.428  25.722  0.00  0.00    +0.419 C 
ATOM     28  F   UNL     1      -3.810   4.498  25.920  0.00  0.00    -0.166 F 
ATOM     29  F   UNL     1      -2.804   4.595  26.503  0.00  0.00    -0.166 F 
ATOM     30  F   UNL     1      -3.222   4.261  24.942  0.00  0.00    -0.166 F 
ENDBRANCH  23  27
ENDBRANCH  20  21
ENDBRANCH  17  18
ENDBRANCH  13  17
TORSDOF 7
ENDMDL
MODEL 2
REMARK VINA RESULT:     -10.1      3.087      6.295
REMARK  Name = 
REMARK  7 active torsions:
REMARK  status: ('A' for Active; 'I' for Inactive)
REMARK    1  A    between atoms: O_2  and  C_3
REMARK    2  A    between atoms: C_3  and  C_4
REMARK    3  A    between atoms: N_6  and  C_9
REMARK    4  A    between atoms: C_13  and  O_17
REMARK    5  A    between atoms: O_17  and  C_18
REMARK    6  A    between atoms: N_20  and  C_21
REMARK    7  A    between atoms: C_23  and  C_27
REMARK                            x       y       z     vdW  Elec       q    Type
REMARK                         _______ _______ _______ _____ _____    ______ ____
ROOT
ATOM      9  C   UNL     1      -3.729   3.153  25.144  0.00  0.00    +0.166 C 
ATOM     10  C   UNL     1      -4.529   3.231  24.958  0.00  0.00    +0.169 C 
ATOM     11  O   UNL     1      -4.809   2.491  24.725  0.00  0.00    -0.348 OA
ATOM     12  C   UNL     1      -4.183   1.956  24.767  0.00  0.00    +0.187 C 
ATOM     13  C   UNL     1      -3.969   1.168  24.649  0.00  0.00    +0.229 C 
ATOM     14  C   UNL     1      -3.169   1.090  24.834  0.00  0.00    +0.188 C 
ATOM     15  O   UNL     1      -2.889   1.830  25.068  0.00  0.00    -0.348 OA
ATOM     16  C   UNL     1      -3.516   2.365  25.026  0.00  0.00    +0.171 C 
ENDROOT
BRANCH   9   6
ATOM      4  C   UNL     1      -2.289   4.704  25.428  0.00  0.00    +0.131 A 
ATOM      5  C   UNL     1      -2.655   4.139  24.951  0.00  0.00    +0.116 A 
ATOM      6  N   UNL     1      -3.230   3.757  25.403  0.00  0.00    -0.227 N 
ATOM      7  N   UNL     1      -3.219   4.086  26.160  0.00  0.00    -0.064 NA
ATOM      8  N   UNL     1      -2.637   4.671  26.175  0.00  0.00    -0.131 NA
BRANCH   4   3
ATOM      3  C   UNL     1      -1.680   5.212  25.197  0.00  0.00    +0.191 C 
BRANCH   3   2
ATOM      1  C   UNL     1      -0.386   5.387  24.619  0.00  0.00    +0.175 C 
ATOM      2  O   UNL     1      -0.944   4.904  24.989  0.00  0.00    -0.345 OA
ENDBRANCH   3   2
ENDBRANCH   4   3
ENDBRANCH   9   6
BRANCH  13  17
ATOM     17  O   UNL     1      -4.467   0.564  24.390  0.00  0.00    -0.432 OA
BRANCH  17  18
ATOM     18  C   UNL     1      -4.266  -0.224  24.526  0.00  0.00    +0.425 C 
ATOM     19  O   UNL     1      -4.314  -0.536  25.289  0.00  0.00    -0.224 OA
ATOM     20  N   UNL     1      -4.018  -0.701  23.901  0.00  0.00    -0.142 NA
BRANCH  20  21
ATOM     21  C   UNL     1      -3.816  -1.490  24.038  0.00  0.00    +0.077 A 
ATOM     22  C   UNL     1      -3.048  -1.687  24.263  0.00  0.00    +0.021 A 
ATOM     23  C   UNL     1      -2.847  -2.474  24.400  0.00  0.00    +0.073 A 
ATOM     24  C   UNL     1      -3.415  -3.067  24.310  0.00  0.00    +0.004 A 
ATOM     25  C   UNL     1      -4.184  -2.870  24.085  0.00  0.00    +0.001 A 
ATOM     26  C   UNL     1      -4.384  -2.081  23.948  0.00  0.00    +0.017 A 
BRANCH  23  27
ATOM     27  C   UNL     1      -2.078  -2.671  24.625  0.00  0.00    +0.419 C 
ATOM     28  F   UNL     1      -1.309  -2.867  24.851  0.00  0.00    -0.166 F 
ATOM     29  F   UNL     1      -1.820  -2.552  23.850  0.00  0.00    -0.166 F 
ATOM     30  F   UNL     1      -2.335  -2.789  25.400  0.00  0.00    -0.166 F 
ENDBRANCH  23  27
ENDBRANCH  20  21
ENDBRANCH  17  18
ENDBRANCH  13  17
TORSDOF 7
ENDMDL
MODEL 3
REMARK VINA RESULT:      -9.6      2.952      4.200
REMARK  Name = 
REMARK  7 active torsions:
REMARK  status: ('A' for Active; 'I' for Inactive)
REMARK    1  A    between atoms: O_2  and  C_3
REMARK    2  A    between atoms: C_3  and  C_4
REMARK    3  A    between atoms: N_6  and  C_9
REMARK    4  A    between atoms: C_13  and  O_17
REMARK    5  A    between atoms: O_17  and  C_18
REMARK    6  A    between atoms: N_20  and  C_21
REMARK    7  A    between atoms: C_23  and  C_27
REMARK                            x       y       z     vdW  Elec       q    Type
REMARK                         _______ _______ _______ _____ _____    ______ ____
ROOT
ATOM      9  C   UNL     1       0.579  -0.078  23.469  0.00  0.00    +0.166 C 
ATOM     10  C   UNL     1       0.237  -0.796  23.688  0.00  0.00    +0.169 C 
ATOM     11  O   UNL     1      -0.434  -0.631  24.137  0.00  0.00    -0.348 OA
ATOM     12  C   UNL     1      -0.508   0.187  24.197  0.00  0.00    +0.187 C 
ATOM     13  C   UNL     1      -0.968   0.796  24.511  0.00  0.00    +0.229 C 
ATOM     14  C   UNL     1      -0.626   1.514  24.292  0.00  0.00    +0.188 C 
ATOM     15  O   UNL     1       0.045   1.350  23.842  0.00  0.00    -0.348 OA
ATOM     16  C   UNL     1       0.118   0.530  23.783  0.00  0.00    +0.171 C 
ENDROOT
BRANCH   9   6
ATOM      4  C   UNL     1       2.504   0.329  22.641  0.00  0.00    +0.131 A 
ATOM      5  C   UNL     1       1.974   0.344  23.272  0.00  0.00    +0.116 A 
ATOM      6  N   UNL     1       1.262   0.016  23.015  0.00  0.00    -0.227 N 
ATOM      7  N   UNL     1       1.352  -0.201  22.224  0.00  0.00    -0.064 NA
ATOM      8  N   UNL     1       2.120  -0.008  21.993  0.00  0.00    -0.131 NA
BRANCH   4   3
ATOM      3  C   UNL     1       3.283   0.603  22.654  0.00  0.00    +0.191 C 
BRANCH   3   2
ATOM      1  C   UNL     1       4.657   0.409  22.994  0.00  0.00    +0.175 C 
ATOM      2  O   UNL     1       3.881   0.128  22.965  0.00  0.00    -0.345 OA
ENDBRANCH   3   2
ENDBRANCH   4   3
ENDBRANCH   9   6
BRANCH  13  17
ATOM     17  O   UNL     1      -1.651   0.702  24.965  0.00  0.00    -0.432 OA
BRANCH  17  18
ATOM     18  C   UNL     1      -2.264   1.251  24.906  0.00  0.00    +0.425 C 
ATOM     19  O   UNL     1      -2.151   2.025  25.167  0.00  0.00    -0.224 OA
ATOM     20  N   UNL     1      -2.990   1.026  24.586  0.00  0.00    -0.142 NA
BRANCH  20  21
ATOM     21  C   UNL     1      -3.604   1.574  24.528  0.00  0.00    +0.077 A 
ATOM     22  C   UNL     1      -4.249   1.529  25.039  0.00  0.00    +0.021 A 
ATOM     23  C   UNL     1      -4.861   2.077  24.981  0.00  0.00    +0.073 A 
ATOM     24  C   UNL     1      -4.830   2.672  24.409  0.00  0.00    +0.004 A 
ATOM     25  C   UNL     1      -4.185   2.718  23.897  0.00  0.00    +0.001 A 
ATOM     26  C   UNL     1      -3.572   2.169  23.956  0.00  0.00    +0.017 A 
BRANCH  23  27
ATOM     27  C   UNL     1      -5.507   2.031  25.493  0.00  0.00    +0.419 C 
ATOM     28  F   UNL     1      -6.152   1.985  26.005  0.00  0.00    -0.166 F 
ATOM     29  F   UNL     1      -5.866   1.482  24.992  0.00  0.00    -0.166 F 
ATOM     30  F   UNL     1      -5.149   2.580  25.993  0.00  0.00    -0.166 F 
ENDBRANCH  23  27
ENDBRANCH  20  21
ENDBRANCH  17  18
ENDBRANCH  13  17
TORSDOF 7
ENDMDL
MODEL 4
REMARK VINA RESULT:      -9.4      2.309      2.754
REMARK  Name = 
REMARK  7 active torsions:
REMARK  status: ('A' for Active; 'I' for Inactive)
REMARK    1  A    between atoms: O_2  and  C_3
REMARK    2  A    between atoms: C_3  and  C_4
REMARK    3  A    between atoms: N_6  and  C_9
REMARK    4  A    between atoms: C_13  and  O_17
REMARK    5  A    between atoms: O_17  and  C_18
REMARK    6  A    between atoms: N_20  and  C_21
REMARK    7  A    between atoms: C_23  and  C_27
REMARK                            x       y       z     vdW  Elec       q    Type
REMARK                         _______ _______ _______ _____ _____    ______ ____
ROOT
ATOM      9  C   UNL     1      -4.220  -0.133  24.708  0.00  0.00    +0.166 C 
ATOM     10  C   UNL     1      -4.664   0.096  25.365  0.00  0.00    +0.169 C 
ATOM     11  O   UNL     1      -4.701   0.920  25.371  0.00  0.00    -0.348 OA
ATOM     12  C   UNL     1      -4.280   1.200  24.720  0.00  0.00    +0.187 C 
ATOM     13  C   UNL     1      -4.042   1.882  24.320  0.00  0.00    +0.229 C 
ATOM     14  C   UNL     1      -3.598   1.652  23.664  0.00  0.00    +0.188 C 
ATOM     15  O   UNL     1      -3.562   0.828  23.658  0.00  0.00    -0.348 OA
ATOM     16  C   UNL     1      -3.983   0.549  24.310  0.00  0.00    +0.171 C 
ENDROOT
BRANCH   9   6
ATOM      4  C   UNL     1      -3.418  -2.082  24.362  0.00  0.00    +0.131 A 
ATOM      5  C   UNL     1      -3.366  -1.331  24.700  0.00  0.00    +0.116 A 
ATOM      6  N   UNL     1      -4.044  -0.909  24.489  0.00  0.00    -0.227 N 
ATOM      7  N   UNL     1      -4.515  -1.399  24.022  0.00  0.00    -0.064 NA
ATOM      8  N   UNL     1      -4.128  -2.124  23.943  0.00  0.00    -0.131 NA
BRANCH   4   3
ATOM      3  C   UNL     1      -2.858  -2.684  24.431  0.00  0.00    +0.191 C 
BRANCH   3   2
ATOM      1  C   UNL     1      -1.460  -2.966  24.508  0.00  0.00    +0.175 C 
ATOM      2  O   UNL     1      -2.090  -2.566  24.155  0.00  0.00    -0.345 OA
ENDBRANCH   3   2
ENDBRANCH   4   3
ENDBRANCH   9   6
BRANCH  13  17
ATOM     17  O   UNL     1      -4.218   2.658  24.539  0.00  0.00    -0.432 OA
BRANCH  17  18
ATOM     18  C   UNL     1      -3.625   3.232  24.537  0.00  0.00    +0.425 C 
ATOM     19  O   UNL     1      -3.439   3.629  23.838  0.00  0.00    -0.224 OA
ATOM     20  N   UNL     1      -3.219   3.408  25.232  0.00  0.00    -0.142 NA
BRANCH  20  21
ATOM     21  C   UNL     1      -2.627   3.982  25.230  0.00  0.00    +0.077 A 
ATOM     22  C   UNL     1      -1.836   3.760  25.156  0.00  0.00    +0.021 A 
ATOM     23  C   UNL     1      -1.244   4.333  25.154  0.00  0.00    +0.073 A 
ATOM     24  C   UNL     1      -1.442   5.131  25.226  0.00  0.00    +0.004 A 
ATOM     25  C   UNL     1      -2.233   5.355  25.300  0.00  0.00    +0.001 A 
ATOM     26  C   UNL     1      -2.825   4.780  25.302  0.00  0.00    +0.017 A 
BRANCH  23  27
ATOM     27  C   UNL     1      -0.453   4.109  25.080  0.00  0.00    +0.419 C 
ATOM     28  F   UNL     1       0.337   3.886  25.007  0.00  0.00    -0.166 F 
ATOM     29  F   UNL     1      -0.497   3.715  25.804  0.00  0.00    -0.166 F 
ATOM     30  F   UNL     1      -0.409   4.503  24.357  0.00  0.00    -0.166 F 
ENDBRANCH  23  27
ENDBRANCH  20  21
ENDBRANCH  17  18
ENDBRANCH  13  17
TORSDOF 7
ENDMDL
MODEL 5
REMARK VINA RESULT:      -9.3      3.533      5.675
REMARK  Name = 
REMARK  7 active torsions:
REMARK  status: ('A' for Active; 'I' for Inactive)
REMARK    1  A    between atoms: O_2  and  C_3
REMARK    2  A    between atoms: C_3  and  C_4
REMARK    3  A    between atoms: N_6  and  C_9
REMARK    4  A    between atoms: C_13  and  O_17
REMARK    5  A    between atoms: O_17  and  C_18
REMARK    6  A    between atoms: N_20  and  C_21
REMARK    7  A    between atoms: C_23  and  C_27
REMARK                            x       y       z     vdW  Elec       q    Type
REMARK                         _______ _______ _______ _____ _____    ______ ____
ROOT
ATOM      9  C   UNL     1       1.473   0.794  23.329  0.00  0.00    +0.166 C 
ATOM     10  C   UNL     1       1.250   1.545  23.586  0.00  0.00    +0.169 C 
ATOM     11  O   UNL     1       0.503   1.484  23.930  0.00  0.00    -0.348 OA
ATOM     12  C   UNL     1       0.264   0.696  23.886  0.00  0.00    +0.187 C 
ATOM     13  C   UNL     1      -0.344   0.170  24.071  0.00  0.00    +0.229 C 
ATOM     14  C   UNL     1      -0.120  -0.581  23.814  0.00  0.00    +0.188 C 
ATOM     15  O   UNL     1       0.627  -0.520  23.469  0.00  0.00    -0.348 OA
ATOM     16  C   UNL     1       0.865   0.269  23.514  0.00  0.00    +0.171 C 
ENDROOT
BRANCH   9   6
ATOM      4  C   UNL     1       3.484   0.486  22.678  0.00  0.00    +0.131 A 
ATOM      5  C   UNL     1       2.940   0.780  23.225  0.00  0.00    +0.116 A 
ATOM      6  N   UNL     1       2.182   0.602  22.952  0.00  0.00    -0.227 N 
ATOM      7  N   UNL     1       2.256   0.197  22.237  0.00  0.00    -0.064 NA
ATOM      8  N   UNL     1       3.061   0.125  22.067  0.00  0.00    -0.131 NA
BRANCH   4   3
ATOM      3  C   UNL     1       4.305   0.542  22.732  0.00  0.00    +0.191 C 
BRANCH   3   2
ATOM      1  C   UNL     1       5.528   0.146  23.356  0.00  0.00    +0.175 C 
ATOM      2  O   UNL     1       4.721   0.030  23.228  0.00  0.00    -0.345 OA
ENDBRANCH   3   2
ENDBRANCH   4   3
ENDBRANCH   9   6
BRANCH  13  17
ATOM     17  O   UNL     1      -1.053   0.363  24.448  0.00  0.00    -0.432 OA
BRANCH  17  18
ATOM     18  C   UNL     1      -1.558  -0.236  24.706  0.00  0.00    +0.425 C 
ATOM     19  O   UNL     1      -1.252  -0.891  25.102  0.00  0.00    -0.224 OA
ATOM     20  N   UNL     1      -2.369  -0.179  24.569  0.00  0.00    -0.142 NA
BRANCH  20  21
ATOM     21  C   UNL     1      -2.875  -0.777  24.828  0.00  0.00    +0.077 A 
ATOM     22  C   UNL     1      -3.269  -1.250  24.280  0.00  0.00    +0.021 A 
ATOM     23  C   UNL     1      -3.774  -1.848  24.538  0.00  0.00    +0.073 A 
ATOM     24  C   UNL     1      -3.887  -1.973  25.346  0.00  0.00    +0.004 A 
ATOM     25  C   UNL     1      -3.492  -1.500  25.895  0.00  0.00    +0.001 A 
ATOM     26  C   UNL     1      -2.987  -0.902  25.636  0.00  0.00    +0.017 A 
BRANCH  23  27
ATOM     27  C   UNL     1      -4.169  -2.321  23.989  0.00  0.00    +0.419 C 
ATOM     28  F   UNL     1      -4.562  -2.795  23.440  0.00  0.00    -0.166 F 
ATOM     29  F   UNL     1      -3.627  -2.929  24.124  0.00  0.00    -0.166 F 
ATOM     30  F   UNL     1      -4.710  -1.714  23.853  0.00  0.00    -0.166 F 
ENDBRANCH  23  27
ENDBRANCH  20  21
ENDBRANCH  17  18
ENDBRANCH  13  17
TORSDOF 7
ENDMDL
MODEL 6
REMARK VINA RESULT:      -9.3      2.234      5.585
REMARK  Name = 
REMARK  7 active torsions:
REMARK  status: ('A' for Active; 'I' for Inactive)
REMARK    1  A    between atoms: O_2  and  C_3
REMARK    2  A    between atoms: C_3  and  C_4
REMARK    3  A    between atoms: N_6  and  C_9
REMARK    4  A    between atoms: C_13  and  O_17
REMARK    5  A    between atoms: O_17  and  C_18
REMARK    6  A    between atoms: N_20  and  C_21
REMARK    7  A    between atoms: C_23  and  C_27
REMARK                            x       y       z     vdW  Elec       q    Type
REMARK                         _______ _______ _______ _____ _____    ______ ____
ROOT
ATOM      9  C   UNL     1      -0.645   2.315  24.493  0.00  0.00    +0.166 C 
ATOM     10  C   UNL     1      -0.438   2.030  23.747  0.00  0.00    +0.169 C 
ATOM     11  O   UNL     1      -0.398   1.208  23.791  0.00  0.00    -0.348 OA
ATOM     12  C   UNL     1      -0.579   0.984  24.563  0.00  0.00    +0.187 C 
ATOM     13  C   UNL     1      -0.666   0.338  25.069  0.00  0.00    +0.229 C 
ATOM     14  C   UNL     1      -0.873   0.622  25.815  0.00  0.00    +0.188 C 
ATOM     15  O   UNL     1      -0.913   1.445  25.770  0.00  0.00    -0.348 OA
ATOM     16  C   UNL     1      -0.732   1.668  24.997  0.00  0.00    +0.171 C 
ENDROOT
BRANCH   9   6
ATOM      4  C   UNL     1      -1.305   4.257  25.085  0.00  0.00    +0.131 A 
ATOM      5  C   UNL     1      -1.455   3.460  24.934  0.00  0.00    +0.116 A 
ATOM      6  N   UNL     1      -0.747   3.108  24.698  0.00  0.00    -0.227 N 
ATOM      7  N   UNL     1      -0.159   3.686  24.703  0.00  0.00    -0.064 NA
ATOM      8  N   UNL     1      -0.504   4.397  24.943  0.00  0.00    -0.131 NA
BRANCH   4   3
ATOM      3  C   UNL     1      -1.858   4.817  25.334  0.00  0.00    +0.191 C 
BRANCH   3   2
ATOM      1  C   UNL     1      -3.134   5.014  25.946  0.00  0.00    +0.175 C 
ATOM      2  O   UNL     1      -2.410   4.619  25.914  0.00  0.00    -0.345 OA
ENDBRANCH   3   2
ENDBRANCH   4   3
ENDBRANCH   9   6
BRANCH  13  17
ATOM     17  O   UNL     1      -0.564  -0.455  24.863  0.00  0.00    -0.432 OA
BRANCH  17  18
ATOM     18  C   UNL     1      -1.192  -0.986  24.940  0.00  0.00    +0.425 C 
ATOM     19  O   UNL     1      -1.453  -1.209  25.689  0.00  0.00    -0.224 OA
ATOM     20  N   UNL     1      -1.557  -1.292  24.267  0.00  0.00    -0.142 NA
BRANCH  20  21
ATOM     21  C   UNL     1      -2.185  -1.822  24.344  0.00  0.00    +0.077 A 
ATOM     22  C   UNL     1      -2.954  -1.580  24.170  0.00  0.00    +0.021 A 
ATOM     23  C   UNL     1      -3.581  -2.109  24.246  0.00  0.00    +0.073 A 
ATOM     24  C   UNL     1      -3.439  -2.883  24.496  0.00  0.00    +0.004 A 
ATOM     25  C   UNL     1      -2.670  -3.126  24.670  0.00  0.00    +0.001 A 
ATOM     26  C   UNL     1      -2.043  -2.595  24.593  0.00  0.00    +0.017 A 
BRANCH  23  27
ATOM     27  C   UNL     1      -4.350  -1.866  24.073  0.00  0.00    +0.419 C 
ATOM     28  F   UNL     1      -5.119  -1.624  23.899  0.00  0.00    -0.166 F 
ATOM     29  F   UNL     1      -4.323  -2.288  23.364  0.00  0.00    -0.166 F 
ATOM     30  F   UNL     1      -4.377  -1.445  24.781  0.00  0.00    -0.166 F 
ENDBRANCH  23  27
ENDBRANCH  20  21
ENDBRANCH  17  18
ENDBRANCH  13  17
TORSDOF 7
ENDMDL
