MODEL 1
REMARK VINA RESULT:     -11.1      0.000      0.000
REMARK  Name = 
REMARK  5 active torsions:
REMARK  status: ('A' for Active; 'I' for Inactive)
REMARK    1  A    between atoms: O_2  and  C_3
REMARK    2  A    between atoms: C_6  and  C_9
REMARK    3  A    between atoms: C_12  and  C_14
REMARK    4  A    between atoms: N_18  and  C_19
REMARK    5  A    between atoms: C_19  and  C_20
REMARK                            x       y       z     vdW  Elec       q    Type
REMARK                         _______ _______ _______ _____ _____    ______ ____
ROOT
ATOM      9  C   UNL     1      -4.179   0.332  24.945  0.00  0.00    +0.205 A 
ATOM     10  N   UNL     1      -4.632   0.689  25.535  0.00  0.00    -0.056 NA
ATOM     11  O   UNL     1      -4.677   1.496  25.368  0.00  0.00    -0.336 OA
ATOM     12  C   UNL     1      -4.252   1.638  24.676  0.00  0.00    +0.251 A 
ATOM     13  N   UNL     1      -3.944   0.918  24.414  0.00  0.00    -0.190 NA
ENDROOT
BRANCH   9   6
ATOM      3  C   UNL     1      -3.622  -2.075  24.795  0.00  0.00    +0.225 A 
ATOM      4  N   UNL     1      -3.408  -1.642  25.464  0.00  0.00    -0.210 NA
ATOM      5  C   UNL     1      -3.593  -0.840  25.514  0.00  0.00    +0.105 A 
ATOM      6  C   UNL     1      -3.993  -0.470  24.895  0.00  0.00    +0.058 A 
ATOM      7  C   UNL     1      -4.208  -0.902  24.225  0.00  0.00    +0.010 A 
ATOM      8  C   UNL     1      -4.022  -1.704  24.175  0.00  0.00    +0.058 A 
BRANCH   3   2
ATOM      1  C   UNL     1      -2.700  -3.113  24.458  0.00  0.00    +0.254 C 
ATOM      2  O   UNL     1      -3.437  -2.877  24.745  0.00  0.00    -0.456 OA
ENDBRANCH   3   2
ENDBRANCH   9   6
BRANCH  12  14
ATOM     14  C   UNL     1      -4.152   2.370  24.309  0.00  0.00    +0.138 C 
ATOM     15  C   UNL     1      -4.630   2.683  23.714  0.00  0.00    +0.027 C 
ATOM     16  C   UNL     1      -4.331   3.424  23.509  0.00  0.00    +0.019 C 
ATOM     17  C   UNL     1      -3.666   3.568  23.978  0.00  0.00    +0.073 C 
ATOM     18  N   UNL     1      -3.556   2.916  24.472  0.00  0.00    -0.263 NA
BRANCH  18  19
ATOM     19  C   UNL     1      -2.955   2.828  25.030  0.00  0.00    +0.099 C 
BRANCH  19  20
ATOM     20  C   UNL     1      -2.325   3.359  25.047  0.00  0.00    -0.006 A 
ATOM     21  C   UNL     1      -2.402   4.078  25.444  0.00  0.00    -0.002 A 
ATOM     22  C   UNL     1      -1.772   4.610  25.461  0.00  0.00    +0.011 A 
ATOM     23  C   UNL     1      -1.064   4.423  25.080  0.00  0.00    +0.058 A 
ATOM     24 CL   UNL     1      -0.434   4.956  25.096  0.00  0.00    -0.082 Cl
ATOM     25  C   UNL     1      -0.988   3.705  24.682  0.00  0.00    +0.011 A 
ATOM     26  C   UNL     1      -1.617   3.173  24.665  0.00  0.00    -0.002 A 
ENDBRANCH  19  20
ENDBRANCH  18  19
ENDBRANCH  12  14
TORSDOF 5
ENDMDL
MODEL 2
REMARK VINA RESULT:     -10.9      2.198      5.141
REMARK  Name = 
REMARK  5 active torsions:
REMARK  status: ('A' for Active; 'I' for Inactive)
REMARK    1  A    between atoms: O_2  and  C_3
REMARK    2  A    between atoms: C_6  and  C_9
REMARK    3  A    between atoms: C_12  and  C_14
REMARK    4  A    between atoms: N_18  and  C_19
REMARK    5  A    between atoms: C_19  and  C_20
REMARK                            x       y       z     vdW  Elec       q    Type
REMARK                         _______ _______ _______ _____ _____    ______ ____
ROOT
ATOM      9  C   UNL     1      -3.245   3.076  24.501  0.00  0.00    +0.205 A 
ATOM     10  N   UNL     1      -3.664   3.078  23.790  0.00  0.00    -0.056 NA
ATOM     11  O   UNL     1      -4.270   2.521  23.849  0.00  0.00    -0.336 OA
ATOM     12  C   UNL     1      -4.227   2.175  24.596  0.00  0.00    +0.251 A 
ATOM     13  N   UNL     1      -3.593   2.518  25.000  0.00  0.00    -0.190 NA
ENDROOT
BRANCH   9   6
ATOM      3  C   UNL     1      -1.291   4.493  25.044  0.00  0.00    +0.225 A 
ATOM      4  N   UNL     1      -1.192   3.807  24.597  0.00  0.00    -0.210 NA
ATOM      5  C   UNL     1      -1.843   3.335  24.416  0.00  0.00    +0.105 A 
ATOM      6  C   UNL     1      -2.594   3.548  24.682  0.00  0.00    +0.058 A 
ATOM      7  C   UNL     1      -2.694   4.234  25.130  0.00  0.00    +0.010 A 
ATOM      8  C   UNL     1      -2.042   4.707  25.311  0.00  0.00    +0.058 A 
BRANCH   3   2
ATOM      1  C   UNL     1      -0.329   5.476  24.655  0.00  0.00    +0.254 C 
ATOM      2  O   UNL     1      -0.639   4.966  25.225  0.00  0.00    -0.456 OA
ENDBRANCH   3   2
ENDBRANCH   9   6
BRANCH  12  14
ATOM     14  C   UNL     1      -4.728   1.590  24.890  0.00  0.00    +0.138 C 
ATOM     15  C   UNL     1      -5.437   1.716  25.293  0.00  0.00    +0.027 C 
ATOM     16  C   UNL     1      -5.756   0.980  25.484  0.00  0.00    +0.019 C 
ATOM     17  C   UNL     1      -5.244   0.398  25.199  0.00  0.00    +0.073 C 
ATOM     18  N   UNL     1      -4.609   0.776  24.832  0.00  0.00    -0.263 NA
BRANCH  18  19
ATOM     19  C   UNL     1      -3.968   0.404  24.471  0.00  0.00    +0.099 C 
BRANCH  19  20
ATOM     20  C   UNL     1      -3.900  -0.418  24.494  0.00  0.00    -0.006 A 
ATOM     21  C   UNL     1      -3.515  -0.783  25.125  0.00  0.00    -0.002 A 
ATOM     22  C   UNL     1      -3.448  -1.605  25.148  0.00  0.00    +0.011 A 
ATOM     23  C   UNL     1      -3.766  -2.062  24.539  0.00  0.00    +0.058 A 
ATOM     24 CL   UNL     1      -3.699  -2.884  24.562  0.00  0.00    -0.082 Cl
ATOM     25  C   UNL     1      -4.151  -1.697  23.908  0.00  0.00    +0.011 A 
ATOM     26  C   UNL     1      -4.219  -0.875  23.885  0.00  0.00    -0.002 A 
ENDBRANCH  19  20
ENDBRANCH  18  19
ENDBRANCH  12  14
TORSDOF 5
ENDMDL
MODEL 3
REMARK VINA RESULT:     -10.5      2.825      5.649
REMARK  Name = 
REMARK  5 active torsions:
REMARK  status: ('A' for Active; 'I' for Inactive)
REMARK    1  A    between atoms: O_2  and  C_3
REMARK    2  A    between atoms: C_6  and  C_9
REMARK    3  A    between atoms: C_12  and  C_14
REMARK    4  A    between atoms: N_18  and  C_19
REMARK    5  A    between atoms: C_19  and  C_20
REMARK                            x       y       z     vdW  Elec       q    Type
REMARK                         _______ _______ _______ _____ _____    ______ ____
ROOT
ATOM      9  C   UNL     1      -1.026   1.978  25.472  0.00  0.00    +0.205 A 
ATOM     10  N   UNL     1      -0.819   1.588  26.170  0.00  0.00    -0.056 NA
ATOM     11  O   UNL     1      -0.707   0.790  25.992  0.00  0.00    -0.336 OA
ATOM     12  C   UNL     1      -0.845   0.687  25.185  0.00  0.00    +0.251 A 
ATOM     13  N   UNL     1      -1.043   1.421  24.864  0.00  0.00    -0.190 NA
ENDROOT
BRANCH   9   6
ATOM      3  C   UNL     1      -1.513   4.394  25.247  0.00  0.00    +0.225 A 
ATOM      4  N   UNL     1      -0.778   4.098  25.019  0.00  0.00    -0.210 NA
ATOM      5  C   UNL     1      -0.616   3.293  25.094  0.00  0.00    +0.105 A 
ATOM      6  C   UNL     1      -1.188   2.784  25.397  0.00  0.00    +0.058 A 
ATOM      7  C   UNL     1      -1.924   3.079  25.626  0.00  0.00    +0.010 A 
ATOM      8  C   UNL     1      -2.087   3.884  25.551  0.00  0.00    +0.058 A 
BRANCH   3   2
ATOM      1  C   UNL     1      -1.108   5.706  24.853  0.00  0.00    +0.254 C 
ATOM      2  O   UNL     1      -1.675   5.200  25.172  0.00  0.00    -0.456 OA
ENDBRANCH   3   2
ENDBRANCH   9   6
BRANCH  12  14
ATOM     14  C   UNL     1      -0.796  -0.025  24.771  0.00  0.00    +0.138 C 
ATOM     15  C   UNL     1      -0.138  -0.298  24.354  0.00  0.00    +0.027 C 
ATOM     16  C   UNL     1      -0.329  -1.031  24.027  0.00  0.00    +0.019 C 
ATOM     17  C   UNL     1      -1.106  -1.210  24.241  0.00  0.00    +0.073 C 
ATOM     18  N   UNL     1      -1.394  -0.588  24.701  0.00  0.00    -0.263 NA
BRANCH  18  19
ATOM     19  C   UNL     1      -2.148  -0.539  25.032  0.00  0.00    +0.099 C 
BRANCH  19  20
ATOM     20  C   UNL     1      -2.753  -1.026  24.756  0.00  0.00    -0.006 A 
ATOM     21  C   UNL     1      -2.835  -1.791  25.054  0.00  0.00    -0.002 A 
ATOM     22  C   UNL     1      -3.441  -2.279  24.777  0.00  0.00    +0.011 A 
ATOM     23  C   UNL     1      -3.963  -2.001  24.202  0.00  0.00    +0.058 A 
ATOM     24 CL   UNL     1      -4.569  -2.489  23.926  0.00  0.00    -0.082 Cl
ATOM     25  C   UNL     1      -3.881  -1.237  23.904  0.00  0.00    +0.011 A 
ATOM     26  C   UNL     1      -3.276  -0.749  24.181  0.00  0.00    -0.002 A 
ENDBRANCH  19  20
ENDBRANCH  18  19
ENDBRANCH  12  14
TORSDOF 5
ENDMDL
MODEL 4
REMARK VINA RESULT:     -10.1      1.924      2.661
REMARK  Name = 
REMARK  5 active torsions:
REMARK  status: ('A' for Active; 'I' for Inactive)
REMARK    1  A    between atoms: O_2  and  C_3
REMARK    2  A    between atoms: C_6  and  C_9
REMARK    3  A    between atoms: C_12  and  C_14
REMARK    4  A    between atoms: N_18  and  C_19
REMARK    5  A    between atoms: C_19  and  C_20
REMARK                            x       y       z     vdW  Elec       q    Type
REMARK                         _______ _______ _______ _____ _____    ______ ____
ROOT
ATOM      9  C   UNL     1      -1.666  -0.604  25.165  0.00  0.00    +0.205 A 
ATOM     10  N   UNL     1      -1.294  -0.481  25.891  0.00  0.00    -0.056 NA
ATOM     11  O   UNL     1      -0.772   0.153  25.805  0.00  0.00    -0.336 OA
ATOM     12  C   UNL     1      -0.822   0.421  25.026  0.00  0.00    +0.251 A 
ATOM     13  N   UNL     1      -1.375  -0.047  24.631  0.00  0.00    -0.190 NA
ENDROOT
BRANCH   9   6
ATOM      3  C   UNL     1      -3.361  -2.340  24.677  0.00  0.00    +0.225 A 
ATOM      4  N   UNL     1      -2.570  -2.468  24.480  0.00  0.00    -0.210 NA
ATOM      5  C   UNL     1      -2.005  -1.889  24.643  0.00  0.00    +0.105 A 
ATOM      6  C   UNL     1      -2.231  -1.183  25.002  0.00  0.00    +0.058 A 
ATOM      7  C   UNL     1      -3.022  -1.054  25.199  0.00  0.00    +0.010 A 
ATOM      8  C   UNL     1      -3.587  -1.632  25.036  0.00  0.00    +0.058 A 
BRANCH   3   2
ATOM      1  C   UNL     1      -4.342  -2.900  23.801  0.00  0.00    +0.254 C 
ATOM      2  O   UNL     1      -3.926  -2.919  24.514  0.00  0.00    -0.456 OA
ENDBRANCH   3   2
ENDBRANCH   9   6
BRANCH  12  14
ATOM     14  C   UNL     1      -0.395   1.047  24.700  0.00  0.00    +0.138 C 
ATOM     15  C   UNL     1       0.229   0.981  24.164  0.00  0.00    +0.027 C 
ATOM     16  C   UNL     1       0.493   1.741  23.985  0.00  0.00    +0.019 C 
ATOM     17  C   UNL     1       0.033   2.278  24.410  0.00  0.00    +0.073 C 
ATOM     18  N   UNL     1      -0.516   1.848  24.852  0.00  0.00    -0.263 NA
BRANCH  18  19
ATOM     19  C   UNL     1      -1.086   2.165  25.357  0.00  0.00    +0.099 C 
BRANCH  19  20
ATOM     20  C   UNL     1      -1.281   2.965  25.310  0.00  0.00    -0.006 A 
ATOM     21  C   UNL     1      -0.752   3.536  25.583  0.00  0.00    -0.002 A 
ATOM     22  C   UNL     1      -0.946   4.337  25.535  0.00  0.00    +0.011 A 
ATOM     23  C   UNL     1      -1.671   4.566  25.214  0.00  0.00    +0.058 A 
ATOM     24 CL   UNL     1      -1.866   5.366  25.166  0.00  0.00    -0.082 Cl
ATOM     25  C   UNL     1      -2.200   3.995  24.941  0.00  0.00    +0.011 A 
ATOM     26  C   UNL     1      -2.006   3.195  24.989  0.00  0.00    -0.002 A 
ENDBRANCH  19  20
ENDBRANCH  18  19
ENDBRANCH  12  14
TORSDOF 5
ENDMDL
MODEL 5
REMARK VINA RESULT:      -9.7      2.571      5.209
REMARK  Name = 
REMARK  5 active torsions:
REMARK  status: ('A' for Active; 'I' for Inactive)
REMARK    1  A    between atoms: O_2  and  C_3
REMARK    2  A    between atoms: C_6  and  C_9
REMARK    3  A    between atoms: C_12  and  C_14
REMARK    4  A    between atoms: N_18  and  C_19
REMARK    5  A    between atoms: C_19  and  C_20
REMARK                            x       y       z     vdW  Elec       q    Type
REMARK                         _______ _______ _______ _____ _____    ______ ____
ROOT
ATOM      9  C   UNL     1      -3.656   2.262  24.456  0.00  0.00    +0.205 A 
ATOM     10  N   UNL     1      -3.439   2.272  23.659  0.00  0.00    -0.056 NA
ATOM     11  O   UNL     1      -2.873   1.684  23.541  0.00  0.00    -0.336 OA
ATOM     12  C   UNL     1      -2.740   1.310  24.264  0.00  0.00    +0.251 A 
ATOM     13  N   UNL     1      -3.224   1.667  24.829  0.00  0.00    -0.190 NA
ENDROOT
BRANCH   9   6
ATOM      3  C   UNL     1      -5.312   3.753  25.533  0.00  0.00    +0.225 A 
ATOM      4  N   UNL     1      -4.544   4.020  25.394  0.00  0.00    -0.210 NA
ATOM      5  C   UNL     1      -3.992   3.523  25.035  0.00  0.00    +0.105 A 
ATOM      6  C   UNL     1      -4.208   2.759  24.815  0.00  0.00    +0.058 A 
ATOM      7  C   UNL     1      -4.976   2.490  24.953  0.00  0.00    +0.010 A 
ATOM      8  C   UNL     1      -5.528   2.987  25.312  0.00  0.00    +0.058 A 
BRANCH   3   2
ATOM      1  C   UNL     1      -6.115   4.934  25.505  0.00  0.00    +0.254 C 
ATOM      2  O   UNL     1      -5.864   4.250  25.892  0.00  0.00    -0.456 OA
ENDBRANCH   3   2
ENDBRANCH   9   6
BRANCH  12  14
ATOM     14  C   UNL     1      -2.215   0.688  24.399  0.00  0.00    +0.138 C 
ATOM     15  C   UNL     1      -1.393   0.725  24.338  0.00  0.00    +0.027 C 
ATOM     16  C   UNL     1      -1.089  -0.020  24.520  0.00  0.00    +0.019 C 
ATOM     17  C   UNL     1      -1.724  -0.518  24.693  0.00  0.00    +0.073 C 
ATOM     18  N   UNL     1      -2.420  -0.081  24.618  0.00  0.00    -0.263 NA
BRANCH  18  19
ATOM     19  C   UNL     1      -3.185  -0.363  24.741  0.00  0.00    +0.099 C 
BRANCH  19  20
ATOM     20  C   UNL     1      -3.347  -1.167  24.659  0.00  0.00    -0.006 A 
ATOM     21  C   UNL     1      -3.174  -1.688  25.275  0.00  0.00    -0.002 A 
ATOM     22  C   UNL     1      -3.336  -2.493  25.193  0.00  0.00    +0.011 A 
ATOM     23  C   UNL     1      -3.671  -2.776  24.494  0.00  0.00    +0.058 A 
ATOM     24 CL   UNL     1      -3.833  -3.582  24.412  0.00  0.00    -0.082 Cl
ATOM     25  C   UNL     1      -3.843  -2.256  23.879  0.00  0.00    +0.011 A 
ATOM     26  C   UNL     1      -3.681  -1.452  23.961  0.00  0.00    -0.002 A 
ENDBRANCH  19  20
ENDBRANCH  18  19
ENDBRANCH  12  14
TORSDOF 5
ENDMDL
MODEL 6
REMARK VINA RESULT:      -9.5      1.951      2.741
REMARK  Name = 
REMARK  5 active torsions:
REMARK  status: ('A' for Active; 'I' for Inactive)
REMARK    1  A    between atoms: O_2  and  C_3
REMARK    2  A    between atoms: C_6  and  C_9
REMARK    3  A    between atoms: C_12  and  C_14
REMARK    4  A    between atoms: N_18  and  C_19
REMARK    5  A    between atoms: C_19  and  C_20
REMARK                            x       y       z     vdW  Elec       q    Type
REMARK                         _______ _______ _______ _____ _____    ______ ____
ROOT
ATOM      9  C   UNL     1      -1.692   0.180  24.535  0.00  0.00    +0.205 A 
ATOM     10  N   UNL     1      -1.213   0.506  23.947  0.00  0.00    -0.056 NA
ATOM     11  O   UNL     1      -1.112   1.307  24.116  0.00  0.00    -0.336 OA
ATOM     12  C   UNL     1      -1.528   1.477  24.808  0.00  0.00    +0.251 A 
ATOM     13  N   UNL     1      -1.887   0.780  25.066  0.00  0.00    -0.190 NA
ENDROOT
BRANCH   9   6
ATOM      3  C   UNL     1      -2.418  -2.182  24.677  0.00  0.00    +0.225 A 
ATOM      4  N   UNL     1      -1.615  -1.995  24.696  0.00  0.00    -0.210 NA
ATOM      5  C   UNL     1      -1.373  -1.207  24.649  0.00  0.00    +0.105 A 
ATOM      6  C   UNL     1      -1.934  -0.607  24.582  0.00  0.00    +0.058 A 
ATOM      7  C   UNL     1      -2.738  -0.793  24.563  0.00  0.00    +0.010 A 
ATOM      8  C   UNL     1      -2.980  -1.581  24.611  0.00  0.00    +0.058 A 
BRANCH   3   2
ATOM      1  C   UNL     1      -3.429  -3.178  24.510  0.00  0.00    +0.254 C 
ATOM      2  O   UNL     1      -2.659  -2.969  24.724  0.00  0.00    -0.456 OA
ENDBRANCH   3   2
ENDBRANCH   9   6
BRANCH  12  14
ATOM     14  C   UNL     1      -1.577   2.213  25.176  0.00  0.00    +0.138 C 
ATOM     15  C   UNL     1      -1.014   2.540  25.683  0.00  0.00    +0.027 C 
ATOM     16  C   UNL     1      -1.286   3.281  25.923  0.00  0.00    +0.019 C 
ATOM     17  C   UNL     1      -2.018   3.412  25.564  0.00  0.00    +0.073 C 
ATOM     18  N   UNL     1      -2.198   2.752  25.103  0.00  0.00    -0.263 NA
BRANCH  18  19
ATOM     19  C   UNL     1      -2.878   2.649  24.648  0.00  0.00    +0.099 C 
BRANCH  19  20
ATOM     20  C   UNL     1      -3.584   3.010  24.875  0.00  0.00    -0.006 A 
ATOM     21  C   UNL     1      -4.113   2.611  25.366  0.00  0.00    -0.002 A 
ATOM     22  C   UNL     1      -4.819   2.972  25.593  0.00  0.00    +0.011 A 
ATOM     23  C   UNL     1      -4.996   3.733  25.327  0.00  0.00    +0.058 A 
ATOM     24 CL   UNL     1      -5.703   4.095  25.554  0.00  0.00    -0.082 Cl
ATOM     25  C   UNL     1      -4.468   4.132  24.836  0.00  0.00    +0.011 A 
ATOM     26  C   UNL     1      -3.762   3.771  24.609  0.00  0.00    -0.002 A 
ENDBRANCH  19  20
ENDBRANCH  18  19
ENDBRANCH  12  14
TORSDOF 5
ENDMDL
