MODEL 1
REMARK VINA RESULT:     -10.2      0.000      0.000
REMARK  Name = 
REMARK  7 active torsions:
REMARK  status: ('A' for Active; 'I' for Inactive)
REMARK    1  A    between atoms: O_2  and  C_3
REMARK    2  A    between atoms: C_3  and  C_4
REMARK    3  A    between atoms: C_10  and  C_13
REMARK    4  A    between atoms: C_16  and  C_18
REMARK    5  A    between atoms: N_22  and  C_23
REMARK    6  A    between atoms: C_23  and  C_24
REMARK    7  A    between atoms: C_27  and  C_28
REMARK                            x       y       z     vdW  Elec       q    Type
REMARK                         _______ _______ _______ _____ _____    ______ ____
ROOT
ATOM     13  C   UNL     1      -1.597   2.205  25.260  0.00  0.00    +0.205 A 
ATOM     14  N   UNL     1      -0.922   2.231  25.734  0.00  0.00    -0.056 NA
ATOM     15  O   UNL     1      -0.387   1.671  25.447  0.00  0.00    -0.336 OA
ATOM     16  C   UNL     1      -0.732   1.299  24.797  0.00  0.00    +0.251 A 
ATOM     17  N   UNL     1      -1.479   1.629  24.681  0.00  0.00    -0.190 NA
ENDROOT
BRANCH  13  10
ATOM      4  C   UNL     1      -5.041   3.740  25.533  0.00  0.00    +0.277 C 
ATOM      5  O   UNL     1      -5.715   4.207  25.623  0.00  0.00    -0.270 OA
ATOM      6  N   UNL     1      -4.292   4.074  25.618  0.00  0.00    -0.158 NA
ATOM      7  C   UNL     1      -3.618   3.607  25.529  0.00  0.00    +0.155 A 
ATOM      8  N   UNL     1      -3.693   2.805  25.354  0.00  0.00    -0.227 NA
ATOM      9  C   UNL     1      -3.020   2.338  25.265  0.00  0.00    +0.103 A 
ATOM     10  C   UNL     1      -2.271   2.672  25.350  0.00  0.00    +0.058 A 
ATOM     11  C   UNL     1      -2.196   3.476  25.525  0.00  0.00    +0.008 A 
ATOM     12  C   UNL     1      -2.870   3.943  25.614  0.00  0.00    +0.036 A 
BRANCH   4   3
ATOM      3  C   UNL     1      -5.116   2.937  25.358  0.00  0.00    +0.229 C 
BRANCH   3   2
ATOM      1  C   UNL     1      -5.968   1.839  25.027  0.00  0.00    +0.175 C 
ATOM      2  O   UNL     1      -5.859   2.579  25.375  0.00  0.00    -0.342 OA
ENDBRANCH   3   2
ENDBRANCH   4   3
ENDBRANCH  13  10
BRANCH  16  18
ATOM     18  C   UNL     1      -0.389   0.703  24.342  0.00  0.00    +0.138 C 
ATOM     19  C   UNL     1       0.091   0.813  23.680  0.00  0.00    +0.027 C 
ATOM     20  C   UNL     1       0.310   0.069  23.398  0.00  0.00    +0.019 C 
ATOM     21  C   UNL     1      -0.035  -0.500  23.885  0.00  0.00    +0.073 C 
ATOM     22  N   UNL     1      -0.467  -0.109  24.468  0.00  0.00    -0.260 NA
BRANCH  22  23
ATOM     23  C   UNL     1      -0.900  -0.467  25.071  0.00  0.00    +0.138 C 
BRANCH  23  24
ATOM     24  C   UNL     1      -1.299  -1.174  24.929  0.00  0.00    +0.139 A 
ATOM     25  C   UNL     1      -0.986  -1.933  25.009  0.00  0.00    +0.037 A 
ATOM     26  C   UNL     1      -1.574  -2.475  24.812  0.00  0.00    +0.038 A 
ATOM     27  C   UNL     1      -2.253  -2.052  24.609  0.00  0.00    +0.156 A 
ATOM     30  O   UNL     1      -2.083  -1.248  24.682  0.00  0.00    -0.458 OA
BRANCH  27  28
ATOM     28  C   UNL     1      -2.974  -2.375  24.376  0.00  0.00    +0.246 C 
ATOM     29  O   UNL     1      -3.440  -2.784  24.921  0.00  0.00    -0.212 OA
ENDBRANCH  27  28
ENDBRANCH  23  24
ENDBRANCH  22  23
ENDBRANCH  16  18
TORSDOF 7
ENDMDL
MODEL 2
REMARK VINA RESULT:      -9.9      1.747      5.242
REMARK  Name = 
REMARK  7 active torsions:
REMARK  status: ('A' for Active; 'I' for Inactive)
REMARK    1  A    between atoms: O_2  and  C_3
REMARK    2  A    between atoms: C_3  and  C_4
REMARK    3  A    between atoms: C_10  and  C_13
REMARK    4  A    between atoms: C_16  and  C_18
REMARK    5  A    between atoms: N_22  and  C_23
REMARK    6  A    between atoms: C_23  and  C_24
REMARK    7  A    between atoms: C_27  and  C_28
REMARK                            x       y       z     vdW  Elec       q    Type
REMARK                         _______ _______ _______ _____ _____    ______ ____
ROOT
ATOM     13  C   UNL     1      -3.959   1.092  24.338  0.00  0.00    +0.205 A 
ATOM     14  N   UNL     1      -4.188   1.571  23.707  0.00  0.00    -0.056 NA
ATOM     15  O   UNL     1      -4.127   2.358  23.948  0.00  0.00    -0.336 OA
ATOM     16  C   UNL     1      -3.861   2.365  24.729  0.00  0.00    +0.251 A 
ATOM     17  N   UNL     1      -3.757   1.583  24.970  0.00  0.00    -0.190 NA
ENDROOT
BRANCH  13  10
ATOM      4  C   UNL     1      -3.151  -2.600  24.441  0.00  0.00    +0.277 C 
ATOM      5  O   UNL     1      -3.128  -3.425  24.441  0.00  0.00    -0.270 OA
ATOM      6  N   UNL     1      -3.868  -2.207  24.338  0.00  0.00    -0.158 NA
ATOM      7  C   UNL     1      -3.891  -1.382  24.338  0.00  0.00    +0.155 A 
ATOM      8  N   UNL     1      -3.196  -0.951  24.441  0.00  0.00    -0.227 NA
ATOM      9  C   UNL     1      -3.219  -0.126  24.441  0.00  0.00    +0.103 A 
ATOM     10  C   UNL     1      -3.936   0.267  24.338  0.00  0.00    +0.058 A 
ATOM     11  C   UNL     1      -4.632  -0.165  24.234  0.00  0.00    +0.008 A 
ATOM     12  C   UNL     1      -4.610  -0.990  24.234  0.00  0.00    +0.036 A 
BRANCH   4   3
ATOM      3  C   UNL     1      -2.456  -2.168  24.544  0.00  0.00    +0.229 C 
BRANCH   3   2
ATOM      1  C   UNL     1      -1.051  -2.147  24.807  0.00  0.00    +0.175 C 
ATOM      2  O   UNL     1      -1.729  -2.558  24.579  0.00  0.00    -0.342 OA
ENDBRANCH   3   2
ENDBRANCH   4   3
ENDBRANCH  13  10
BRANCH  16  18
ATOM     18  C   UNL     1      -3.722   3.036  25.188  0.00  0.00    +0.138 C 
ATOM     19  C   UNL     1      -4.243   3.363  25.737  0.00  0.00    +0.027 C 
ATOM     20  C   UNL     1      -3.882   4.028  26.067  0.00  0.00    +0.019 C 
ATOM     21  C   UNL     1      -3.137   4.110  25.722  0.00  0.00    +0.073 C 
ATOM     22  N   UNL     1      -3.039   3.498  25.178  0.00  0.00    -0.260 NA
BRANCH  22  23
ATOM     23  C   UNL     1      -2.373   3.370  24.708  0.00  0.00    +0.138 C 
BRANCH  23  24
ATOM     24  C   UNL     1      -1.619   3.449  25.031  0.00  0.00    +0.139 A 
ATOM     25  C   UNL     1      -1.142   4.121  24.992  0.00  0.00    +0.037 A 
ATOM     26  C   UNL     1      -0.437   3.958  25.386  0.00  0.00    +0.038 A 
ATOM     27  C   UNL     1      -0.477   3.184  25.670  0.00  0.00    +0.156 A 
ATOM     30  O   UNL     1      -1.207   2.870  25.450  0.00  0.00    -0.458 OA
BRANCH  27  28
ATOM     28  C   UNL     1       0.111   2.794  26.097  0.00  0.00    +0.246 C 
ATOM     29  O   UNL     1       0.539   2.181  25.746  0.00  0.00    -0.212 OA
ENDBRANCH  27  28
ENDBRANCH  23  24
ENDBRANCH  22  23
ENDBRANCH  16  18
TORSDOF 7
ENDMDL
MODEL 3
REMARK VINA RESULT:      -9.7      1.097      4.986
REMARK  Name = 
REMARK  7 active torsions:
REMARK  status: ('A' for Active; 'I' for Inactive)
REMARK    1  A    between atoms: O_2  and  C_3
REMARK    2  A    between atoms: C_3  and  C_4
REMARK    3  A    between atoms: C_10  and  C_13
REMARK    4  A    between atoms: C_16  and  C_18
REMARK    5  A    between atoms: N_22  and  C_23
REMARK    6  A    between atoms: C_23  and  C_24
REMARK    7  A    between atoms: C_27  and  C_28
REMARK                            x       y       z     vdW  Elec       q    Type
REMARK                         _______ _______ _______ _____ _____    ______ ____
ROOT
ATOM     13  C   UNL     1      -1.473   1.364  24.347  0.00  0.00    +0.205 A 
ATOM     14  N   UNL     1      -1.274   1.802  23.676  0.00  0.00    -0.056 NA
ATOM     15  O   UNL     1      -1.430   2.597  23.835  0.00  0.00    -0.336 OA
ATOM     16  C   UNL     1      -1.725   2.650  24.603  0.00  0.00    +0.251 A 
ATOM     17  N   UNL     1      -1.752   1.889  24.920  0.00  0.00    -0.190 NA
ENDROOT
BRANCH  13  10
ATOM      4  C   UNL     1      -1.867  -2.388  24.600  0.00  0.00    +0.277 C 
ATOM      5  O   UNL     1      -1.799  -3.206  24.683  0.00  0.00    -0.270 OA
ATOM      6  N   UNL     1      -1.201  -1.908  24.680  0.00  0.00    -0.158 NA
ATOM      7  C   UNL     1      -1.269  -1.090  24.596  0.00  0.00    +0.155 A 
ATOM      8  N   UNL     1      -2.003  -0.752  24.434  0.00  0.00    -0.227 NA
ATOM      9  C   UNL     1      -2.071   0.066  24.350  0.00  0.00    +0.103 A 
ATOM     10  C   UNL     1      -1.405   0.546  24.430  0.00  0.00    +0.058 A 
ATOM     11  C   UNL     1      -0.670   0.207  24.593  0.00  0.00    +0.008 A 
ATOM     12  C   UNL     1      -0.602  -0.611  24.676  0.00  0.00    +0.036 A 
BRANCH   4   3
ATOM      3  C   UNL     1      -2.601  -2.049  24.437  0.00  0.00    +0.229 C 
BRANCH   3   2
ATOM      1  C   UNL     1      -3.982  -2.217  24.111  0.00  0.00    +0.175 C 
ATOM      2  O   UNL     1      -3.277  -2.522  24.410  0.00  0.00    -0.342 OA
ENDBRANCH   3   2
ENDBRANCH   4   3
ENDBRANCH  13  10
BRANCH  16  18
ATOM     18  C   UNL     1      -1.954   3.343  24.988  0.00  0.00    +0.138 C 
ATOM     19  C   UNL     1      -1.467   3.825  25.447  0.00  0.00    +0.027 C 
ATOM     20  C   UNL     1      -1.922   4.456  25.723  0.00  0.00    +0.019 C 
ATOM     21  C   UNL     1      -2.689   4.363  25.435  0.00  0.00    +0.073 C 
ATOM     22  N   UNL     1      -2.709   3.675  24.981  0.00  0.00    -0.260 NA
BRANCH  22  23
ATOM     23  C   UNL     1      -3.368   3.373  24.588  0.00  0.00    +0.138 C 
BRANCH  23  24
ATOM     24  C   UNL     1      -4.107   3.382  24.954  0.00  0.00    +0.139 A 
ATOM     25  C   UNL     1      -4.636   4.015  24.963  0.00  0.00    +0.037 A 
ATOM     26  C   UNL     1      -5.303   3.784  25.390  0.00  0.00    +0.038 A 
ATOM     27  C   UNL     1      -5.186   3.009  25.647  0.00  0.00    +0.156 A 
ATOM     30  O   UNL     1      -4.446   2.761  25.377  0.00  0.00    -0.458 OA
BRANCH  27  28
ATOM     28  C   UNL     1      -5.714   2.561  26.094  0.00  0.00    +0.246 C 
ATOM     29  O   UNL     1      -6.103   1.918  25.752  0.00  0.00    -0.212 OA
ENDBRANCH  27  28
ENDBRANCH  23  24
ENDBRANCH  22  23
ENDBRANCH  16  18
TORSDOF 7
ENDMDL
MODEL 4
REMARK VINA RESULT:      -9.5      1.727      3.226
REMARK  Name = 
REMARK  7 active torsions:
REMARK  status: ('A' for Active; 'I' for Inactive)
REMARK    1  A    between atoms: O_2  and  C_3
REMARK    2  A    between atoms: C_3  and  C_4
REMARK    3  A    between atoms: C_10  and  C_13
REMARK    4  A    between atoms: C_16  and  C_18
REMARK    5  A    between atoms: N_22  and  C_23
REMARK    6  A    between atoms: C_23  and  C_24
REMARK    7  A    between atoms: C_27  and  C_28
REMARK                            x       y       z     vdW  Elec       q    Type
REMARK                         _______ _______ _______ _____ _____    ______ ____
ROOT
ATOM     13  C   UNL     1      -4.020   1.351  24.957  0.00  0.00    +0.205 A 
ATOM     14  N   UNL     1      -4.687   1.104  25.374  0.00  0.00    -0.056 NA
ATOM     15  O   UNL     1      -4.797   0.299  25.226  0.00  0.00    -0.336 OA
ATOM     16  C   UNL     1      -4.199   0.049  24.716  0.00  0.00    +0.251 A 
ATOM     17  N   UNL     1      -3.718   0.700  24.549  0.00  0.00    -0.190 NA
ENDROOT
BRANCH  13  10
ATOM      4  C   UNL     1      -1.980   4.532  25.089  0.00  0.00    +0.277 C 
ATOM      5  O   UNL     1      -1.670   5.296  25.080  0.00  0.00    -0.270 OA
ATOM      6  N   UNL     1      -2.778   4.408  24.918  0.00  0.00    -0.158 NA
ATOM      7  C   UNL     1      -3.088   3.644  24.928  0.00  0.00    +0.155 A 
ATOM      8  N   UNL     1      -2.602   3.003  25.108  0.00  0.00    -0.227 NA
ATOM      9  C   UNL     1      -2.912   2.239  25.118  0.00  0.00    +0.103 A 
ATOM     10  C   UNL     1      -3.710   2.115  24.947  0.00  0.00    +0.058 A 
ATOM     11  C   UNL     1      -4.197   2.757  24.766  0.00  0.00    +0.008 A 
ATOM     12  C   UNL     1      -3.886   3.521  24.756  0.00  0.00    +0.036 A 
BRANCH   4   3
ATOM      3  C   UNL     1      -1.494   3.891  25.270  0.00  0.00    +0.229 C 
BRANCH   3   2
ATOM      1  C   UNL     1      -0.185   3.357  25.479  0.00  0.00    +0.175 C 
ATOM      2  O   UNL     1      -0.684   4.006  25.382  0.00  0.00    -0.342 OA
ENDBRANCH   3   2
ENDBRANCH   4   3
ENDBRANCH  13  10
BRANCH  16  18
ATOM     18  C   UNL     1      -4.098  -0.715  24.424  0.00  0.00    +0.138 C 
ATOM     19  C   UNL     1      -4.563  -1.079  23.848  0.00  0.00    +0.027 C 
ATOM     20  C   UNL     1      -4.267  -1.839  23.725  0.00  0.00    +0.019 C 
ATOM     21  C   UNL     1      -3.619  -1.945  24.224  0.00  0.00    +0.073 C 
ATOM     22  N   UNL     1      -3.515  -1.250  24.656  0.00  0.00    -0.260 NA
BRANCH  22  23
ATOM     23  C   UNL     1      -2.930  -1.115  25.222  0.00  0.00    +0.138 C 
BRANCH  23  24
ATOM     24  C   UNL     1      -2.160  -1.381  25.091  0.00  0.00    +0.139 A 
ATOM     25  C   UNL     1      -1.887  -2.151  25.207  0.00  0.00    +0.037 A 
ATOM     26  C   UNL     1      -1.087  -2.171  25.010  0.00  0.00    +0.038 A 
ATOM     27  C   UNL     1      -0.864  -1.412  24.772  0.00  0.00    +0.156 A 
ATOM     30  O   UNL     1      -1.528  -0.925  24.823  0.00  0.00    -0.458 OA
BRANCH  27  28
ATOM     28  C   UNL     1      -0.111  -1.183  24.527  0.00  0.00    +0.246 C 
ATOM     29  O   UNL     1      -0.024  -0.648  23.905  0.00  0.00    -0.212 OA
ENDBRANCH  27  28
ENDBRANCH  23  24
ENDBRANCH  22  23
ENDBRANCH  16  18
TORSDOF 7
ENDMDL
MODEL 5
REMARK VINA RESULT:      -9.3      1.587      3.091
REMARK  Name = 
REMARK  7 active torsions:
REMARK  status: ('A' for Active; 'I' for Inactive)
REMARK    1  A    between atoms: O_2  and  C_3
REMARK    2  A    between atoms: C_3  and  C_4
REMARK    3  A    between atoms: C_10  and  C_13
REMARK    4  A    between atoms: C_16  and  C_18
REMARK    5  A    between atoms: N_22  and  C_23
REMARK    6  A    between atoms: C_23  and  C_24
REMARK    7  A    between atoms: C_27  and  C_28
REMARK                            x       y       z     vdW  Elec       q    Type
REMARK                         _______ _______ _______ _____ _____    ______ ____
ROOT
ATOM     13  C   UNL     1      -3.415   0.146  24.622  0.00  0.00    +0.205 A 
ATOM     14  N   UNL     1      -3.543  -0.460  24.077  0.00  0.00    -0.056 NA
ATOM     15  O   UNL     1      -2.874  -0.943  24.071  0.00  0.00    -0.336 OA
ATOM     16  C   UNL     1      -2.333  -0.636  24.612  0.00  0.00    +0.251 A 
ATOM     17  N   UNL     1      -2.667   0.038  24.953  0.00  0.00    -0.190 NA
ENDROOT
BRANCH  13  10
ATOM      4  C   UNL     1      -5.237   3.325  25.556  0.00  0.00    +0.277 C 
ATOM      5  O   UNL     1      -5.764   3.933  25.738  0.00  0.00    -0.270 OA
ATOM      6  N   UNL     1      -5.522   2.579  25.350  0.00  0.00    -0.158 NA
ATOM      7  C   UNL     1      -4.995   1.971  25.168  0.00  0.00    +0.155 A 
ATOM      8  N   UNL     1      -4.183   2.109  25.191  0.00  0.00    -0.227 NA
ATOM      9  C   UNL     1      -3.656   1.501  25.009  0.00  0.00    +0.103 A 
ATOM     10  C   UNL     1      -3.942   0.755  24.804  0.00  0.00    +0.058 A 
ATOM     11  C   UNL     1      -4.756   0.617  24.781  0.00  0.00    +0.008 A 
ATOM     12  C   UNL     1      -5.282   1.225  24.963  0.00  0.00    +0.036 A 
BRANCH   4   3
ATOM      3  C   UNL     1      -4.424   3.462  25.579  0.00  0.00    +0.229 C 
BRANCH   3   2
ATOM      1  C   UNL     1      -3.332   4.273  26.019  0.00  0.00    +0.175 C 
ATOM      2  O   UNL     1      -4.135   4.186  25.852  0.00  0.00    -0.342 OA
ENDBRANCH   3   2
ENDBRANCH   4   3
ENDBRANCH  13  10
BRANCH  16  18
ATOM     18  C   UNL     1      -1.588  -0.947  24.783  0.00  0.00    +0.138 C 
ATOM     19  C   UNL     1      -1.429  -1.560  25.311  0.00  0.00    +0.027 C 
ATOM     20  C   UNL     1      -0.614  -1.692  25.310  0.00  0.00    +0.019 C 
ATOM     21  C   UNL     1      -0.271  -1.160  24.782  0.00  0.00    +0.073 C 
ATOM     22  N   UNL     1      -0.872  -0.700  24.456  0.00  0.00    -0.260 NA
BRANCH  22  23
ATOM     23  C   UNL     1      -0.775  -0.098  23.901  0.00  0.00    +0.138 C 
BRANCH  23  24
ATOM     24  C   UNL     1      -0.021   0.096  23.631  0.00  0.00    +0.139 A 
ATOM     25  C   UNL     1       0.434   0.737  23.883  0.00  0.00    +0.037 A 
ATOM     26  C   UNL     1       1.148   0.721  23.469  0.00  0.00    +0.038 A 
ATOM     27  C   UNL     1       1.134   0.071  22.961  0.00  0.00    +0.156 A 
ATOM     30  O   UNL     1       0.412  -0.315  23.062  0.00  0.00    -0.458 OA
BRANCH  27  28
ATOM     28  C   UNL     1       1.737  -0.153  22.445  0.00  0.00    +0.246 C 
ATOM     29  O   UNL     1       2.489   0.176  22.520  0.00  0.00    -0.212 OA
ENDBRANCH  27  28
ENDBRANCH  23  24
ENDBRANCH  22  23
ENDBRANCH  16  18
TORSDOF 7
ENDMDL
MODEL 6
REMARK VINA RESULT:      -9.1      1.677      2.482
REMARK  Name = 
REMARK  7 active torsions:
REMARK  status: ('A' for Active; 'I' for Inactive)
REMARK    1  A    between atoms: O_2  and  C_3
REMARK    2  A    between atoms: C_3  and  C_4
REMARK    3  A    between atoms: C_10  and  C_13
REMARK    4  A    between atoms: C_16  and  C_18
REMARK    5  A    between atoms: N_22  and  C_23
REMARK    6  A    between atoms: C_23  and  C_24
REMARK    7  A    between atoms: C_27  and  C_28
REMARK                            x       y       z     vdW  Elec       q    Type
REMARK                         _______ _______ _______ _____ _____    ______ ____
ROOT
ATOM     13  C   UNL     1      -0.610   1.269  24.239  0.00  0.00    +0.205 A 
ATOM     14  N   UNL     1      -0.466   0.929  23.502  0.00  0.00    -0.056 NA
ATOM     15  O   UNL     1      -0.451   0.110  23.597  0.00  0.00    -0.336 OA
ATOM     16  C   UNL     1      -0.586  -0.057  24.393  0.00  0.00    +0.251 A 
ATOM     17  N   UNL     1      -0.685   0.660  24.791  0.00  0.00    -0.190 NA
ENDROOT
BRANCH  13  10
ATOM      4  C   UNL     1      -1.537   4.804  25.211  0.00  0.00    +0.277 C 
ATOM      5  O   UNL     1      -1.596   5.611  25.370  0.00  0.00    -0.270 OA
ATOM      6  N   UNL     1      -0.848   4.499  24.875  0.00  0.00    -0.158 NA
ATOM      7  C   UNL     1      -0.788   3.691  24.716  0.00  0.00    +0.155 A 
ATOM      8  N   UNL     1      -1.418   3.189  24.893  0.00  0.00    -0.227 NA
ATOM      9  C   UNL     1      -1.358   2.382  24.734  0.00  0.00    +0.103 A 
ATOM     10  C   UNL     1      -0.670   2.077  24.398  0.00  0.00    +0.058 A 
ATOM     11  C   UNL     1      -0.039   2.580  24.221  0.00  0.00    +0.008 A 
ATOM     12  C   UNL     1      -0.099   3.387  24.380  0.00  0.00    +0.036 A 
BRANCH   4   3
ATOM      3  C   UNL     1      -2.166   4.301  25.388  0.00  0.00    +0.229 C 
BRANCH   3   2
ATOM      1  C   UNL     1      -3.441   4.099  25.999  0.00  0.00    +0.175 C 
ATOM      2  O   UNL     1      -2.751   4.543  25.917  0.00  0.00    -0.342 OA
ENDBRANCH   3   2
ENDBRANCH   4   3
ENDBRANCH  13  10
BRANCH  16  18
ATOM     18  C   UNL     1      -0.618  -0.808  24.733  0.00  0.00    +0.138 C 
ATOM     19  C   UNL     1       0.029  -1.292  24.898  0.00  0.00    +0.027 C 
ATOM     20  C   UNL     1      -0.255  -1.990  25.235  0.00  0.00    +0.019 C 
ATOM     21  C   UNL     1      -1.077  -1.936  25.278  0.00  0.00    +0.073 C 
ATOM     22  N   UNL     1      -1.301  -1.206  24.968  0.00  0.00    -0.260 NA
BRANCH  22  23
ATOM     23  C   UNL     1      -2.073  -0.923  24.904  0.00  0.00    +0.138 C 
BRANCH  23  24
ATOM     24  C   UNL     1      -2.705  -1.452  24.877  0.00  0.00    +0.139 A 
ATOM     25  C   UNL     1      -3.190  -1.662  25.511  0.00  0.00    +0.037 A 
ATOM     26  C   UNL     1      -3.748  -2.204  25.237  0.00  0.00    +0.038 A 
ATOM     27  C   UNL     1      -3.609  -2.329  24.433  0.00  0.00    +0.156 A 
ATOM     30  O   UNL     1      -2.964  -1.864  24.211  0.00  0.00    -0.458 OA
BRANCH  27  28
ATOM     28  C   UNL     1      -4.039  -2.830  23.939  0.00  0.00    +0.246 C 
ATOM     29  O   UNL     1      -4.699  -2.545  23.534  0.00  0.00    -0.212 OA
ENDBRANCH  27  28
ENDBRANCH  23  24
ENDBRANCH  22  23
ENDBRANCH  16  18
TORSDOF 7
ENDMDL
MODEL 7
REMARK VINA RESULT:      -9.0      2.193      5.850
REMARK  Name = 
REMARK  7 active torsions:
REMARK  status: ('A' for Active; 'I' for Inactive)
REMARK    1  A    between atoms: O_2  and  C_3
REMARK    2  A    between atoms: C_3  and  C_4
REMARK    3  A    between atoms: C_10  and  C_13
REMARK    4  A    between atoms: C_16  and  C_18
REMARK    5  A    between atoms: N_22  and  C_23
REMARK    6  A    between atoms: C_23  and  C_24
REMARK    7  A    between atoms: C_27  and  C_28
REMARK                            x       y       z     vdW  Elec       q    Type
REMARK                         _______ _______ _______ _____ _____    ______ ____
ROOT
ATOM     13  C   UNL     1      -0.142   1.985  24.742  0.00  0.00    +0.205 A 
ATOM     14  N   UNL     1      -0.077   1.999  25.564  0.00  0.00    -0.056 NA
ATOM     15  O   UNL     1      -0.513   2.642  25.843  0.00  0.00    -0.336 OA
ATOM     16  C   UNL     1      -0.846   3.026  25.194  0.00  0.00    +0.251 A 
ATOM     17  N   UNL     1      -0.617   2.619  24.513  0.00  0.00    -0.190 NA
ENDROOT
BRANCH  13  10
ATOM      4  C   UNL     1       2.040  -0.126  22.488  0.00  0.00    +0.277 C 
ATOM      5  O   UNL     1       2.389  -0.678  21.984  0.00  0.00    -0.270 OA
ATOM      6  N   UNL     1       1.255  -0.221  22.724  0.00  0.00    -0.158 NA
ATOM      7  C   UNL     1       0.906   0.331  23.228  0.00  0.00    +0.155 A 
ATOM      8  N   UNL     1       1.341   0.977  23.497  0.00  0.00    -0.227 NA
ATOM      9  C   UNL     1       0.992   1.528  24.002  0.00  0.00    +0.103 A 
ATOM     10  C   UNL     1       0.207   1.434  24.237  0.00  0.00    +0.058 A 
ATOM     11  C   UNL     1      -0.229   0.786  23.968  0.00  0.00    +0.008 A 
ATOM     12  C   UNL     1       0.121   0.235  23.463  0.00  0.00    +0.036 A 
BRANCH   4   3
ATOM      3  C   UNL     1       2.475   0.521  22.758  0.00  0.00    +0.229 C 
BRANCH   3   2
ATOM      1  C   UNL     1       3.849   0.901  22.857  0.00  0.00    +0.175 C 
ATOM      2  O   UNL     1       3.191   0.715  22.396  0.00  0.00    -0.342 OA
ENDBRANCH   3   2
ENDBRANCH   4   3
ENDBRANCH  13  10
BRANCH  16  18
ATOM     18  C   UNL     1      -1.325   3.697  25.220  0.00  0.00    +0.138 C 
ATOM     19  C   UNL     1      -1.064   4.479  25.204  0.00  0.00    +0.027 C 
ATOM     20  C   UNL     1      -1.727   4.969  25.240  0.00  0.00    +0.019 C 
ATOM     21  C   UNL     1      -2.397   4.490  25.279  0.00  0.00    +0.073 C 
ATOM     22  N   UNL     1      -2.149   3.704  25.266  0.00  0.00    -0.260 NA
BRANCH  22  23
ATOM     23  C   UNL     1      -2.639   3.041  25.294  0.00  0.00    +0.138 C 
BRANCH  23  24
ATOM     24  C   UNL     1      -3.447   3.119  25.153  0.00  0.00    +0.139 A 
ATOM     25  C   UNL     1      -3.816   3.088  24.415  0.00  0.00    +0.037 A 
ATOM     26  C   UNL     1      -4.626   3.192  24.530  0.00  0.00    +0.038 A 
ATOM     27  C   UNL     1      -4.759   3.287  25.339  0.00  0.00    +0.156 A 
ATOM     30  O   UNL     1      -4.030   3.242  25.724  0.00  0.00    -0.458 OA
BRANCH  27  28
ATOM     28  C   UNL     1      -5.490   3.405  25.699  0.00  0.00    +0.246 C 
ATOM     29  O   UNL     1      -5.828   4.158  25.711  0.00  0.00    -0.212 OA
ENDBRANCH  27  28
ENDBRANCH  23  24
ENDBRANCH  22  23
ENDBRANCH  16  18
TORSDOF 7
ENDMDL
MODEL 8
REMARK VINA RESULT:      -8.9      1.353      2.630
REMARK  Name = 
REMARK  7 active torsions:
REMARK  status: ('A' for Active; 'I' for Inactive)
REMARK    1  A    between atoms: O_2  and  C_3
REMARK    2  A    between atoms: C_3  and  C_4
REMARK    3  A    between atoms: C_10  and  C_13
REMARK    4  A    between atoms: C_16  and  C_18
REMARK    5  A    between atoms: N_22  and  C_23
REMARK    6  A    between atoms: C_23  and  C_24
REMARK    7  A    between atoms: C_27  and  C_28
REMARK                            x       y       z     vdW  Elec       q    Type
REMARK                         _______ _______ _______ _____ _____    ______ ____
ROOT
ATOM     13  C   UNL     1      -1.647   1.859  25.342  0.00  0.00    +0.205 A 
ATOM     14  N   UNL     1      -0.901   1.994  25.666  0.00  0.00    -0.056 NA
ATOM     15  O   UNL     1      -0.440   1.323  25.531  0.00  0.00    -0.336 OA
ATOM     16  C   UNL     1      -0.901   0.774  25.123  0.00  0.00    +0.251 A 
ATOM     17  N   UNL     1      -1.647   1.105  25.006  0.00  0.00    -0.190 NA
ENDROOT
BRANCH  13  10
ATOM      4  C   UNL     1      -4.961   3.680  25.358  0.00  0.00    +0.277 C 
ATOM      5  O   UNL     1      -5.596   4.207  25.367  0.00  0.00    -0.270 OA
ATOM      6  N   UNL     1      -4.187   3.966  25.379  0.00  0.00    -0.158 NA
ATOM      7  C   UNL     1      -3.552   3.439  25.369  0.00  0.00    +0.155 A 
ATOM      8  N   UNL     1      -3.691   2.627  25.339  0.00  0.00    -0.227 NA
ATOM      9  C   UNL     1      -3.056   2.100  25.330  0.00  0.00    +0.103 A 
ATOM     10  C   UNL     1      -2.282   2.386  25.351  0.00  0.00    +0.058 A 
ATOM     11  C   UNL     1      -2.144   3.199  25.381  0.00  0.00    +0.008 A 
ATOM     12  C   UNL     1      -2.779   3.726  25.390  0.00  0.00    +0.036 A 
BRANCH   4   3
ATOM      3  C   UNL     1      -5.099   2.868  25.328  0.00  0.00    +0.229 C 
BRANCH   3   2
ATOM      1  C   UNL     1      -6.069   1.850  25.073  0.00  0.00    +0.175 C 
ATOM      2  O   UNL     1      -5.868   2.577  25.407  0.00  0.00    -0.342 OA
ENDBRANCH   3   2
ENDBRANCH   4   3
ENDBRANCH  13  10
BRANCH  16  18
ATOM     18  C   UNL     1      -0.658   0.025  24.875  0.00  0.00    +0.138 C 
ATOM     19  C   UNL     1      -0.834  -0.688  25.249  0.00  0.00    +0.027 C 
ATOM     20  C   UNL     1      -0.482  -1.296  24.815  0.00  0.00    +0.019 C 
ATOM     21  C   UNL     1      -0.089  -0.957  24.174  0.00  0.00    +0.073 C 
ATOM     22  N   UNL     1      -0.198  -0.141  24.211  0.00  0.00    -0.260 NA
BRANCH  22  23
ATOM     23  C   UNL     1       0.100   0.413  23.677  0.00  0.00    +0.138 C 
BRANCH  23  24
ATOM     24  C   UNL     1       0.735   0.215  23.190  0.00  0.00    +0.139 A 
ATOM     25  C   UNL     1       0.691  -0.204  22.481  0.00  0.00    +0.037 A 
ATOM     26  C   UNL     1       1.455  -0.276  22.179  0.00  0.00    +0.038 A 
ATOM     27  C   UNL     1       1.973   0.098  22.702  0.00  0.00    +0.156 A 
ATOM     30  O   UNL     1       1.527   0.402  23.326  0.00  0.00    -0.458 OA
BRANCH  27  28
ATOM     28  C   UNL     1       2.790   0.158  22.614  0.00  0.00    +0.246 C 
ATOM     29  O   UNL     1       3.163   0.889  22.703  0.00  0.00    -0.212 OA
ENDBRANCH  27  28
ENDBRANCH  23  24
ENDBRANCH  22  23
ENDBRANCH  16  18
TORSDOF 7
ENDMDL
