REMARK  Name = 
REMARK  5 active torsions:
REMARK  status: ('A' for Active; 'I' for Inactive)
REMARK    1  A    between atoms: C_1  and  N_2
REMARK    2  A    between atoms: C_1  and  C_22
REMARK    3  A    between atoms: N_2  and  C_3
REMARK    4  A    between atoms: C_7  and  N_11
REMARK    5  A    between atoms: C_13  and  C_16
REMARK                            x       y       z     vdW  Elec       q    Type
REMARK                         _______ _______ _______ _____ _____    ______ ____
ROOT
ATOM      3  C   UNL     1       1.270  -0.922   0.000  0.00  0.00    +0.132 C 
ATOM      4  C   UNL     1       0.785  -0.255   0.000  0.00  0.00    +0.162 C 
ATOM      5  O   UNL     1       1.270   0.412   0.000  0.00  0.00    -0.350 OA
ATOM      6  C   UNL     1       2.054   0.158   0.000  0.00  0.00    +0.168 C 
ATOM      7  C   UNL     1       2.839   0.412   0.000  0.00  0.00    +0.166 C 
ATOM      8  C   UNL     1       3.324  -0.255   0.000  0.00  0.00    +0.169 C 
ATOM      9  O   UNL     1       2.839  -0.922   0.000  0.00  0.00    -0.350 OA
ATOM     10  C   UNL     1       2.054  -0.667   0.000  0.00  0.00    +0.163 C 
ENDROOT
BRANCH   7  11
ATOM     11  N   UNL     1       3.094   1.197   0.000  0.00  0.00    -0.227 N 
ATOM     12  C   UNL     1       2.609   1.865   0.000  0.00  0.00    +0.119 A 
ATOM     13  C   UNL     1       3.094   2.532   0.000  0.00  0.00    +0.141 A 
ATOM     14  N   UNL     1       3.878   2.277   0.000  0.00  0.00    -0.127 NA
ATOM     15  N   UNL     1       3.878   1.452   0.000  0.00  0.00    -0.064 NA
BRANCH  13  16
ATOM     16  C   UNL     1       2.839   3.317   0.000  0.00  0.00    +0.102 A 
ATOM     17  N   UNL     1       2.032   3.488   0.000  0.00  0.00    -0.242 NA
ATOM     18  C   UNL     1       1.777   4.273   0.000  0.00  0.00    +0.099 A 
ATOM     19  C   UNL     1       2.329   4.886   0.000  0.00  0.00    +0.021 A 
ATOM     20  C   UNL     1       3.136   4.714   0.000  0.00  0.00    +0.003 A 
ATOM     21  C   UNL     1       3.391   3.930   0.000  0.00  0.00    +0.021 A 
ENDBRANCH  13  16
ENDBRANCH   7  11
BRANCH   3   2
ATOM      2  N   UNL     1       1.015  -1.707   0.000  0.00  0.00    -0.210 NA
BRANCH   2   1
ATOM      1  C   UNL     1       1.567  -2.320   0.000  0.00  0.00    +0.115 C 
BRANCH   1  22
ATOM     22  C   UNL     1       1.312  -3.105   0.000  0.00  0.00    -0.005 A 
ATOM     23  C   UNL     1       1.864  -3.718   0.000  0.00  0.00    -0.003 A 
ATOM     24  C   UNL     1       1.609  -4.502   0.000  0.00  0.00    -0.000 A 
ATOM     25  C   UNL     1       0.802  -4.674   0.000  0.00  0.00    -0.000 A 
ATOM     26  C   UNL     1       0.250  -4.061   0.000  0.00  0.00    -0.000 A 
ATOM     27  C   UNL     1       0.505  -3.276   0.000  0.00  0.00    -0.003 A 
ENDBRANCH   1  22
ENDBRANCH   2   1
ENDBRANCH   3   2
TORSDOF 5
