REMARK  Name = 
REMARK  5 active torsions:
REMARK  status: ('A' for Active; 'I' for Inactive)
REMARK    1  A    between atoms: C_3  and  C_4
REMARK    2  A    between atoms: C_4  and  N_5
REMARK    3  A    between atoms: C_6  and  C_8
REMARK    4  A    between atoms: C_17  and  N_18
REMARK    5  A    between atoms: N_18  and  C_19
REMARK                            x       y       z     vdW  Elec       q    Type
REMARK                         _______ _______ _______ _____ _____    ______ ____
ROOT
ATOM      1  O   UNL     1       0.905  -5.094   0.000  0.00  0.00    -0.219 OA
ATOM      2  C   UNL     1       1.076  -4.287   0.000  0.00  0.00    +0.199 C 
ATOM      3  C   UNL     1       0.524  -3.674   0.000  0.00  0.00    +0.169 C 
ATOM     15  O   UNL     1       0.937  -2.960   0.000  0.00  0.00    -0.350 OA
ATOM     16  C   UNL     1       1.744  -3.131   0.000  0.00  0.00    +0.162 C 
ATOM     17  C   UNL     1       1.830  -3.952   0.000  0.00  0.00    +0.135 C 
ENDROOT
BRANCH   3   4
ATOM      4  C   UNL     1      -0.296  -3.760   0.000  0.00  0.00    +0.148 C 
BRANCH   4   5
ATOM      5  N   UNL     1      -0.781  -3.093   0.000  0.00  0.00    -0.199 NA
ATOM      6  C   UNL     1      -1.602  -3.179   0.000  0.00  0.00    +0.265 C 
ATOM      7  O   UNL     1      -1.937  -3.933   0.000  0.00  0.00    -0.268 OA
BRANCH   6   8
ATOM      8  C   UNL     1      -2.087  -2.512   0.000  0.00  0.00    +0.055 A 
ATOM      9  C   UNL     1      -2.907  -2.598   0.000  0.00  0.00    +0.007 A 
ATOM     10  C   UNL     1      -3.392  -1.931   0.000  0.00  0.00    +0.030 A 
ATOM     11  C   UNL     1      -3.057  -1.177   0.000  0.00  0.00    +0.140 A 
ATOM     12  F   UNL     1      -3.541  -0.509   0.000  0.00  0.00    -0.204 F 
ATOM     13  C   UNL     1      -2.236  -1.091   0.000  0.00  0.00    +0.030 A 
ATOM     14  C   UNL     1      -1.751  -1.758   0.000  0.00  0.00    +0.007 A 
ENDBRANCH   6   8
ENDBRANCH   4   5
ENDBRANCH   3   4
BRANCH  17  18
ATOM     18  N   UNL     1       2.544  -4.364   0.000  0.00  0.00    -0.216 NA
BRANCH  18  19
ATOM     19  C   UNL     1       2.544  -5.189   0.000  0.00  0.00    +0.073 C 
ATOM     20  C   UNL     1       3.128  -5.773   0.000  0.00  0.00    +0.017 C 
ATOM     21  C   UNL     1       2.544  -6.356   0.000  0.00  0.00    +0.003 C 
ATOM     22  C   UNL     1       1.961  -5.773   0.000  0.00  0.00    +0.017 C 
ENDBRANCH  18  19
ENDBRANCH  17  18
TORSDOF 5
