MODEL 1
REMARK VINA RESULT:     -11.3      0.000      0.000
REMARK  Name = 
REMARK  2 active torsions:
REMARK  status: ('A' for Active; 'I' for Inactive)
REMARK    1  A    between atoms: C_7  and  C_9
REMARK    2  A    between atoms: N_12  and  C_14
REMARK                            x       y       z     vdW  Elec       q    Type
REMARK                         _______ _______ _______ _____ _____    ______ ____
ROOT
ATOM      1  C   UNL     1      -4.131  -2.469  23.890  0.00  0.00    +0.031 C 
ATOM      2  C   UNL     1      -3.928  -1.774  24.283  0.00  0.00    -0.020 A 
ATOM      3  C   UNL     1      -4.014  -1.046  23.906  0.00  0.00    +0.018 A 
ATOM      4  C   UNL     1      -3.811  -0.350  24.300  0.00  0.00    +0.118 A 
ATOM      5  C   UNL     1      -3.521  -0.383  25.071  0.00  0.00    +0.164 A 
ATOM      6  O   UNL     1      -3.367   0.389  25.319  0.00  0.00    -0.438 OA
ATOM      7  C   UNL     1      -3.561   0.898  24.700  0.00  0.00    +0.207 A 
ATOM      8  N   UNL     1      -3.835   0.441  24.071  0.00  0.00    -0.212 NA
ATOM     18  C   UNL     1      -3.434  -1.112  25.450  0.00  0.00    +0.039 A 
ATOM     19  C   UNL     1      -3.638  -1.807  25.055  0.00  0.00    -0.001 A 
ENDROOT
BRANCH   7   9
ATOM      9  C   UNL     1      -3.494   1.720  24.710  0.00  0.00    +0.094 C 
ATOM     10  C   UNL     1      -4.048   2.256  24.417  0.00  0.00    +0.028 C 
ATOM     11  C   UNL     1      -3.757   3.019  24.539  0.00  0.00    +0.073 C 
ATOM     12  N   UNL     1      -3.022   2.954  24.909  0.00  0.00    -0.274 NA
ATOM     13  C   UNL     1      -2.860   2.151  25.014  0.00  0.00    +0.081 C 
BRANCH  12  14
ATOM     14  C   UNL     1      -2.536   3.580  25.134  0.00  0.00    +0.058 C 
ATOM     15  C   UNL     1      -1.766   3.816  24.951  0.00  0.00    +0.016 C 
ATOM     16  C   UNL     1      -1.847   4.467  25.452  0.00  0.00    +0.003 C 
ATOM     17  C   UNL     1      -2.616   4.231  25.634  0.00  0.00    +0.016 C 
ENDBRANCH  12  14
ENDBRANCH   7   9
TORSDOF 2
ENDMDL
MODEL 2
REMARK VINA RESULT:     -10.9      0.805      4.541
REMARK  Name = 
REMARK  2 active torsions:
REMARK  status: ('A' for Active; 'I' for Inactive)
REMARK    1  A    between atoms: C_7  and  C_9
REMARK    2  A    between atoms: N_12  and  C_14
REMARK                            x       y       z     vdW  Elec       q    Type
REMARK                         _______ _______ _______ _____ _____    ______ ____
ROOT
ATOM      1  C   UNL     1      -1.440   5.014  25.159  0.00  0.00    +0.031 C 
ATOM      2  C   UNL     1      -1.558   4.198  25.161  0.00  0.00    -0.020 A 
ATOM      3  C   UNL     1      -2.302   3.889  24.989  0.00  0.00    +0.018 A 
ATOM      4  C   UNL     1      -2.421   3.072  24.990  0.00  0.00    +0.118 A 
ATOM      5  C   UNL     1      -1.794   2.565  25.164  0.00  0.00    +0.164 A 
ATOM      6  O   UNL     1      -2.074   1.790  25.125  0.00  0.00    -0.438 OA
ATOM      7  C   UNL     1      -2.874   1.818  24.926  0.00  0.00    +0.207 A 
ATOM      8  N   UNL     1      -3.088   2.610  24.843  0.00  0.00    -0.212 NA
ATOM     18  C   UNL     1      -1.048   2.874  25.337  0.00  0.00    +0.039 A 
ATOM     19  C   UNL     1      -0.931   3.691  25.335  0.00  0.00    -0.001 A 
ENDROOT
BRANCH   7   9
ATOM      9  C   UNL     1      -3.372   1.168  24.828  0.00  0.00    +0.094 C 
ATOM     10  C   UNL     1      -4.196   1.186  24.818  0.00  0.00    +0.028 C 
ATOM     11  C   UNL     1      -4.468   0.415  24.706  0.00  0.00    +0.073 C 
ATOM     12  N   UNL     1      -3.811  -0.080  24.647  0.00  0.00    -0.274 NA
ATOM     13  C   UNL     1      -3.133   0.386  24.722  0.00  0.00    +0.081 C 
BRANCH  12  14
ATOM     14  C   UNL     1      -3.827  -0.897  24.533  0.00  0.00    +0.058 C 
ATOM     15  C   UNL     1      -4.139  -1.399  23.957  0.00  0.00    +0.016 C 
ATOM     16  C   UNL     1      -3.851  -2.052  24.370  0.00  0.00    +0.003 C 
ATOM     17  C   UNL     1      -3.539  -1.550  24.946  0.00  0.00    +0.016 C 
ENDBRANCH  12  14
ENDBRANCH   7   9
TORSDOF 2
ENDMDL
MODEL 3
REMARK VINA RESULT:     -10.4      1.405      4.407
REMARK  Name = 
REMARK  2 active torsions:
REMARK  status: ('A' for Active; 'I' for Inactive)
REMARK    1  A    between atoms: C_7  and  C_9
REMARK    2  A    between atoms: N_12  and  C_14
REMARK                            x       y       z     vdW  Elec       q    Type
REMARK                         _______ _______ _______ _____ _____    ______ ____
ROOT
ATOM      1  C   UNL     1      -5.445   3.747  25.550  0.00  0.00    +0.031 C 
ATOM      2  C   UNL     1      -4.968   3.159  25.225  0.00  0.00    -0.020 A 
ATOM      3  C   UNL     1      -5.161   2.365  25.332  0.00  0.00    +0.018 A 
ATOM      4  C   UNL     1      -4.683   1.776  25.006  0.00  0.00    +0.118 A 
ATOM      5  C   UNL     1      -4.012   1.982  24.573  0.00  0.00    +0.164 A 
ATOM      6  O   UNL     1      -3.648   1.287  24.320  0.00  0.00    -0.438 OA
ATOM      7  C   UNL     1      -4.094   0.651  24.596  0.00  0.00    +0.207 A 
ATOM      8  N   UNL     1      -4.733   0.954  25.020  0.00  0.00    -0.212 NA
ATOM     18  C   UNL     1      -3.818   2.778  24.465  0.00  0.00    +0.039 A 
ATOM     19  C   UNL     1      -4.297   3.366  24.791  0.00  0.00    -0.001 A 
ENDROOT
BRANCH   7   9
ATOM      9  C   UNL     1      -3.930  -0.148  24.470  0.00  0.00    +0.094 C 
ATOM     10  C   UNL     1      -4.448  -0.705  24.152  0.00  0.00    +0.028 C 
ATOM     11  C   UNL     1      -4.058  -1.432  24.125  0.00  0.00    +0.073 C 
ATOM     12  N   UNL     1      -3.297  -1.323  24.427  0.00  0.00    -0.274 NA
ATOM     13  C   UNL     1      -3.219  -0.529  24.640  0.00  0.00    +0.081 C 
BRANCH  12  14
ATOM     14  C   UNL     1      -2.718  -1.904  24.502  0.00  0.00    +0.058 C 
ATOM     15  C   UNL     1      -2.717  -2.729  24.513  0.00  0.00    +0.016 C 
ATOM     16  C   UNL     1      -1.897  -2.727  24.609  0.00  0.00    +0.003 C 
ATOM     17  C   UNL     1      -1.898  -1.902  24.598  0.00  0.00    +0.016 C 
ENDBRANCH  12  14
ENDBRANCH   7   9
TORSDOF 2
ENDMDL
MODEL 4
REMARK VINA RESULT:      -8.0     17.030     18.961
REMARK  Name = 
REMARK  2 active torsions:
REMARK  status: ('A' for Active; 'I' for Inactive)
REMARK    1  A    between atoms: C_7  and  C_9
REMARK    2  A    between atoms: N_12  and  C_14
REMARK                            x       y       z     vdW  Elec       q    Type
REMARK                         _______ _______ _______ _____ _____    ______ ____
ROOT
ATOM      1  C   UNL     1      17.405   6.094  19.219  0.00  0.00    +0.031 C 
ATOM      2  C   UNL     1      16.738   6.302  19.656  0.00  0.00    -0.020 A 
ATOM      3  C   UNL     1      16.003   6.353  19.288  0.00  0.00    +0.018 A 
ATOM      4  C   UNL     1      15.335   6.561  19.725  0.00  0.00    +0.118 A 
ATOM      5  C   UNL     1      15.403   6.719  20.532  0.00  0.00    +0.164 A 
ATOM      6  O   UNL     1      14.655   6.910  20.819  0.00  0.00    -0.438 OA
ATOM      7  C   UNL     1      14.123   6.870  20.190  0.00  0.00    +0.207 A 
ATOM      8  N   UNL     1      14.544   6.655  19.514  0.00  0.00    -0.212 NA
ATOM     18  C   UNL     1      16.140   6.668  20.901  0.00  0.00    +0.039 A 
ATOM     19  C   UNL     1      16.807   6.460  20.463  0.00  0.00    -0.001 A 
ENDROOT
BRANCH   7   9
ATOM      9  C   UNL     1      13.312   7.020  20.230  0.00  0.00    +0.094 C 
ATOM     10  C   UNL     1      12.837   7.285  19.610  0.00  0.00    +0.028 C 
ATOM     11  C   UNL     1      12.066   7.360  19.892  0.00  0.00    +0.073 C 
ATOM     12  N   UNL     1      12.064   7.141  20.688  0.00  0.00    -0.274 NA
ATOM     13  C   UNL     1      12.835   6.931  20.896  0.00  0.00    +0.081 C 
BRANCH  12  14
ATOM     14  C   UNL     1      11.408   7.134  21.188  0.00  0.00    +0.058 C 
ATOM     15  C   UNL     1      11.029   6.561  21.644  0.00  0.00    +0.016 C 
ATOM     16  C   UNL     1      10.480   7.123  21.895  0.00  0.00    +0.003 C 
ATOM     17  C   UNL     1      10.859   7.697  21.438  0.00  0.00    +0.016 C 
ENDBRANCH  12  14
ENDBRANCH   7   9
TORSDOF 2
ENDMDL
MODEL 5
REMARK VINA RESULT:      -7.9     16.852     18.790
REMARK  Name = 
REMARK  2 active torsions:
REMARK  status: ('A' for Active; 'I' for Inactive)
REMARK    1  A    between atoms: C_7  and  C_9
REMARK    2  A    between atoms: N_12  and  C_14
REMARK                            x       y       z     vdW  Elec       q    Type
REMARK                         _______ _______ _______ _____ _____    ______ ____
ROOT
ATOM      1  C   UNL     1      10.669   7.970  22.390  0.00  0.00    +0.031 C 
ATOM      2  C   UNL     1      11.181   7.552  21.898  0.00  0.00    -0.020 A 
ATOM      3  C   UNL     1      11.877   7.905  21.631  0.00  0.00    +0.018 A 
ATOM      4  C   UNL     1      12.390   7.486  21.138  0.00  0.00    +0.118 A 
ATOM      5  C   UNL     1      12.207   6.714  20.913  0.00  0.00    +0.164 A 
ATOM      6  O   UNL     1      12.813   6.439  20.427  0.00  0.00    -0.438 OA
ATOM      7  C   UNL     1      13.372   7.041  20.351  0.00  0.00    +0.207 A 
ATOM      8  N   UNL     1      13.109   7.688  20.791  0.00  0.00    -0.212 NA
ATOM     18  C   UNL     1      11.510   6.360  21.181  0.00  0.00    +0.039 A 
ATOM     19  C   UNL     1      10.998   6.779  21.673  0.00  0.00    -0.001 A 
ENDROOT
BRANCH   7   9
ATOM      9  C   UNL     1      14.069   7.004  19.913  0.00  0.00    +0.094 C 
ATOM     10  C   UNL     1      14.168   7.258  19.135  0.00  0.00    +0.028 C 
ATOM     11  C   UNL     1      14.950   7.117  18.916  0.00  0.00    +0.073 C 
ATOM     12  N   UNL     1      15.336   6.774  19.559  0.00  0.00    -0.274 NA
ATOM     13  C   UNL     1      14.791   6.704  20.175  0.00  0.00    +0.081 C 
BRANCH  12  14
ATOM     14  C   UNL     1      16.127   6.542  19.583  0.00  0.00    +0.058 C 
ATOM     15  C   UNL     1      16.610   6.066  19.113  0.00  0.00    +0.016 C 
ATOM     16  C   UNL     1      17.246   6.213  19.616  0.00  0.00    +0.003 C 
ATOM     17  C   UNL     1      16.764   6.690  20.087  0.00  0.00    +0.016 C 
ENDBRANCH  12  14
ENDBRANCH   7   9
TORSDOF 2
ENDMDL
MODEL 6
REMARK VINA RESULT:      -7.6     16.119     17.599
REMARK  Name = 
REMARK  2 active torsions:
REMARK  status: ('A' for Active; 'I' for Inactive)
REMARK    1  A    between atoms: C_7  and  C_9
REMARK    2  A    between atoms: N_12  and  C_14
REMARK                            x       y       z     vdW  Elec       q    Type
REMARK                         _______ _______ _______ _____ _____    ______ ____
ROOT
ATOM      1  C   UNL     1      10.774   8.917  22.984  0.00  0.00    +0.031 C 
ATOM      2  C   UNL     1      10.843   8.607  22.223  0.00  0.00    -0.020 A 
ATOM      3  C   UNL     1      11.136   9.076  21.612  0.00  0.00    +0.018 A 
ATOM      4  C   UNL     1      11.206   8.766  20.850  0.00  0.00    +0.118 A 
ATOM      5  C   UNL     1      10.981   7.987  20.700  0.00  0.00    +0.164 A 
ATOM      6  O   UNL     1      11.111   7.833  19.901  0.00  0.00    -0.438 OA
ATOM      7  C   UNL     1      11.415   8.517  19.556  0.00  0.00    +0.207 A 
ATOM      8  N   UNL     1      11.474   9.094  20.143  0.00  0.00    -0.212 NA
ATOM     18  C   UNL     1      10.687   7.517  21.312  0.00  0.00    +0.039 A 
ATOM     19  C   UNL     1      10.619   7.827  22.073  0.00  0.00    -0.001 A 
ENDROOT
BRANCH   7   9
ATOM      9  C   UNL     1      11.625   8.609  18.763  0.00  0.00    +0.094 C 
ATOM     10  C   UNL     1      12.393   8.622  18.463  0.00  0.00    +0.028 C 
ATOM     11  C   UNL     1      12.346   8.726  17.646  0.00  0.00    +0.073 C 
ATOM     12  N   UNL     1      11.549   8.776  17.441  0.00  0.00    -0.274 NA
ATOM     13  C   UNL     1      11.103   8.704  18.132  0.00  0.00    +0.081 C 
BRANCH  12  14
ATOM     14  C   UNL     1      11.249   8.881  16.680  0.00  0.00    +0.058 C 
ATOM     15  C   UNL     1      10.502   8.821  16.333  0.00  0.00    +0.016 C 
ATOM     16  C   UNL     1      10.825   9.028  15.603  0.00  0.00    +0.003 C 
ATOM     17  C   UNL     1      11.572   9.087  15.949  0.00  0.00    +0.016 C 
ENDBRANCH  12  14
ENDBRANCH   7   9
TORSDOF 2
ENDMDL
MODEL 7
REMARK VINA RESULT:      -7.5     17.963     19.182
REMARK  Name = 
REMARK  2 active torsions:
REMARK  status: ('A' for Active; 'I' for Inactive)
REMARK    1  A    between atoms: C_7  and  C_9
REMARK    2  A    between atoms: N_12  and  C_14
REMARK                            x       y       z     vdW  Elec       q    Type
REMARK                         _______ _______ _______ _____ _____    ______ ____
ROOT
ATOM      1  C   UNL     1      16.599   6.445  19.530  0.00  0.00    +0.031 C 
ATOM      2  C   UNL     1      15.799   6.632  19.593  0.00  0.00    -0.020 A 
ATOM      3  C   UNL     1      15.425   7.052  18.990  0.00  0.00    +0.018 A 
ATOM      4  C   UNL     1      14.624   7.240  19.053  0.00  0.00    +0.118 A 
ATOM      5  C   UNL     1      14.197   7.008  19.719  0.00  0.00    +0.164 A 
ATOM      6  O   UNL     1      13.421   7.270  19.629  0.00  0.00    -0.438 OA
ATOM      7  C   UNL     1      13.367   7.664  18.907  0.00  0.00    +0.207 A 
ATOM      8  N   UNL     1      14.111   7.645  18.551  0.00  0.00    -0.212 NA
ATOM     18  C   UNL     1      14.572   6.587  20.323  0.00  0.00    +0.039 A 
ATOM     19  C   UNL     1      15.372   6.400  20.259  0.00  0.00    -0.001 A 
ENDROOT
BRANCH   7   9
ATOM      9  C   UNL     1      12.688   8.015  18.595  0.00  0.00    +0.094 C 
ATOM     10  C   UNL     1      12.075   8.354  19.029  0.00  0.00    +0.028 C 
ATOM     11  C   UNL     1      11.511   8.638  18.497  0.00  0.00    +0.073 C 
ATOM     12  N   UNL     1      11.777   8.473  17.734  0.00  0.00    -0.274 NA
ATOM     13  C   UNL     1      12.504   8.088  17.794  0.00  0.00    +0.081 C 
BRANCH  12  14
ATOM     14  C   UNL     1      11.385   8.660  17.033  0.00  0.00    +0.058 C 
ATOM     15  C   UNL     1      11.576   9.087  16.353  0.00  0.00    +0.016 C 
ATOM     16  C   UNL     1      10.830   8.924  16.041  0.00  0.00    +0.003 C 
ATOM     17  C   UNL     1      10.638   8.498  16.720  0.00  0.00    +0.016 C 
ENDBRANCH  12  14
ENDBRANCH   7   9
TORSDOF 2
ENDMDL
MODEL 8
REMARK VINA RESULT:      -7.4     18.271     19.925
REMARK  Name = 
REMARK  2 active torsions:
REMARK  status: ('A' for Active; 'I' for Inactive)
REMARK    1  A    between atoms: C_7  and  C_9
REMARK    2  A    between atoms: N_12  and  C_14
REMARK                            x       y       z     vdW  Elec       q    Type
REMARK                         _______ _______ _______ _____ _____    ______ ____
ROOT
ATOM      1  C   UNL     1      10.856   8.709  16.852  0.00  0.00    +0.031 C 
ATOM      2  C   UNL     1      11.640   8.614  17.087  0.00  0.00    -0.020 A 
ATOM      3  C   UNL     1      11.832   8.073  17.678  0.00  0.00    +0.018 A 
ATOM      4  C   UNL     1      12.617   7.977  17.913  0.00  0.00    +0.118 A 
ATOM      5  C   UNL     1      13.211   8.425  17.555  0.00  0.00    +0.164 A 
ATOM      6  O   UNL     1      13.930   8.214  17.898  0.00  0.00    -0.438 OA
ATOM      7  C   UNL     1      13.782   7.636  18.468  0.00  0.00    +0.207 A 
ATOM      8  N   UNL     1      12.970   7.491  18.477  0.00  0.00    -0.212 NA
ATOM     18  C   UNL     1      13.020   8.967  16.963  0.00  0.00    +0.039 A 
ATOM     19  C   UNL     1      12.234   9.061  16.729  0.00  0.00    -0.001 A 
ENDROOT
BRANCH   7   9
ATOM      9  C   UNL     1      14.346   7.269  18.945  0.00  0.00    +0.094 C 
ATOM     10  C   UNL     1      14.224   6.986  19.710  0.00  0.00    +0.028 C 
ATOM     11  C   UNL     1      14.933   6.662  19.980  0.00  0.00    +0.073 C 
ATOM     12  N   UNL     1      15.494   6.744  19.380  0.00  0.00    -0.274 NA
ATOM     13  C   UNL     1      15.130   7.119  18.741  0.00  0.00    +0.081 C 
BRANCH  12  14
ATOM     14  C   UNL     1      16.279   6.495  19.414  0.00  0.00    +0.058 C 
ATOM     15  C   UNL     1      16.740   5.960  18.987  0.00  0.00    +0.016 C 
ATOM     16  C   UNL     1      17.391   6.143  19.461  0.00  0.00    +0.003 C 
ATOM     17  C   UNL     1      16.930   6.678  19.887  0.00  0.00    +0.016 C 
ENDBRANCH  12  14
ENDBRANCH   7   9
TORSDOF 2
ENDMDL
