MODEL 1
REMARK VINA RESULT:     -12.3      0.000      0.000
REMARK  Name = 
REMARK  8 active torsions:
REMARK  status: ('A' for Active; 'I' for Inactive)
REMARK    1  A    between atoms: C_2  and  C_3
REMARK    2  A    between atoms: C_3  and  C_4
REMARK    3  A    between atoms: C_4  and  C_5
REMARK    4  A    between atoms: C_12  and  N_15
REMARK    5  A    between atoms: N_15  and  C_16
REMARK    6  A    between atoms: C_16  and  C_17
REMARK    7  A    between atoms: N_23  and  C_24
REMARK    8  A    between atoms: C_24  and  C_25
REMARK                            x       y       z     vdW  Elec       q    Type
REMARK                         _______ _______ _______ _____ _____    ______ ____
ROOT
ATOM      5  C   UNL     1      -0.971   2.262  25.125  0.00  0.00    +0.080 C 
ATOM      6  C   UNL     1      -0.296   2.692  24.925  0.00  0.00    +0.131 C 
ATOM      7  N   UNL     1       0.313   2.331  24.500  0.00  0.00    -0.203 NA
ATOM      8  C   UNL     1       0.245   1.540  24.276  0.00  0.00    +0.256 C 
ATOM      9  O   UNL     1       0.854   1.180  23.851  0.00  0.00    -0.272 OA
ATOM     10  C   UNL     1      -0.430   1.110  24.476  0.00  0.00    +0.138 C 
ATOM     11  C   UNL     1      -0.649   0.328  24.331  0.00  0.00    +0.044 C 
ATOM     12  C   UNL     1      -1.393   0.206  24.666  0.00  0.00    +0.091 C 
ATOM     13  C   UNL     1      -1.634   0.912  25.018  0.00  0.00    +0.090 C 
ATOM     14  N   UNL     1      -1.037   1.471  24.900  0.00  0.00    -0.265 NA
ENDROOT
BRANCH   5   4
ATOM      4  C   UNL     1      -1.580   2.624  25.549  0.00  0.00    +0.027 C 
BRANCH   4   3
ATOM      3  C   UNL     1      -1.897   3.338  25.289  0.00  0.00    +0.088 C 
BRANCH   3   2
ATOM      1  O   UNL     1      -2.710   4.172  26.117  0.00  0.00    -0.273 OA
ATOM      2  C   UNL     1      -2.642   3.578  25.548  0.00  0.00    +0.242 C 
ATOM     23  N   UNL     1      -3.321   3.224  25.238  0.00  0.00    -0.201 NA
BRANCH  23  24
ATOM     24  C   UNL     1      -4.066   3.463  25.497  0.00  0.00    +0.141 C 
BRANCH  24  25
ATOM     25  C   UNL     1      -4.719   2.970  25.390  0.00  0.00    -0.001 A 
ATOM     26  C   UNL     1      -4.834   2.587  24.669  0.00  0.00    -0.003 A 
ATOM     27  C   UNL     1      -5.486   2.094  24.563  0.00  0.00    -0.000 A 
ATOM     28  C   UNL     1      -6.024   1.983  25.179  0.00  0.00    -0.000 A 
ATOM     29  C   UNL     1      -5.909   2.367  25.901  0.00  0.00    -0.000 A 
ATOM     30  C   UNL     1      -5.256   2.860  26.006  0.00  0.00    -0.003 A 
ENDBRANCH  24  25
ENDBRANCH  23  24
ENDBRANCH   3   2
ENDBRANCH   4   3
ENDBRANCH   5   4
BRANCH  12  15
ATOM     15  N   UNL     1      -1.821  -0.499  24.652  0.00  0.00    -0.213 NA
BRANCH  15  16
ATOM     16  C   UNL     1      -2.626  -0.498  24.833  0.00  0.00    +0.115 C 
BRANCH  16  17
ATOM     17  C   UNL     1      -3.094  -1.149  24.637  0.00  0.00    -0.005 A 
ATOM     18  C   UNL     1      -2.932  -1.888  24.965  0.00  0.00    -0.003 A 
ATOM     19  C   UNL     1      -3.400  -2.538  24.770  0.00  0.00    -0.000 A 
ATOM     20  C   UNL     1      -4.031  -2.449  24.245  0.00  0.00    -0.000 A 
ATOM     21  C   UNL     1      -4.193  -1.711  23.917  0.00  0.00    -0.000 A 
ATOM     22  C   UNL     1      -3.724  -1.060  24.113  0.00  0.00    -0.003 A 
ENDBRANCH  16  17
ENDBRANCH  15  16
ENDBRANCH  12  15
TORSDOF 8
ENDMDL
MODEL 2
REMARK VINA RESULT:     -12.2      1.613      4.031
REMARK  Name = 
REMARK  8 active torsions:
REMARK  status: ('A' for Active; 'I' for Inactive)
REMARK    1  A    between atoms: C_2  and  C_3
REMARK    2  A    between atoms: C_3  and  C_4
REMARK    3  A    between atoms: C_4  and  C_5
REMARK    4  A    between atoms: C_12  and  N_15
REMARK    5  A    between atoms: N_15  and  C_16
REMARK    6  A    between atoms: C_16  and  C_17
REMARK    7  A    between atoms: N_23  and  C_24
REMARK    8  A    between atoms: C_24  and  C_25
REMARK                            x       y       z     vdW  Elec       q    Type
REMARK                         _______ _______ _______ _____ _____    ______ ____
ROOT
ATOM      5  C   UNL     1      -4.596   2.980  25.258  0.00  0.00    +0.080 C 
ATOM      6  C   UNL     1      -5.116   3.459  25.684  0.00  0.00    +0.131 C 
ATOM      7  N   UNL     1      -5.798   3.134  26.018  0.00  0.00    -0.203 NA
ATOM      8  C   UNL     1      -5.959   2.330  25.924  0.00  0.00    +0.256 C 
ATOM      9  O   UNL     1      -6.641   2.006  26.258  0.00  0.00    -0.272 OA
ATOM     10  C   UNL     1      -5.440   1.851  25.498  0.00  0.00    +0.138 C 
ATOM     11  C   UNL     1      -5.454   1.047  25.316  0.00  0.00    +0.044 C 
ATOM     12  C   UNL     1      -4.781   0.875  24.871  0.00  0.00    +0.091 C 
ATOM     13  C   UNL     1      -4.351   1.572  24.777  0.00  0.00    +0.090 C 
ATOM     14  N   UNL     1      -4.759   2.176  25.166  0.00  0.00    -0.265 NA
ENDROOT
BRANCH   5   4
ATOM      4  C   UNL     1      -3.915   3.305  24.926  0.00  0.00    +0.027 C 
BRANCH   4   3
ATOM      3  C   UNL     1      -3.467   3.851  25.352  0.00  0.00    +0.088 C 
BRANCH   3   2
ATOM      1  O   UNL     1      -2.551   4.683  24.636  0.00  0.00    -0.273 OA
ATOM      2  C   UNL     1      -2.697   4.026  25.116  0.00  0.00    +0.242 C 
ATOM     23  N   UNL     1      -2.071   3.546  25.359  0.00  0.00    -0.201 NA
BRANCH  23  24
ATOM     24  C   UNL     1      -1.301   3.721  25.123  0.00  0.00    +0.141 C 
BRANCH  24  25
ATOM     25  C   UNL     1      -0.707   3.153  25.197  0.00  0.00    -0.001 A 
ATOM     26  C   UNL     1      -0.416   2.954  25.942  0.00  0.00    -0.003 A 
ATOM     27  C   UNL     1       0.178   2.386  26.015  0.00  0.00    -0.000 A 
ATOM     28  C   UNL     1       0.481   2.017  25.342  0.00  0.00    -0.000 A 
ATOM     29  C   UNL     1       0.190   2.217  24.595  0.00  0.00    -0.000 A 
ATOM     30  C   UNL     1      -0.404   2.785  24.523  0.00  0.00    -0.003 A 
ENDBRANCH  24  25
ENDBRANCH  23  24
ENDBRANCH   3   2
ENDBRANCH   4   3
ENDBRANCH   5   4
BRANCH  12  15
ATOM     15  N   UNL     1      -4.575   0.134  24.572  0.00  0.00    -0.213 NA
BRANCH  15  16
ATOM     16  C   UNL     1      -3.969  -0.300  24.925  0.00  0.00    +0.115 C 
BRANCH  16  17
ATOM     17  C   UNL     1      -3.871  -1.099  24.740  0.00  0.00    -0.005 A 
ATOM     18  C   UNL     1      -4.161  -1.395  24.027  0.00  0.00    -0.003 A 
ATOM     19  C   UNL     1      -4.063  -2.193  23.842  0.00  0.00    -0.000 A 
ATOM     20  C   UNL     1      -3.674  -2.695  24.370  0.00  0.00    -0.000 A 
ATOM     21  C   UNL     1      -3.385  -2.398  25.082  0.00  0.00    -0.000 A 
ATOM     22  C   UNL     1      -3.482  -1.599  25.268  0.00  0.00    -0.003 A 
ENDBRANCH  16  17
ENDBRANCH  15  16
ENDBRANCH  12  15
TORSDOF 8
ENDMDL
MODEL 3
REMARK VINA RESULT:     -12.2      1.929      5.600
REMARK  Name = 
REMARK  8 active torsions:
REMARK  status: ('A' for Active; 'I' for Inactive)
REMARK    1  A    between atoms: C_2  and  C_3
REMARK    2  A    between atoms: C_3  and  C_4
REMARK    3  A    between atoms: C_4  and  C_5
REMARK    4  A    between atoms: C_12  and  N_15
REMARK    5  A    between atoms: N_15  and  C_16
REMARK    6  A    between atoms: C_16  and  C_17
REMARK    7  A    between atoms: N_23  and  C_24
REMARK    8  A    between atoms: C_24  and  C_25
REMARK                            x       y       z     vdW  Elec       q    Type
REMARK                         _______ _______ _______ _____ _____    ______ ____
ROOT
ATOM      5  C   UNL     1      -4.940   1.468  25.009  0.00  0.00    +0.080 C 
ATOM      6  C   UNL     1      -5.692   1.339  25.323  0.00  0.00    +0.131 C 
ATOM      7  N   UNL     1      -6.094   1.955  25.699  0.00  0.00    -0.203 NA
ATOM      8  C   UNL     1      -5.743   2.699  25.760  0.00  0.00    +0.256 C 
ATOM      9  O   UNL     1      -6.144   3.314  26.135  0.00  0.00    -0.272 OA
ATOM     10  C   UNL     1      -4.991   2.828  25.446  0.00  0.00    +0.138 C 
ATOM     11  C   UNL     1      -4.509   3.497  25.423  0.00  0.00    +0.044 C 
ATOM     12  C   UNL     1      -3.810   3.295  25.033  0.00  0.00    +0.091 C 
ATOM     13  C   UNL     1      -3.860   2.501  24.816  0.00  0.00    +0.090 C 
ATOM     14  N   UNL     1      -4.590   2.212  25.071  0.00  0.00    -0.265 NA
ENDROOT
BRANCH   5   4
ATOM      4  C   UNL     1      -4.540   0.852  24.634  0.00  0.00    +0.027 C 
BRANCH   4   3
ATOM      3  C   UNL     1      -4.540   0.097  24.966  0.00  0.00    +0.088 C 
BRANCH   3   2
ATOM      1  O   UNL     1      -4.431  -0.921  23.969  0.00  0.00    -0.273 OA
ATOM      2  C   UNL     1      -4.110  -0.510  24.610  0.00  0.00    +0.242 C 
ATOM     23  N   UNL     1      -3.361  -0.707  24.893  0.00  0.00    -0.201 NA
BRANCH  23  24
ATOM     24  C   UNL     1      -2.931  -1.314  24.537  0.00  0.00    +0.141 C 
BRANCH  24  25
ATOM     25  C   UNL     1      -2.154  -1.464  24.771  0.00  0.00    -0.001 A 
ATOM     26  C   UNL     1      -1.717  -0.877  25.150  0.00  0.00    -0.003 A 
ATOM     27  C   UNL     1      -0.940  -1.026  25.384  0.00  0.00    -0.000 A 
ATOM     28  C   UNL     1      -0.601  -1.764  25.239  0.00  0.00    -0.000 A 
ATOM     29  C   UNL     1      -1.039  -2.352  24.860  0.00  0.00    -0.000 A 
ATOM     30  C   UNL     1      -1.815  -2.202  24.626  0.00  0.00    -0.003 A 
ENDBRANCH  24  25
ENDBRANCH  23  24
ENDBRANCH   3   2
ENDBRANCH   4   3
ENDBRANCH   5   4
BRANCH  12  15
ATOM     15  N   UNL     1      -3.174   3.799  24.888  0.00  0.00    -0.213 NA
BRANCH  15  16
ATOM     16  C   UNL     1      -2.543   3.831  25.418  0.00  0.00    +0.115 C 
BRANCH  16  17
ATOM     17  C   UNL     1      -1.848   4.225  25.209  0.00  0.00    -0.005 A 
ATOM     18  C   UNL     1      -1.169   3.795  25.026  0.00  0.00    -0.003 A 
ATOM     19  C   UNL     1      -0.475   4.188  24.817  0.00  0.00    -0.000 A 
ATOM     20  C   UNL     1      -0.460   5.014  24.792  0.00  0.00    -0.000 A 
ATOM     21  C   UNL     1      -1.138   5.444  24.976  0.00  0.00    -0.000 A 
ATOM     22  C   UNL     1      -1.833   5.050  25.184  0.00  0.00    -0.003 A 
ENDBRANCH  16  17
ENDBRANCH  15  16
ENDBRANCH  12  15
TORSDOF 8
ENDMDL
MODEL 4
REMARK VINA RESULT:     -12.2      0.981      4.023
REMARK  Name = 
REMARK  8 active torsions:
REMARK  status: ('A' for Active; 'I' for Inactive)
REMARK    1  A    between atoms: C_2  and  C_3
REMARK    2  A    between atoms: C_3  and  C_4
REMARK    3  A    between atoms: C_4  and  C_5
REMARK    4  A    between atoms: C_12  and  N_15
REMARK    5  A    between atoms: N_15  and  C_16
REMARK    6  A    between atoms: C_16  and  C_17
REMARK    7  A    between atoms: N_23  and  C_24
REMARK    8  A    between atoms: C_24  and  C_25
REMARK                            x       y       z     vdW  Elec       q    Type
REMARK                         _______ _______ _______ _____ _____    ______ ____
ROOT
ATOM      5  C   UNL     1      -0.670   1.355  24.961  0.00  0.00    +0.080 C 
ATOM      6  C   UNL     1       0.089   1.531  24.689  0.00  0.00    +0.131 C 
ATOM      7  N   UNL     1       0.259   2.283  24.395  0.00  0.00    -0.203 NA
ATOM      8  C   UNL     1      -0.332   2.859  24.373  0.00  0.00    +0.256 C 
ATOM      9  O   UNL     1      -0.162   3.611  24.079  0.00  0.00    -0.272 OA
ATOM     10  C   UNL     1      -1.091   2.683  24.644  0.00  0.00    +0.138 C 
ATOM     11  C   UNL     1      -1.779   3.136  24.690  0.00  0.00    +0.044 C 
ATOM     12  C   UNL     1      -2.374   2.663  25.013  0.00  0.00    +0.091 C 
ATOM     13  C   UNL     1      -2.053   1.919  25.166  0.00  0.00    +0.090 C 
ATOM     14  N   UNL     1      -1.259   1.932  24.938  0.00  0.00    -0.265 NA
ENDROOT
BRANCH   5   4
ATOM      4  C   UNL     1      -0.838   0.602  25.254  0.00  0.00    +0.027 C 
BRANCH   4   3
ATOM      3  C   UNL     1      -0.665  -0.065  24.803  0.00  0.00    +0.088 C 
BRANCH   3   2
ATOM      1  O   UNL     1      -0.618  -1.301  25.519  0.00  0.00    -0.273 OA
ATOM      2  C   UNL     1      -1.003  -0.792  24.995  0.00  0.00    +0.242 C 
ATOM     23  N   UNL     1      -1.727  -1.012  24.664  0.00  0.00    -0.201 NA
BRANCH  23  24
ATOM     24  C   UNL     1      -2.065  -1.738  24.856  0.00  0.00    +0.141 C 
BRANCH  24  25
ATOM     25  C   UNL     1      -2.812  -1.936  24.566  0.00  0.00    -0.001 A 
ATOM     26  C   UNL     1      -3.333  -1.343  24.328  0.00  0.00    -0.003 A 
ATOM     27  C   UNL     1      -4.079  -1.541  24.038  0.00  0.00    -0.000 A 
ATOM     28  C   UNL     1      -4.304  -2.333  23.986  0.00  0.00    -0.000 A 
ATOM     29  C   UNL     1      -3.783  -2.927  24.224  0.00  0.00    -0.000 A 
ATOM     30  C   UNL     1      -3.037  -2.728  24.514  0.00  0.00    -0.003 A 
ENDBRANCH  24  25
ENDBRANCH  23  24
ENDBRANCH   3   2
ENDBRANCH   4   3
ENDBRANCH   5   4
BRANCH  12  15
ATOM     15  N   UNL     1      -3.152   2.894  25.157  0.00  0.00    -0.213 NA
BRANCH  15  16
ATOM     16  C   UNL     1      -3.759   2.631  24.664  0.00  0.00    +0.115 C 
BRANCH  16  17
ATOM     17  C   UNL     1      -4.536   2.610  24.941  0.00  0.00    -0.005 A 
ATOM     18  C   UNL     1      -5.009   1.950  24.795  0.00  0.00    -0.003 A 
ATOM     19  C   UNL     1      -5.785   1.929  25.072  0.00  0.00    -0.000 A 
ATOM     20  C   UNL     1      -6.089   2.568  25.496  0.00  0.00    -0.000 A 
ATOM     21  C   UNL     1      -5.617   3.227  25.643  0.00  0.00    -0.000 A 
ATOM     22  C   UNL     1      -4.840   3.249  25.366  0.00  0.00    -0.003 A 
ENDBRANCH  16  17
ENDBRANCH  15  16
ENDBRANCH  12  15
TORSDOF 8
ENDMDL
MODEL 5
REMARK VINA RESULT:     -11.7      1.405      3.653
REMARK  Name = 
REMARK  8 active torsions:
REMARK  status: ('A' for Active; 'I' for Inactive)
REMARK    1  A    between atoms: C_2  and  C_3
REMARK    2  A    between atoms: C_3  and  C_4
REMARK    3  A    between atoms: C_4  and  C_5
REMARK    4  A    between atoms: C_12  and  N_15
REMARK    5  A    between atoms: N_15  and  C_16
REMARK    6  A    between atoms: C_16  and  C_17
REMARK    7  A    between atoms: N_23  and  C_24
REMARK    8  A    between atoms: C_24  and  C_25
REMARK                            x       y       z     vdW  Elec       q    Type
REMARK                         _______ _______ _______ _____ _____    ______ ____
ROOT
ATOM      5  C   UNL     1      -1.147  -0.161  25.098  0.00  0.00    +0.080 C 
ATOM      6  C   UNL     1      -0.647  -0.780  24.880  0.00  0.00    +0.131 C 
ATOM      7  N   UNL     1      -0.966  -1.497  24.621  0.00  0.00    -0.203 NA
ATOM      8  C   UNL     1      -1.785  -1.592  24.580  0.00  0.00    +0.256 C 
ATOM      9  O   UNL     1      -2.103  -2.307  24.321  0.00  0.00    -0.272 OA
ATOM     10  C   UNL     1      -2.284  -0.972  24.798  0.00  0.00    +0.138 C 
ATOM     11  C   UNL     1      -3.106  -0.906  24.815  0.00  0.00    +0.044 C 
ATOM     12  C   UNL     1      -3.295  -0.149  25.084  0.00  0.00    +0.091 C 
ATOM     13  C   UNL     1      -2.591   0.252  25.234  0.00  0.00    +0.090 C 
ATOM     14  N   UNL     1      -1.965  -0.258  25.056  0.00  0.00    -0.265 NA
ENDROOT
BRANCH   5   4
ATOM      4  C   UNL     1      -0.827   0.554  25.357  0.00  0.00    +0.027 C 
BRANCH   4   3
ATOM      3  C   UNL     1      -0.422   1.041  24.829  0.00  0.00    +0.088 C 
BRANCH   3   2
ATOM      1  O   UNL     1       0.620   1.872  25.345  0.00  0.00    -0.273 OA
ATOM      2  C   UNL     1      -0.155   1.782  25.072  0.00  0.00    +0.242 C 
ATOM     23  N   UNL     1      -0.661   2.433  25.045  0.00  0.00    -0.201 NA
BRANCH  23  24
ATOM     24  C   UNL     1      -0.393   3.174  25.288  0.00  0.00    +0.141 C 
BRANCH  24  25
ATOM     25  C   UNL     1      -0.905   3.821  25.280  0.00  0.00    -0.001 A 
ATOM     26  C   UNL     1      -0.691   4.512  24.883  0.00  0.00    -0.003 A 
ATOM     27  C   UNL     1      -1.203   5.159  24.875  0.00  0.00    -0.000 A 
ATOM     28  C   UNL     1      -1.929   5.115  25.264  0.00  0.00    -0.000 A 
ATOM     29  C   UNL     1      -2.144   4.424  25.661  0.00  0.00    -0.000 A 
ATOM     30  C   UNL     1      -1.631   3.777  25.669  0.00  0.00    -0.003 A 
ENDBRANCH  24  25
ENDBRANCH  23  24
ENDBRANCH   3   2
ENDBRANCH   4   3
ENDBRANCH   5   4
BRANCH  12  15
ATOM     15  N   UNL     1      -4.056   0.152  25.186  0.00  0.00    -0.213 NA
BRANCH  15  16
ATOM     16  C   UNL     1      -4.369   0.679  24.634  0.00  0.00    +0.115 C 
BRANCH  16  17
ATOM     17  C   UNL     1      -4.868   1.289  24.881  0.00  0.00    -0.005 A 
ATOM     18  C   UNL     1      -5.492   1.129  25.394  0.00  0.00    -0.003 A 
ATOM     19  C   UNL     1      -5.990   1.738  25.641  0.00  0.00    -0.000 A 
ATOM     20  C   UNL     1      -5.863   2.509  25.373  0.00  0.00    -0.000 A 
ATOM     21  C   UNL     1      -5.239   2.669  24.860  0.00  0.00    -0.000 A 
ATOM     22  C   UNL     1      -4.741   2.059  24.613  0.00  0.00    -0.003 A 
ENDBRANCH  16  17
ENDBRANCH  15  16
ENDBRANCH  12  15
TORSDOF 8
ENDMDL
MODEL 6
REMARK VINA RESULT:     -11.7      1.495      3.840
REMARK  Name = 
REMARK  8 active torsions:
REMARK  status: ('A' for Active; 'I' for Inactive)
REMARK    1  A    between atoms: C_2  and  C_3
REMARK    2  A    between atoms: C_3  and  C_4
REMARK    3  A    between atoms: C_4  and  C_5
REMARK    4  A    between atoms: C_12  and  N_15
REMARK    5  A    between atoms: N_15  and  C_16
REMARK    6  A    between atoms: C_16  and  C_17
REMARK    7  A    between atoms: N_23  and  C_24
REMARK    8  A    between atoms: C_24  and  C_25
REMARK                            x       y       z     vdW  Elec       q    Type
REMARK                         _______ _______ _______ _____ _____    ______ ____
ROOT
ATOM      5  C   UNL     1      -1.426  -0.352  24.809  0.00  0.00    +0.080 C 
ATOM      6  C   UNL     1      -1.113  -1.066  24.542  0.00  0.00    +0.131 C 
ATOM      7  N   UNL     1      -0.399  -1.075  24.128  0.00  0.00    -0.203 NA
ATOM      8  C   UNL     1       0.001  -0.369  23.981  0.00  0.00    +0.256 C 
ATOM      9  O   UNL     1       0.714  -0.378  23.566  0.00  0.00    -0.272 OA
ATOM     10  C   UNL     1      -0.313   0.346  24.248  0.00  0.00    +0.138 C 
ATOM     11  C   UNL     1      -0.045   1.124  24.185  0.00  0.00    +0.044 C 
ATOM     12  C   UNL     1      -0.593   1.613  24.561  0.00  0.00    +0.091 C 
ATOM     13  C   UNL     1      -1.199   1.138  24.856  0.00  0.00    +0.090 C 
ATOM     14  N   UNL     1      -1.026   0.355  24.662  0.00  0.00    -0.265 NA
ENDROOT
BRANCH   5   4
ATOM      4  C   UNL     1      -2.140  -0.344  25.224  0.00  0.00    +0.027 C 
BRANCH   4   3
ATOM      3  C   UNL     1      -2.822  -0.651  24.878  0.00  0.00    +0.088 C 
BRANCH   3   2
ATOM      1  O   UNL     1      -3.940  -0.933  25.722  0.00  0.00    -0.273 OA
ATOM      2  C   UNL     1      -3.563  -0.445  25.173  0.00  0.00    +0.242 C 
ATOM     23  N   UNL     1      -3.930   0.250  24.920  0.00  0.00    -0.201 NA
BRANCH  23  24
ATOM     24  C   UNL     1      -4.671   0.457  25.215  0.00  0.00    +0.141 C 
BRANCH  24  25
ATOM     25  C   UNL     1      -4.932   1.239  25.169  0.00  0.00    -0.001 A 
ATOM     26  C   UNL     1      -4.702   1.713  24.535  0.00  0.00    -0.003 A 
ATOM     27  C   UNL     1      -4.962   2.495  24.488  0.00  0.00    -0.000 A 
ATOM     28  C   UNL     1      -5.453   2.801  25.077  0.00  0.00    -0.000 A 
ATOM     29  C   UNL     1      -5.683   2.326  25.711  0.00  0.00    -0.000 A 
ATOM     30  C   UNL     1      -5.422   1.545  25.757  0.00  0.00    -0.003 A 
ENDBRANCH  24  25
ENDBRANCH  23  24
ENDBRANCH   3   2
ENDBRANCH   4   3
ENDBRANCH   5   4
BRANCH  12  15
ATOM     15  N   UNL     1      -0.543   2.434  24.630  0.00  0.00    -0.213 NA
BRANCH  15  16
ATOM     16  C   UNL     1      -0.852   2.812  25.295  0.00  0.00    +0.115 C 
BRANCH  16  17
ATOM     17  C   UNL     1      -1.084   3.604  25.249  0.00  0.00    -0.005 A 
ATOM     18  C   UNL     1      -0.586   4.159  24.899  0.00  0.00    -0.003 A 
ATOM     19  C   UNL     1      -0.817   4.950  24.853  0.00  0.00    -0.000 A 
ATOM     20  C   UNL     1      -1.548   5.184  25.157  0.00  0.00    -0.000 A 
ATOM     21  C   UNL     1      -2.046   4.628  25.507  0.00  0.00    -0.000 A 
ATOM     22  C   UNL     1      -1.814   3.837  25.553  0.00  0.00    -0.003 A 
ENDBRANCH  16  17
ENDBRANCH  15  16
ENDBRANCH  12  15
TORSDOF 8
ENDMDL
