REMARK  Name = 
REMARK  2 active torsions:
REMARK  status: ('A' for Active; 'I' for Inactive)
REMARK    1  A    between atoms: C_2  and  C_22
REMARK    2  A    between atoms: C_10  and  C_17
REMARK                            x       y       z     vdW  Elec       q    Type
REMARK                         _______ _______ _______ _____ _____    ______ ____
ROOT
ATOM      1  O   UNL     1      -0.614  -2.179   0.000  0.00  0.00    -0.270 OA
ATOM      2  C   UNL     1       0.125  -2.547   0.000  0.00  0.00    +0.249 C 
ATOM      3  N   UNL     1       0.813  -2.091   0.000  0.00  0.00    -0.276 N 
ATOM      4  C   UNL     1       1.629  -1.912   0.000  0.00  0.00    +0.096 C 
ATOM      5  C   UNL     1       1.582  -0.925   0.000  0.00  0.00    +0.043 C 
ATOM      6  C   UNL     1       1.713  -0.121   0.000  0.00  0.00    +0.011 C 
ATOM      7  C   UNL     1       1.163  -0.557   0.000  0.00  0.00    +0.058 C 
ATOM      8  C   UNL     1       1.225  -1.510   0.000  0.00  0.00    +0.099 C 
ATOM      9  C   UNL     1       0.244  -0.558   0.000  0.00  0.00    +0.042 A 
ATOM     10  C   UNL     1      -0.397  -0.039   0.000  0.00  0.00    +0.018 A 
ATOM     11  C   UNL     1      -1.167  -0.335   0.000  0.00  0.00    +0.006 A 
ATOM     12  C   UNL     1      -1.296  -1.150   0.000  0.00  0.00    +0.061 A 
ATOM     13  C   UNL     1      -0.655  -1.669   0.000  0.00  0.00    +0.261 A 
ATOM     14  O   UNL     1      -1.029  -2.404   0.000  0.00  0.00    -0.267 OA
ATOM     15  N   UNL     1       0.115  -1.373   0.000  0.00  0.00    -0.299 N 
ATOM     16  C   UNL     1       0.622  -0.936   0.000  0.00  0.00    +0.110 C 
ENDROOT
BRANCH   2  22
ATOM     22  C   UNL     1       0.176  -3.370   0.000  0.00  0.00    +0.057 A 
ATOM     23  C   UNL     1       0.914  -3.738   0.000  0.00  0.00    +0.025 A 
ATOM     24  C   UNL     1       0.965  -4.562   0.000  0.00  0.00    +0.099 A 
ATOM     25  N   UNL     1       0.277  -5.017   0.000  0.00  0.00    -0.242 NA
ATOM     26  C   UNL     1      -0.461  -4.650   0.000  0.00  0.00    +0.099 A 
ATOM     27  C   UNL     1      -0.512  -3.826   0.000  0.00  0.00    +0.025 A 
ENDBRANCH   2  22
BRANCH  10  17
ATOM     17  C   UNL     1      -0.268   0.776   0.000  0.00  0.00    +0.031 A 
ATOM     18  C   UNL     1      -0.851   1.359   0.000  0.00  0.00    +0.007 A 
ATOM     19  C   UNL     1      -0.477   2.094   0.000  0.00  0.00    +0.007 A 
ATOM     20  C   UNL     1       0.338   1.965   0.000  0.00  0.00    +0.035 A 
ATOM     21  S   UNL     1       0.467   1.151   0.000  0.00  0.00    -0.086 S 
ENDBRANCH  10  17
TORSDOF 2
