REMARK  Name = 
REMARK  6 active torsions:
REMARK  status: ('A' for Active; 'I' for Inactive)
REMARK    1  A    between atoms: C_2  and  O_5
REMARK    2  A    between atoms: O_5  and  C_6
REMARK    3  A    between atoms: C_9  and  C_12
REMARK    4  A    between atoms: C_15  and  C_17
REMARK    5  A    between atoms: N_22  and  C_23
REMARK    6  A    between atoms: C_23  and  C_24
REMARK                            x       y       z     vdW  Elec       q    Type
REMARK                         _______ _______ _______ _____ _____    ______ ____
ROOT
ATOM     12  C   UNL     1       1.127  -2.507   0.000  0.00  0.00    +0.102 A 
ATOM     13  C   UNL     1       0.302  -2.507   0.000  0.00  0.00    +0.119 A 
ATOM     14  N   UNL     1       0.047  -1.722   0.000  0.00  0.00    -0.226 NA
ATOM     15  C   UNL     1       0.715  -1.238   0.000  0.00  0.00    +0.156 A 
ATOM     16  N   UNL     1       1.382  -1.722   0.000  0.00  0.00    -0.228 NA
ENDROOT
BRANCH  12   9
ATOM      6  C   UNL     1       2.582  -4.509   0.000  0.00  0.00    +0.147 A 
ATOM      7  C   UNL     1       1.761  -4.596   0.000  0.00  0.00    +0.037 A 
ATOM      8  C   UNL     1       1.276  -3.928   0.000  0.00  0.00    +0.005 A 
ATOM      9  C   UNL     1       1.612  -3.175   0.000  0.00  0.00    +0.019 A 
ATOM     10  C   UNL     1       2.432  -3.088   0.000  0.00  0.00    +0.005 A 
ATOM     11  C   UNL     1       2.917  -3.756   0.000  0.00  0.00    +0.037 A 
BRANCH   6   5
ATOM      5  O   UNL     1       3.067  -5.177   0.000  0.00  0.00    -0.404 OA
BRANCH   5   2
ATOM      1  F   UNL     1       4.708  -5.004   0.000  0.00  0.00    -0.133 F 
ATOM      2  C   UNL     1       3.887  -5.091   0.000  0.00  0.00    +0.575 C 
ATOM      3  F   UNL     1       3.801  -4.270   0.000  0.00  0.00    -0.133 F 
ATOM      4  F   UNL     1       3.973  -5.911   0.000  0.00  0.00    -0.133 F 
ENDBRANCH   5   2
ENDBRANCH   6   5
ENDBRANCH  12   9
BRANCH  15  17
ATOM     17  C   UNL     1       0.715  -0.412   0.000  0.00  0.00    +0.147 C 
ATOM     18  C   UNL     1       0.000   0.000   0.000  0.00  0.00    +0.166 C 
ATOM     19  O   UNL     1       0.000   0.825   0.000  0.00  0.00    -0.350 OA
ATOM     20  C   UNL     1       0.715   1.238   0.000  0.00  0.00    +0.160 C 
ATOM     21  C   UNL     1       1.429   0.825   0.000  0.00  0.00    +0.105 C 
ATOM     22  N   UNL     1       1.429   0.000   0.000  0.00  0.00    -0.264 NA
BRANCH  22  23
ATOM     23  C   UNL     1       2.143  -0.412   0.000  0.00  0.00    +0.073 C 
BRANCH  23  24
ATOM     24  C   UNL     1       2.143  -1.238   0.000  0.00  0.00    +0.016 C 
ATOM     25  C   UNL     1       2.556  -1.952   0.000  0.00  0.00    +0.001 C 
ATOM     26  C   UNL     1       1.731  -1.952   0.000  0.00  0.00    +0.001 C 
ENDBRANCH  23  24
ENDBRANCH  22  23
ENDBRANCH  15  17
TORSDOF 6
