MODEL 1
REMARK VINA RESULT:      -9.7      0.000      0.000
REMARK  Name = 
REMARK  7 active torsions:
REMARK  status: ('A' for Active; 'I' for Inactive)
REMARK    1  A    between atoms: C_2  and  C_4
REMARK    2  A    between atoms: C_6  and  C_7
REMARK    3  A    between atoms: C_7  and  C_8
REMARK    4  A    between atoms: C_11  and  C_13
REMARK    5  A    between atoms: C_22  and  C_23
REMARK    6  A    between atoms: C_23  and  N_24
REMARK    7  A    between atoms: C_25  and  C_27
REMARK                            x       y       z     vdW  Elec       q    Type
REMARK                         _______ _______ _______ _____ _____    ______ ____
ROOT
ATOM      4  C   UNL     1      -1.331   0.968  24.797  0.00  0.00    +0.006 C 
ATOM      5  C   UNL     1      -1.750   1.618  25.084  0.00  0.00    +0.005 C 
ATOM      6  C   UNL     1      -1.482   2.382  24.931  0.00  0.00    +0.027 C 
ATOM     19  C   UNL     1      -0.794   2.498  24.491  0.00  0.00    -0.048 C 
ATOM     20  C   UNL     1      -0.525   3.263  24.338  0.00  0.00    +0.026 C 
ATOM     21  C   UNL     1      -0.374   1.848  24.203  0.00  0.00    -0.033 C 
ATOM     22  C   UNL     1      -0.642   1.084  24.356  0.00  0.00    +0.043 C 
ENDROOT
BRANCH   4   2
ATOM      1  C   UNL     1      -1.358  -0.189  25.634  0.00  0.00    +0.000 C 
ATOM      2  C   UNL     1      -1.599   0.203  24.950  0.00  0.00    +0.000 C 
ATOM      3  C   UNL     1      -2.109  -0.168  24.419  0.00  0.00    +0.000 C 
ENDBRANCH   4   2
BRANCH   6   7
ATOM      7  C   UNL     1      -1.901   3.032  25.219  0.00  0.00    +0.091 C 
BRANCH   7   8
ATOM      8  C   UNL     1      -2.698   3.128  25.026  0.00  0.00    +0.227 A 
ATOM      9  N   UNL     1      -3.002   3.653  24.468  0.00  0.00    -0.111 NA
ATOM     10  N   UNL     1      -3.823   3.565  24.455  0.00  0.00    -0.107 NA
ATOM     11  C   UNL     1      -4.025   2.984  25.004  0.00  0.00    +0.250 A 
ATOM     12  O   UNL     1      -3.330   2.713  25.358  0.00  0.00    -0.420 OA
BRANCH  11  13
ATOM     13  C   UNL     1      -4.788   2.719  25.171  0.00  0.00    +0.058 A 
ATOM     14  C   UNL     1      -5.214   3.054  25.794  0.00  0.00    +0.025 A 
ATOM     15  C   UNL     1      -5.977   2.790  25.962  0.00  0.00    +0.099 A 
ATOM     16  N   UNL     1      -6.315   2.191  25.507  0.00  0.00    -0.242 NA
ATOM     17  C   UNL     1      -5.890   1.856  24.884  0.00  0.00    +0.099 A 
ATOM     18  C   UNL     1      -5.127   2.120  24.717  0.00  0.00    +0.025 A 
ENDBRANCH  11  13
ENDBRANCH   7   8
ENDBRANCH   6   7
BRANCH  22  23
ATOM     23  C   UNL     1      -0.223   0.434  24.069  0.00  0.00    +0.120 C 
BRANCH  23  24
ATOM     24  N   UNL     1       0.465   0.548  23.628  0.00  0.00    -0.200 NA
ATOM     25  C   UNL     1       0.870  -0.101  23.322  0.00  0.00    +0.284 C 
ATOM     26  O   UNL     1       0.588  -0.865  23.455  0.00  0.00    -0.267 OA
BRANCH  25  27
ATOM     27  C   UNL     1       1.559   0.013  22.881  0.00  0.00    +0.155 A 
ATOM     28  C   UNL     1       1.592  -0.236  22.095  0.00  0.00    +0.123 A 
ATOM     29  N   UNL     1       2.280  -0.122  21.655  0.00  0.00    -0.239 NA
ATOM     30  C   UNL     1       2.936   0.242  22.000  0.00  0.00    +0.120 A 
ATOM     31  C   UNL     1       2.902   0.490  22.786  0.00  0.00    +0.120 A 
ATOM     32  N   UNL     1       2.214   0.376  23.226  0.00  0.00    -0.236 NA
ENDBRANCH  25  27
ENDBRANCH  23  24
ENDBRANCH  22  23
TORSDOF 7
ENDMDL
MODEL 2
REMARK VINA RESULT:      -9.5      3.008      4.565
REMARK  Name = 
REMARK  7 active torsions:
REMARK  status: ('A' for Active; 'I' for Inactive)
REMARK    1  A    between atoms: C_2  and  C_4
REMARK    2  A    between atoms: C_6  and  C_7
REMARK    3  A    between atoms: C_7  and  C_8
REMARK    4  A    between atoms: C_11  and  C_13
REMARK    5  A    between atoms: C_22  and  C_23
REMARK    6  A    between atoms: C_23  and  N_24
REMARK    7  A    between atoms: C_25  and  C_27
REMARK                            x       y       z     vdW  Elec       q    Type
REMARK                         _______ _______ _______ _____ _____    ______ ____
ROOT
ATOM      4  C   UNL     1      -3.560   1.570  23.881  0.00  0.00    +0.006 C 
ATOM      5  C   UNL     1      -3.678   2.312  24.220  0.00  0.00    +0.005 C 
ATOM      6  C   UNL     1      -4.265   2.417  24.789  0.00  0.00    +0.027 C 
ATOM     19  C   UNL     1      -4.735   1.780  25.019  0.00  0.00    -0.048 C 
ATOM     20  C   UNL     1      -5.323   1.886  25.588  0.00  0.00    +0.026 C 
ATOM     21  C   UNL     1      -4.617   1.037  24.680  0.00  0.00    -0.033 C 
ATOM     22  C   UNL     1      -4.030   0.932  24.112  0.00  0.00    +0.043 C 
ENDROOT
BRANCH   4   2
ATOM      1  C   UNL     1      -2.222   1.203  23.537  0.00  0.00    +0.000 C 
ATOM      2  C   UNL     1      -2.972   1.464  23.312  0.00  0.00    +0.000 C 
ATOM      3  C   UNL     1      -3.133   1.621  22.519  0.00  0.00    +0.000 C 
ENDBRANCH   4   2
BRANCH   6   7
ATOM      7  C   UNL     1      -4.383   3.161  25.128  0.00  0.00    +0.091 C 
BRANCH   7   8
ATOM      8  C   UNL     1      -3.740   3.588  25.419  0.00  0.00    +0.227 A 
ATOM      9  N   UNL     1      -3.617   3.803  26.206  0.00  0.00    -0.111 NA
ATOM     10  N   UNL     1      -2.908   4.224  26.247  0.00  0.00    -0.107 NA
ATOM     11  C   UNL     1      -2.593   4.269  25.486  0.00  0.00    +0.250 A 
ATOM     12  O   UNL     1      -3.108   3.877  24.974  0.00  0.00    -0.420 OA
BRANCH  11  13
ATOM     13  C   UNL     1      -1.889   4.642  25.274  0.00  0.00    +0.058 A 
ATOM     14  C   UNL     1      -1.193   4.202  25.210  0.00  0.00    +0.025 A 
ATOM     15  C   UNL     1      -0.488   4.574  24.998  0.00  0.00    +0.099 A 
ATOM     16  N   UNL     1      -0.479   5.385  24.849  0.00  0.00    -0.242 NA
ATOM     17  C   UNL     1      -1.174   5.825  24.913  0.00  0.00    +0.099 A 
ATOM     18  C   UNL     1      -1.879   5.452  25.125  0.00  0.00    +0.025 A 
ENDBRANCH  11  13
ENDBRANCH   7   8
ENDBRANCH   6   7
BRANCH  22  23
ATOM     23  C   UNL     1      -3.912   0.189  23.772  0.00  0.00    +0.120 C 
BRANCH  23  24
ATOM     24  N   UNL     1      -3.722  -0.457  24.249  0.00  0.00    -0.200 NA
ATOM     25  C   UNL     1      -3.885  -1.222  23.989  0.00  0.00    +0.284 C 
ATOM     26  O   UNL     1      -4.237  -1.343  23.253  0.00  0.00    -0.267 OA
BRANCH  25  27
ATOM     27  C   UNL     1      -3.695  -1.869  24.466  0.00  0.00    +0.155 A 
ATOM     28  C   UNL     1      -3.700  -2.631  24.148  0.00  0.00    +0.123 A 
ATOM     29  N   UNL     1      -3.510  -3.277  24.625  0.00  0.00    -0.239 NA
ATOM     30  C   UNL     1      -3.315  -3.162  25.419  0.00  0.00    +0.120 A 
ATOM     31  C   UNL     1      -3.310  -2.400  25.735  0.00  0.00    +0.120 A 
ATOM     32  N   UNL     1      -3.500  -1.754  25.259  0.00  0.00    -0.236 NA
ENDBRANCH  25  27
ENDBRANCH  23  24
ENDBRANCH  22  23
TORSDOF 7
ENDMDL
MODEL 3
REMARK VINA RESULT:      -8.7      2.065      2.910
REMARK  Name = 
REMARK  7 active torsions:
REMARK  status: ('A' for Active; 'I' for Inactive)
REMARK    1  A    between atoms: C_2  and  C_4
REMARK    2  A    between atoms: C_6  and  C_7
REMARK    3  A    between atoms: C_7  and  C_8
REMARK    4  A    between atoms: C_11  and  C_13
REMARK    5  A    between atoms: C_22  and  C_23
REMARK    6  A    between atoms: C_23  and  N_24
REMARK    7  A    between atoms: C_25  and  C_27
REMARK                            x       y       z     vdW  Elec       q    Type
REMARK                         _______ _______ _______ _____ _____    ______ ____
ROOT
ATOM      4  C   UNL     1      -1.255   1.538  24.907  0.00  0.00    +0.006 C 
ATOM      5  C   UNL     1      -2.077   1.481  24.866  0.00  0.00    +0.005 C 
ATOM      6  C   UNL     1      -2.457   1.522  24.136  0.00  0.00    +0.027 C 
ATOM     19  C   UNL     1      -2.017   1.621  23.446  0.00  0.00    -0.048 C 
ATOM     20  C   UNL     1      -2.398   1.663  22.715  0.00  0.00    +0.026 C 
ATOM     21  C   UNL     1      -1.194   1.679  23.486  0.00  0.00    -0.033 C 
ATOM     22  C   UNL     1      -0.814   1.637  24.216  0.00  0.00    +0.043 C 
ENDROOT
BRANCH   4   2
ATOM      1  C   UNL     1      -0.698   0.761  25.969  0.00  0.00    +0.000 C 
ATOM      2  C   UNL     1      -0.874   1.496  25.637  0.00  0.00    +0.000 C 
ATOM      3  C   UNL     1      -0.669   2.188  26.035  0.00  0.00    +0.000 C 
ENDBRANCH   4   2
BRANCH   6   7
ATOM      7  C   UNL     1      -3.280   1.465  24.096  0.00  0.00    +0.091 C 
BRANCH   7   8
ATOM      8  C   UNL     1      -3.658   0.775  24.343  0.00  0.00    +0.227 A 
ATOM      9  N   UNL     1      -4.322   0.733  24.831  0.00  0.00    -0.111 NA
ATOM     10  N   UNL     1      -4.513  -0.063  24.934  0.00  0.00    -0.107 NA
ATOM     11  C   UNL     1      -3.967  -0.514  24.510  0.00  0.00    +0.250 A 
ATOM     12  O   UNL     1      -3.439   0.004  24.144  0.00  0.00    -0.420 OA
BRANCH  11  13
ATOM     13  C   UNL     1      -3.952  -1.337  24.460  0.00  0.00    +0.058 A 
ATOM     14  C   UNL     1      -4.316  -1.718  23.825  0.00  0.00    +0.025 A 
ATOM     15  C   UNL     1      -4.301  -2.541  23.775  0.00  0.00    +0.099 A 
ATOM     16  N   UNL     1      -3.923  -2.983  24.360  0.00  0.00    -0.242 NA
ATOM     17  C   UNL     1      -3.559  -2.602  24.995  0.00  0.00    +0.099 A 
ATOM     18  C   UNL     1      -3.574  -1.779  25.045  0.00  0.00    +0.025 A 
ENDBRANCH  11  13
ENDBRANCH   7   8
ENDBRANCH   6   7
BRANCH  22  23
ATOM     23  C   UNL     1       0.008   1.694  24.256  0.00  0.00    +0.120 C 
BRANCH  23  24
ATOM     24  N   UNL     1       0.480   1.198  23.796  0.00  0.00    -0.200 NA
ATOM     25  C   UNL     1       1.269   1.392  23.658  0.00  0.00    +0.284 C 
ATOM     26  O   UNL     1       1.588   2.082  23.980  0.00  0.00    -0.267 OA
BRANCH  25  27
ATOM     27  C   UNL     1       1.742   0.896  23.197  0.00  0.00    +0.155 A 
ATOM     28  C   UNL     1       2.547   1.054  23.114  0.00  0.00    +0.123 A 
ATOM     29  N   UNL     1       3.019   0.558  22.653  0.00  0.00    -0.239 NA
ATOM     30  C   UNL     1       2.686  -0.096  22.276  0.00  0.00    +0.120 A 
ATOM     31  C   UNL     1       1.880  -0.254  22.360  0.00  0.00    +0.120 A 
ATOM     32  N   UNL     1       1.408   0.242  22.820  0.00  0.00    -0.236 NA
ENDBRANCH  25  27
ENDBRANCH  23  24
ENDBRANCH  22  23
TORSDOF 7
ENDMDL
MODEL 4
REMARK VINA RESULT:      -8.6      0.892      6.377
REMARK  Name = 
REMARK  7 active torsions:
REMARK  status: ('A' for Active; 'I' for Inactive)
REMARK    1  A    between atoms: C_2  and  C_4
REMARK    2  A    between atoms: C_6  and  C_7
REMARK    3  A    between atoms: C_7  and  C_8
REMARK    4  A    between atoms: C_11  and  C_13
REMARK    5  A    between atoms: C_22  and  C_23
REMARK    6  A    between atoms: C_23  and  N_24
REMARK    7  A    between atoms: C_25  and  C_27
REMARK                            x       y       z     vdW  Elec       q    Type
REMARK                         _______ _______ _______ _____ _____    ______ ____
ROOT
ATOM      4  C   UNL     1      -0.925   1.940  24.629  0.00  0.00    +0.006 C 
ATOM      5  C   UNL     1      -0.412   1.305  24.505  0.00  0.00    +0.005 C 
ATOM      6  C   UNL     1      -0.715   0.551  24.372  0.00  0.00    +0.027 C 
ATOM     19  C   UNL     1      -1.530   0.429  24.361  0.00  0.00    -0.048 C 
ATOM     20  C   UNL     1      -1.833  -0.327  24.227  0.00  0.00    +0.026 C 
ATOM     21  C   UNL     1      -2.044   1.064  24.485  0.00  0.00    -0.033 C 
ATOM     22  C   UNL     1      -1.741   1.818  24.619  0.00  0.00    +0.043 C 
ENDROOT
BRANCH   4   2
ATOM      1  C   UNL     1      -0.504   3.210  24.129  0.00  0.00    +0.000 C 
ATOM      2  C   UNL     1      -0.622   2.695  24.763  0.00  0.00    +0.000 C 
ATOM      3  C   UNL     1      -0.437   2.935  25.530  0.00  0.00    +0.000 C 
ENDBRANCH   4   2
BRANCH   6   7
ATOM      7  C   UNL     1      -0.201  -0.084  24.248  0.00  0.00    +0.091 C 
BRANCH   7   8
ATOM      8  C   UNL     1       0.385  -0.034  23.669  0.00  0.00    +0.227 A 
ATOM      9  N   UNL     1       0.276  -0.142  22.859  0.00  0.00    -0.111 NA
ATOM     10  N   UNL     1       1.007  -0.042  22.488  0.00  0.00    -0.107 NA
ATOM     11  C   UNL     1       1.567   0.127  23.070  0.00  0.00    +0.250 A 
ATOM     12  O   UNL     1       1.182   0.132  23.800  0.00  0.00    -0.420 OA
BRANCH  11  13
ATOM     13  C   UNL     1       2.370   0.266  22.944  0.00  0.00    +0.058 A 
ATOM     14  C   UNL     1       2.653   1.041  22.906  0.00  0.00    +0.025 A 
ATOM     15  C   UNL     1       3.456   1.180  22.781  0.00  0.00    +0.099 A 
ATOM     16  N   UNL     1       3.976   0.547  22.692  0.00  0.00    -0.242 NA
ATOM     17  C   UNL     1       3.693  -0.228  22.730  0.00  0.00    +0.099 A 
ATOM     18  C   UNL     1       2.890  -0.368  22.856  0.00  0.00    +0.025 A 
ENDBRANCH  11  13
ENDBRANCH   7   8
ENDBRANCH   6   7
BRANCH  22  23
ATOM     23  C   UNL     1      -2.254   2.453  24.742  0.00  0.00    +0.120 C 
BRANCH  23  24
ATOM     24  N   UNL     1      -3.031   2.315  24.981  0.00  0.00    -0.200 NA
ATOM     25  C   UNL     1      -3.599   2.907  24.895  0.00  0.00    +0.284 C 
ATOM     26  O   UNL     1      -3.390   3.637  24.572  0.00  0.00    -0.267 OA
BRANCH  25  27
ATOM     27  C   UNL     1      -4.378   2.769  25.134  0.00  0.00    +0.155 A 
ATOM     28  C   UNL     1      -4.668   3.126  25.819  0.00  0.00    +0.123 A 
ATOM     29  N   UNL     1      -5.445   2.989  26.058  0.00  0.00    -0.239 NA
ATOM     30  C   UNL     1      -5.933   2.494  25.611  0.00  0.00    +0.120 A 
ATOM     31  C   UNL     1      -5.642   2.138  24.927  0.00  0.00    +0.120 A 
ATOM     32  N   UNL     1      -4.864   2.275  24.688  0.00  0.00    -0.236 NA
ENDBRANCH  25  27
ENDBRANCH  23  24
ENDBRANCH  22  23
TORSDOF 7
ENDMDL
MODEL 5
REMARK VINA RESULT:      -8.6      1.763      2.509
REMARK  Name = 
REMARK  7 active torsions:
REMARK  status: ('A' for Active; 'I' for Inactive)
REMARK    1  A    between atoms: C_2  and  C_4
REMARK    2  A    between atoms: C_6  and  C_7
REMARK    3  A    between atoms: C_7  and  C_8
REMARK    4  A    between atoms: C_11  and  C_13
REMARK    5  A    between atoms: C_22  and  C_23
REMARK    6  A    between atoms: C_23  and  N_24
REMARK    7  A    between atoms: C_25  and  C_27
REMARK                            x       y       z     vdW  Elec       q    Type
REMARK                         _______ _______ _______ _____ _____    ______ ____
ROOT
ATOM      4  C   UNL     1      -1.297   2.223  24.525  0.00  0.00    +0.006 C 
ATOM      5  C   UNL     1      -1.875   2.786  24.354  0.00  0.00    +0.005 C 
ATOM      6  C   UNL     1      -2.383   2.676  23.715  0.00  0.00    +0.027 C 
ATOM     19  C   UNL     1      -2.314   2.002  23.244  0.00  0.00    -0.048 C 
ATOM     20  C   UNL     1      -2.823   1.891  22.604  0.00  0.00    +0.026 C 
ATOM     21  C   UNL     1      -1.736   1.437  23.415  0.00  0.00    -0.033 C 
ATOM     22  C   UNL     1      -1.229   1.547  24.055  0.00  0.00    +0.043 C 
ENDROOT
BRANCH   4   2
ATOM      1  C   UNL     1      -0.043   2.666  25.047  0.00  0.00    +0.000 C 
ATOM      2  C   UNL     1      -0.789   2.333  25.165  0.00  0.00    +0.000 C 
ATOM      3  C   UNL     1      -1.026   2.110  25.923  0.00  0.00    +0.000 C 
ENDBRANCH   4   2
BRANCH   6   7
ATOM      7  C   UNL     1      -2.961   3.241  23.544  0.00  0.00    +0.091 C 
BRANCH   7   8
ATOM      8  C   UNL     1      -3.600   3.344  24.055  0.00  0.00    +0.227 A 
ATOM      9  N   UNL     1      -3.845   4.058  24.387  0.00  0.00    -0.111 NA
ATOM     10  N   UNL     1      -4.503   3.907  24.861  0.00  0.00    -0.107 NA
ATOM     11  C   UNL     1      -4.665   3.099  24.822  0.00  0.00    +0.250 A 
ATOM     12  O   UNL     1      -4.107   2.750  24.324  0.00  0.00    -0.420 OA
BRANCH  11  13
ATOM     13  C   UNL     1      -5.277   2.707  25.213  0.00  0.00    +0.058 A 
ATOM     14  C   UNL     1      -5.749   2.167  24.803  0.00  0.00    +0.025 A 
ATOM     15  C   UNL     1      -6.361   1.776  25.193  0.00  0.00    +0.099 A 
ATOM     16  N   UNL     1      -6.502   1.924  25.992  0.00  0.00    -0.242 NA
ATOM     17  C   UNL     1      -6.030   2.464  26.402  0.00  0.00    +0.099 A 
ATOM     18  C   UNL     1      -5.418   2.855  26.011  0.00  0.00    +0.025 A 
ENDBRANCH  11  13
ENDBRANCH   7   8
ENDBRANCH   6   7
BRANCH  22  23
ATOM     23  C   UNL     1      -0.651   0.984  24.225  0.00  0.00    +0.120 C 
BRANCH  23  24
ATOM     24  N   UNL     1      -0.872   0.225  24.464  0.00  0.00    -0.200 NA
ATOM     25  C   UNL     1      -0.399  -0.421  24.269  0.00  0.00    +0.284 C 
ATOM     26  O   UNL     1       0.295  -0.311  23.837  0.00  0.00    -0.267 OA
BRANCH  25  27
ATOM     27  C   UNL     1      -0.620  -1.181  24.508  0.00  0.00    +0.155 A 
ATOM     28  C   UNL     1      -0.290  -1.511  25.188  0.00  0.00    +0.123 A 
ATOM     29  N   UNL     1      -0.511  -2.270  25.427  0.00  0.00    -0.239 NA
ATOM     30  C   UNL     1      -1.062  -2.697  24.985  0.00  0.00    +0.120 A 
ATOM     31  C   UNL     1      -1.391  -2.366  24.305  0.00  0.00    +0.120 A 
ATOM     32  N   UNL     1      -1.170  -1.608  24.067  0.00  0.00    -0.236 NA
ENDBRANCH  25  27
ENDBRANCH  23  24
ENDBRANCH  22  23
TORSDOF 7
ENDMDL
MODEL 6
REMARK VINA RESULT:      -8.6      1.592      5.745
REMARK  Name = 
REMARK  7 active torsions:
REMARK  status: ('A' for Active; 'I' for Inactive)
REMARK    1  A    between atoms: C_2  and  C_4
REMARK    2  A    between atoms: C_6  and  C_7
REMARK    3  A    between atoms: C_7  and  C_8
REMARK    4  A    between atoms: C_11  and  C_13
REMARK    5  A    between atoms: C_22  and  C_23
REMARK    6  A    between atoms: C_23  and  N_24
REMARK    7  A    between atoms: C_25  and  C_27
REMARK                            x       y       z     vdW  Elec       q    Type
REMARK                         _______ _______ _______ _____ _____    ______ ____
ROOT
ATOM      4  C   UNL     1      -2.208   2.150  23.475  0.00  0.00    +0.006 C 
ATOM      5  C   UNL     1      -1.460   1.806  23.527  0.00  0.00    +0.005 C 
ATOM      6  C   UNL     1      -1.008   1.903  24.209  0.00  0.00    +0.027 C 
ATOM     19  C   UNL     1      -1.302   2.346  24.840  0.00  0.00    -0.048 C 
ATOM     20  C   UNL     1      -0.850   2.444  25.523  0.00  0.00    +0.026 C 
ATOM     21  C   UNL     1      -2.051   2.691  24.788  0.00  0.00    -0.033 C 
ATOM     22  C   UNL     1      -2.503   2.593  24.106  0.00  0.00    +0.043 C 
ENDROOT
BRANCH   4   2
ATOM      1  C   UNL     1      -3.123   1.376  22.697  0.00  0.00    +0.000 C 
ATOM      2  C   UNL     1      -2.660   2.053  22.792  0.00  0.00    +0.000 C 
ATOM      3  C   UNL     1      -2.651   2.631  22.205  0.00  0.00    +0.000 C 
ENDBRANCH   4   2
BRANCH   6   7
ATOM      7  C   UNL     1      -0.260   1.558  24.262  0.00  0.00    +0.091 C 
BRANCH   7   8
ATOM      8  C   UNL     1      -0.175   0.742  24.174  0.00  0.00    +0.227 A 
ATOM      9  N   UNL     1       0.358   0.361  23.674  0.00  0.00    -0.111 NA
ATOM     10  N   UNL     1       0.254  -0.453  23.763  0.00  0.00    -0.107 NA
ATOM     11  C   UNL     1      -0.344  -0.575  24.318  0.00  0.00    +0.250 A 
ATOM     12  O   UNL     1      -0.609   0.164  24.573  0.00  0.00    -0.420 OA
BRANCH  11  13
ATOM     13  C   UNL     1      -0.626  -1.306  24.574  0.00  0.00    +0.058 A 
ATOM     14  C   UNL     1      -0.222  -1.722  25.161  0.00  0.00    +0.025 A 
ATOM     15  C   UNL     1      -0.505  -2.453  25.417  0.00  0.00    +0.099 A 
ATOM     16  N   UNL     1      -1.191  -2.769  25.086  0.00  0.00    -0.242 NA
ATOM     17  C   UNL     1      -1.596  -2.353  24.499  0.00  0.00    +0.099 A 
ATOM     18  C   UNL     1      -1.313  -1.622  24.243  0.00  0.00    +0.025 A 
ENDBRANCH  11  13
ENDBRANCH   7   8
ENDBRANCH   6   7
BRANCH  22  23
ATOM     23  C   UNL     1      -3.250   2.938  24.053  0.00  0.00    +0.120 C 
BRANCH  23  24
ATOM     24  N   UNL     1      -3.864   2.670  24.535  0.00  0.00    -0.200 NA
ATOM     25  C   UNL     1      -4.491   3.171  24.721  0.00  0.00    +0.284 C 
ATOM     26  O   UNL     1      -4.506   3.942  24.426  0.00  0.00    -0.267 OA
BRANCH  25  27
ATOM     27  C   UNL     1      -5.106   2.902  25.203  0.00  0.00    +0.155 A 
ATOM     28  C   UNL     1      -5.220   3.235  25.949  0.00  0.00    +0.123 A 
ATOM     29  N   UNL     1      -5.833   2.967  26.431  0.00  0.00    -0.239 NA
ATOM     30  C   UNL     1      -6.333   2.365  26.166  0.00  0.00    +0.120 A 
ATOM     31  C   UNL     1      -6.218   2.033  25.420  0.00  0.00    +0.120 A 
ATOM     32  N   UNL     1      -5.604   2.301  24.938  0.00  0.00    -0.236 NA
ENDBRANCH  25  27
ENDBRANCH  23  24
ENDBRANCH  22  23
TORSDOF 7
ENDMDL
MODEL 7
REMARK VINA RESULT:      -8.4      1.299      6.170
REMARK  Name = 
REMARK  7 active torsions:
REMARK  status: ('A' for Active; 'I' for Inactive)
REMARK    1  A    between atoms: C_2  and  C_4
REMARK    2  A    between atoms: C_6  and  C_7
REMARK    3  A    between atoms: C_7  and  C_8
REMARK    4  A    between atoms: C_11  and  C_13
REMARK    5  A    between atoms: C_22  and  C_23
REMARK    6  A    between atoms: C_23  and  N_24
REMARK    7  A    between atoms: C_25  and  C_27
REMARK                            x       y       z     vdW  Elec       q    Type
REMARK                         _______ _______ _______ _____ _____    ______ ____
ROOT
ATOM      4  C   UNL     1      -2.954  -0.301  24.805  0.00  0.00    +0.006 C 
ATOM      5  C   UNL     1      -2.179  -0.552  24.929  0.00  0.00    +0.005 C 
ATOM      6  C   UNL     1      -1.610  -0.017  25.194  0.00  0.00    +0.027 C 
ATOM     19  C   UNL     1      -1.815   0.769  25.335  0.00  0.00    -0.048 C 
ATOM     20  C   UNL     1      -1.246   1.304  25.600  0.00  0.00    +0.026 C 
ATOM     21  C   UNL     1      -2.592   1.021  25.210  0.00  0.00    -0.033 C 
ATOM     22  C   UNL     1      -3.161   0.486  24.946  0.00  0.00    +0.043 C 
ENDROOT
BRANCH   4   2
ATOM      1  C   UNL     1      -3.719  -0.866  23.739  0.00  0.00    +0.000 C 
ATOM      2  C   UNL     1      -3.524  -0.835  24.540  0.00  0.00    +0.000 C 
ATOM      3  C   UNL     1      -3.897  -1.339  25.076  0.00  0.00    +0.000 C 
ENDBRANCH   4   2
BRANCH   6   7
ATOM      7  C   UNL     1      -0.833  -0.269  25.319  0.00  0.00    +0.091 C 
BRANCH   7   8
ATOM      8  C   UNL     1      -0.384  -0.549  24.686  0.00  0.00    +0.227 A 
ATOM      9  N   UNL     1      -0.352  -1.329  24.421  0.00  0.00    -0.111 NA
ATOM     10  N   UNL     1       0.165  -1.360  23.778  0.00  0.00    -0.107 NA
ATOM     11  C   UNL     1       0.453  -0.598  23.646  0.00  0.00    +0.250 A 
ATOM     12  O   UNL     1       0.114  -0.096  24.207  0.00  0.00    -0.420 OA
BRANCH  11  13
ATOM     13  C   UNL     1       0.985  -0.376  23.057  0.00  0.00    +0.058 A 
ATOM     14  C   UNL     1       0.812  -0.531  22.265  0.00  0.00    +0.025 A 
ATOM     15  C   UNL     1       1.345  -0.310  21.675  0.00  0.00    +0.099 A 
ATOM     16  N   UNL     1       2.050   0.067  21.877  0.00  0.00    -0.242 NA
ATOM     17  C   UNL     1       2.223   0.222  22.669  0.00  0.00    +0.099 A 
ATOM     18  C   UNL     1       1.691   0.001  23.258  0.00  0.00    +0.025 A 
ENDBRANCH  11  13
ENDBRANCH   7   8
ENDBRANCH   6   7
BRANCH  22  23
ATOM     23  C   UNL     1      -3.936   0.737  24.821  0.00  0.00    +0.120 C 
BRANCH  23  24
ATOM     24  N   UNL     1      -4.169   1.493  25.057  0.00  0.00    -0.200 NA
ATOM     25  C   UNL     1      -4.951   1.733  24.958  0.00  0.00    +0.284 C 
ATOM     26  O   UNL     1      -5.502   1.218  24.622  0.00  0.00    -0.267 OA
BRANCH  25  27
ATOM     27  C   UNL     1      -5.184   2.489  25.194  0.00  0.00    +0.155 A 
ATOM     28  C   UNL     1      -5.765   2.580  25.773  0.00  0.00    +0.123 A 
ATOM     29  N   UNL     1      -5.997   3.335  26.009  0.00  0.00    -0.239 NA
ATOM     30  C   UNL     1      -5.650   4.001  25.665  0.00  0.00    +0.120 A 
ATOM     31  C   UNL     1      -5.070   3.909  25.086  0.00  0.00    +0.120 A 
ATOM     32  N   UNL     1      -4.837   3.153  24.850  0.00  0.00    -0.236 NA
ENDBRANCH  25  27
ENDBRANCH  23  24
ENDBRANCH  22  23
TORSDOF 7
ENDMDL
MODEL 8
REMARK VINA RESULT:      -8.3      1.205      1.993
REMARK  Name = 
REMARK  7 active torsions:
REMARK  status: ('A' for Active; 'I' for Inactive)
REMARK    1  A    between atoms: C_2  and  C_4
REMARK    2  A    between atoms: C_6  and  C_7
REMARK    3  A    between atoms: C_7  and  C_8
REMARK    4  A    between atoms: C_11  and  C_13
REMARK    5  A    between atoms: C_22  and  C_23
REMARK    6  A    between atoms: C_23  and  N_24
REMARK    7  A    between atoms: C_25  and  C_27
REMARK                            x       y       z     vdW  Elec       q    Type
REMARK                         _______ _______ _______ _____ _____    ______ ____
ROOT
ATOM      4  C   UNL     1      -1.221   1.375  24.889  0.00  0.00    +0.006 C 
ATOM      5  C   UNL     1      -1.963   1.079  25.095  0.00  0.00    +0.005 C 
ATOM      6  C   UNL     1      -2.146   0.289  24.947  0.00  0.00    +0.027 C 
ATOM     19  C   UNL     1      -1.589  -0.206  24.595  0.00  0.00    -0.048 C 
ATOM     20  C   UNL     1      -1.773  -0.996  24.447  0.00  0.00    +0.026 C 
ATOM     21  C   UNL     1      -0.846   0.091  24.389  0.00  0.00    -0.033 C 
ATOM     22  C   UNL     1      -0.662   0.880  24.536  0.00  0.00    +0.043 C 
ENDROOT
BRANCH   4   2
ATOM      1  C   UNL     1      -0.714   2.385  25.763  0.00  0.00    +0.000 C 
ATOM      2  C   UNL     1      -1.037   2.166  25.037  0.00  0.00    +0.000 C 
ATOM      3  C   UNL     1      -1.176   2.736  24.458  0.00  0.00    +0.000 C 
ENDBRANCH   4   2
BRANCH   6   7
ATOM      7  C   UNL     1      -2.889  -0.007  25.153  0.00  0.00    +0.091 C 
BRANCH   7   8
ATOM      8  C   UNL     1      -3.570   0.423  24.974  0.00  0.00    +0.227 A 
ATOM      9  N   UNL     1      -4.038   0.332  24.301  0.00  0.00    -0.111 NA
ATOM     10  N   UNL     1      -4.659   0.874  24.347  0.00  0.00    -0.107 NA
ATOM     11  C   UNL     1      -4.574   1.300  25.049  0.00  0.00    +0.250 A 
ATOM     12  O   UNL     1      -3.901   1.022  25.436  0.00  0.00    -0.420 OA
BRANCH  11  13
ATOM     13  C   UNL     1      -5.075   1.899  25.316  0.00  0.00    +0.058 A 
ATOM     14  C   UNL     1      -4.871   2.690  25.196  0.00  0.00    +0.025 A 
ATOM     15  C   UNL     1      -5.371   3.288  25.464  0.00  0.00    +0.099 A 
ATOM     16  N   UNL     1      -6.074   3.097  25.850  0.00  0.00    -0.242 NA
ATOM     17  C   UNL     1      -6.278   2.306  25.970  0.00  0.00    +0.099 A 
ATOM     18  C   UNL     1      -5.777   1.708  25.702  0.00  0.00    +0.025 A 
ENDBRANCH  11  13
ENDBRANCH   7   8
ENDBRANCH   6   7
BRANCH  22  23
ATOM     23  C   UNL     1       0.079   1.177  24.331  0.00  0.00    +0.120 C 
BRANCH  23  24
ATOM     24  N   UNL     1       0.555   0.766  23.797  0.00  0.00    -0.200 NA
ATOM     25  C   UNL     1       1.305   1.052  23.608  0.00  0.00    +0.284 C 
ATOM     26  O   UNL     1       1.580   1.750  23.952  0.00  0.00    -0.267 OA
BRANCH  25  27
ATOM     27  C   UNL     1       1.781   0.640  23.073  0.00  0.00    +0.155 A 
ATOM     28  C   UNL     1       2.600   0.743  23.088  0.00  0.00    +0.123 A 
ATOM     29  N   UNL     1       3.076   0.331  22.554  0.00  0.00    -0.239 NA
ATOM     30  C   UNL     1       2.733  -0.182  22.005  0.00  0.00    +0.120 A 
ATOM     31  C   UNL     1       1.915  -0.283  21.992  0.00  0.00    +0.120 A 
ATOM     32  N   UNL     1       1.439   0.128  22.526  0.00  0.00    -0.236 NA
ENDBRANCH  25  27
ENDBRANCH  23  24
ENDBRANCH  22  23
TORSDOF 7
ENDMDL
