MODEL 1
REMARK VINA RESULT:     -11.9      0.000      0.000
REMARK  Name = 
REMARK  10 active torsions:
REMARK  status: ('A' for Active; 'I' for Inactive)
REMARK    1  A    between atoms: O_2  and  C_3
REMARK    2  A    between atoms: C_6  and  C_7
REMARK    3  A    between atoms: C_7  and  N_8
REMARK    4  A    between atoms: N_8  and  C_9
REMARK    5  A    between atoms: N_8  and  C_34
REMARK    6  A    between atoms: C_9  and  C_10
REMARK    7  A    between atoms: C_17  and  C_18
REMARK    8  A    between atoms: C_20  and  C_24
REMARK    9  A    between atoms: C_34  and  C_35
REMARK   10  A    between atoms: C_38  and  O_39
REMARK                            x       y       z     vdW  Elec       q    Type
REMARK                         _______ _______ _______ _____ _____    ______ ____
ROOT
ATOM     10  C   UNL     1      -1.364   0.688  24.604  0.00  0.00    +0.074 C 
ATOM     11  C   UNL     1      -0.801   1.194  24.423  0.00  0.00    +0.018 C 
ATOM     12  C   UNL     1      -0.122   1.017  24.017  0.00  0.00    +0.010 C 
ATOM     13  C   UNL     1       0.399   1.738  23.909  0.00  0.00    +0.018 C 
ATOM     14  C   UNL     1      -0.128   1.410  24.113  0.00  0.00    +0.072 C 
ATOM     15  N   UNL     1      -0.670   0.517  24.192  0.00  0.00    -0.272 NA
ATOM     16  C   UNL     1      -0.347  -0.259  23.835  0.00  0.00    +0.078 C 
ATOM     17  C   UNL     1       0.182   0.268  23.676  0.00  0.00    +0.056 C 
ENDROOT
BRANCH  17  18
ATOM     18  C   UNL     1       0.891   0.156  23.269  0.00  0.00    +0.058 A 
ATOM     19  C   UNL     1       1.645   0.328  23.554  0.00  0.00    +0.035 A 
ATOM     20  C   UNL     1       2.190   0.130  22.967  0.00  0.00    +0.102 A 
ATOM     21  N   UNL     1       1.772  -0.164  22.320  0.00  0.00    -0.170 NA
ATOM     22  N   UNL     1       0.969  -0.148  22.507  0.00  0.00    -0.253 N 
ATOM     23  C   UNL     1       0.352  -0.394  22.017  0.00  0.00    +0.153 C 
BRANCH  20  24
ATOM     24  C   UNL     1       3.010   0.213  23.018  0.00  0.00    +0.019 A 
ATOM     25  C   UNL     1       3.457  -0.357  23.414  0.00  0.00    +0.002 A 
ATOM     26  C   UNL     1       4.277  -0.275  23.465  0.00  0.00    +0.000 A 
ATOM     27  C   UNL     1       4.648   0.377  23.121  0.00  0.00    +0.000 A 
ATOM     28  C   UNL     1       5.468   0.459  23.172  0.00  0.00    +0.000 A 
ATOM     29  C   UNL     1       5.916  -0.110  23.568  0.00  0.00    +0.000 A 
ATOM     30  C   UNL     1       5.544  -0.761  23.911  0.00  0.00    +0.000 A 
ATOM     31  C   UNL     1       4.725  -0.844  23.860  0.00  0.00    +0.000 A 
ATOM     32  C   UNL     1       4.201   0.947  22.726  0.00  0.00    +0.000 A 
ATOM     33  C   UNL     1       3.381   0.865  22.674  0.00  0.00    +0.002 A 
ENDBRANCH  20  24
ENDBRANCH  17  18
BRANCH  10   9
ATOM      9  C   UNL     1      -2.087   0.484  24.943  0.00  0.00    +0.089 C 
BRANCH   9   8
ATOM      8  N   UNL     1      -2.779   0.865  24.703  0.00  0.00    -0.264 NA
BRANCH   8   7
ATOM      7  C   UNL     1      -3.513   0.523  24.855  0.00  0.00    +0.099 C 
BRANCH   7   6
ATOM      3  C   UNL     1      -3.837  -1.909  24.523  0.00  0.00    +0.139 A 
ATOM      4  C   UNL     1      -3.622  -1.619  25.264  0.00  0.00    +0.037 A 
ATOM      5  C   UNL     1      -3.514  -0.808  25.376  0.00  0.00    +0.000 A 
ATOM      6  C   UNL     1      -3.621  -0.288  24.744  0.00  0.00    -0.006 A 
ATOM     43  C   UNL     1      -3.836  -0.577  24.002  0.00  0.00    +0.000 A 
ATOM     44  C   UNL     1      -3.944  -1.388  23.892  0.00  0.00    +0.037 A 
BRANCH   3   2
ATOM      1  C   UNL     1      -3.305  -3.235  24.494  0.00  0.00    +0.252 C 
ATOM      2  O   UNL     1      -3.945  -2.719  24.412  0.00  0.00    -0.471 OA
ENDBRANCH   3   2
ENDBRANCH   7   6
ENDBRANCH   8   7
BRANCH   8  34
ATOM     34  C   UNL     1      -2.734   1.589  24.310  0.00  0.00    +0.099 C 
BRANCH  34  35
ATOM     35  C   UNL     1      -3.256   2.197  24.506  0.00  0.00    -0.006 A 
ATOM     36  C   UNL     1      -3.241   2.527  25.263  0.00  0.00    +0.000 A 
ATOM     37  C   UNL     1      -3.762   3.134  25.459  0.00  0.00    +0.037 A 
ATOM     38  C   UNL     1      -4.300   3.413  24.899  0.00  0.00    +0.139 A 
ATOM     41  C   UNL     1      -4.316   3.084  24.143  0.00  0.00    +0.037 A 
ATOM     42  C   UNL     1      -3.794   2.476  23.946  0.00  0.00    +0.000 A 
BRANCH  38  39
ATOM     39  O   UNL     1      -4.822   4.020  25.095  0.00  0.00    -0.471 OA
ATOM     40  C   UNL     1      -5.473   3.865  25.578  0.00  0.00    +0.252 C 
ENDBRANCH  38  39
ENDBRANCH  34  35
ENDBRANCH   8  34
ENDBRANCH   9   8
ENDBRANCH  10   9
TORSDOF 10
ENDMDL
MODEL 2
REMARK VINA RESULT:     -11.9      0.040      3.070
REMARK  Name = 
REMARK  10 active torsions:
REMARK  status: ('A' for Active; 'I' for Inactive)
REMARK    1  A    between atoms: O_2  and  C_3
REMARK    2  A    between atoms: C_6  and  C_7
REMARK    3  A    between atoms: C_7  and  N_8
REMARK    4  A    between atoms: N_8  and  C_9
REMARK    5  A    between atoms: N_8  and  C_34
REMARK    6  A    between atoms: C_9  and  C_10
REMARK    7  A    between atoms: C_17  and  C_18
REMARK    8  A    between atoms: C_20  and  C_24
REMARK    9  A    between atoms: C_34  and  C_35
REMARK   10  A    between atoms: C_38  and  O_39
REMARK                            x       y       z     vdW  Elec       q    Type
REMARK                         _______ _______ _______ _____ _____    ______ ____
ROOT
ATOM     10  C   UNL     1      -1.389   0.673  24.573  0.00  0.00    +0.074 C 
ATOM     11  C   UNL     1      -0.826   1.180  24.394  0.00  0.00    +0.018 C 
ATOM     12  C   UNL     1      -0.143   1.003  23.995  0.00  0.00    +0.010 C 
ATOM     13  C   UNL     1       0.377   1.725  23.887  0.00  0.00    +0.018 C 
ATOM     14  C   UNL     1      -0.151   1.396  24.089  0.00  0.00    +0.072 C 
ATOM     15  N   UNL     1      -0.690   0.502  24.167  0.00  0.00    -0.272 NA
ATOM     16  C   UNL     1      -0.363  -0.274  23.816  0.00  0.00    +0.078 C 
ATOM     17  C   UNL     1       0.166   0.253  23.660  0.00  0.00    +0.056 C 
ENDROOT
BRANCH  17  18
ATOM     18  C   UNL     1       0.879   0.142  23.260  0.00  0.00    +0.058 A 
ATOM     19  C   UNL     1       1.630   0.323  23.548  0.00  0.00    +0.035 A 
ATOM     20  C   UNL     1       2.181   0.122  22.968  0.00  0.00    +0.102 A 
ATOM     21  N   UNL     1       1.770  -0.183  22.321  0.00  0.00    -0.170 NA
ATOM     22  N   UNL     1       0.966  -0.171  22.502  0.00  0.00    -0.253 N 
ATOM     23  C   UNL     1       0.354  -0.427  22.010  0.00  0.00    +0.153 C 
BRANCH  20  24
ATOM     24  C   UNL     1       2.999   0.211  23.024  0.00  0.00    +0.019 A 
ATOM     25  C   UNL     1       3.451  -0.366  23.404  0.00  0.00    +0.002 A 
ATOM     26  C   UNL     1       4.271  -0.277  23.460  0.00  0.00    +0.000 A 
ATOM     27  C   UNL     1       4.636   0.389  23.137  0.00  0.00    +0.000 A 
ATOM     28  C   UNL     1       5.454   0.478  23.193  0.00  0.00    +0.000 A 
ATOM     29  C   UNL     1       5.907  -0.099  23.573  0.00  0.00    +0.000 A 
ATOM     30  C   UNL     1       5.541  -0.763  23.896  0.00  0.00    +0.000 A 
ATOM     31  C   UNL     1       4.722  -0.852  23.840  0.00  0.00    +0.000 A 
ATOM     32  C   UNL     1       4.184   0.966  22.757  0.00  0.00    +0.000 A 
ATOM     33  C   UNL     1       3.365   0.877  22.701  0.00  0.00    +0.002 A 
ENDBRANCH  20  24
ENDBRANCH  17  18
BRANCH  10   9
ATOM      9  C   UNL     1      -2.114   0.467  24.906  0.00  0.00    +0.089 C 
BRANCH   9   8
ATOM      8  N   UNL     1      -2.803   0.857  24.670  0.00  0.00    -0.264 NA
BRANCH   8   7
ATOM      7  C   UNL     1      -2.755   1.592  24.300  0.00  0.00    +0.099 C 
BRANCH   7   6
ATOM      3  C   UNL     1      -4.346   3.388  24.910  0.00  0.00    +0.139 A 
ATOM      4  C   UNL     1      -3.798   3.116  25.464  0.00  0.00    +0.037 A 
ATOM      5  C   UNL     1      -3.268   2.517  25.261  0.00  0.00    +0.000 A 
ATOM      6  C   UNL     1      -3.286   2.190  24.503  0.00  0.00    -0.006 A 
ATOM     43  C   UNL     1      -3.833   2.462  23.949  0.00  0.00    +0.000 A 
ATOM     44  C   UNL     1      -4.363   3.061  24.153  0.00  0.00    +0.037 A 
BRANCH   3   2
ATOM      1  C   UNL     1      -5.518   3.818  25.606  0.00  0.00    +0.252 C 
ATOM      2  O   UNL     1      -4.876   3.986  25.114  0.00  0.00    -0.471 OA
ENDBRANCH   3   2
ENDBRANCH   7   6
ENDBRANCH   8   7
BRANCH   8  34
ATOM     34  C   UNL     1      -3.539   0.509  24.806  0.00  0.00    +0.099 C 
BRANCH  34  35
ATOM     35  C   UNL     1      -3.636  -0.303  24.697  0.00  0.00    -0.006 A 
ATOM     36  C   UNL     1      -3.866  -0.597  23.961  0.00  0.00    +0.000 A 
ATOM     37  C   UNL     1      -3.964  -1.408  23.852  0.00  0.00    +0.037 A 
ATOM     38  C   UNL     1      -3.832  -1.927  24.481  0.00  0.00    +0.139 A 
ATOM     41  C   UNL     1      -3.602  -1.634  25.216  0.00  0.00    +0.037 A 
ATOM     42  C   UNL     1      -3.505  -0.822  25.325  0.00  0.00    +0.000 A 
BRANCH  38  39
ATOM     39  O   UNL     1      -3.930  -2.739  24.372  0.00  0.00    -0.471 OA
ATOM     40  C   UNL     1      -3.312  -3.256  24.551  0.00  0.00    +0.252 C 
ENDBRANCH  38  39
ENDBRANCH  34  35
ENDBRANCH   8  34
ENDBRANCH   9   8
ENDBRANCH  10   9
TORSDOF 10
ENDMDL
MODEL 3
REMARK VINA RESULT:     -10.9      0.991      1.393
REMARK  Name = 
REMARK  10 active torsions:
REMARK  status: ('A' for Active; 'I' for Inactive)
REMARK    1  A    between atoms: O_2  and  C_3
REMARK    2  A    between atoms: C_6  and  C_7
REMARK    3  A    between atoms: C_7  and  N_8
REMARK    4  A    between atoms: N_8  and  C_9
REMARK    5  A    between atoms: N_8  and  C_34
REMARK    6  A    between atoms: C_9  and  C_10
REMARK    7  A    between atoms: C_17  and  C_18
REMARK    8  A    between atoms: C_20  and  C_24
REMARK    9  A    between atoms: C_34  and  C_35
REMARK   10  A    between atoms: C_38  and  O_39
REMARK                            x       y       z     vdW  Elec       q    Type
REMARK                         _______ _______ _______ _____ _____    ______ ____
ROOT
ATOM     10  C   UNL     1      -1.295   0.607  23.837  0.00  0.00    +0.074 C 
ATOM     11  C   UNL     1      -0.758   0.118  24.115  0.00  0.00    +0.018 C 
ATOM     12  C   UNL     1      -0.021   0.000  23.799  0.00  0.00    +0.010 C 
ATOM     13  C   UNL     1       0.449  -0.604  24.266  0.00  0.00    +0.018 C 
ATOM     14  C   UNL     1      -0.071  -0.233  24.125  0.00  0.00    +0.072 C 
ATOM     15  N   UNL     1      -0.543   0.481  23.522  0.00  0.00    -0.272 NA
ATOM     16  C   UNL     1      -0.115   0.839  22.800  0.00  0.00    +0.078 C 
ATOM     17  C   UNL     1       0.384   0.349  23.103  0.00  0.00    +0.056 C 
ENDROOT
BRANCH  17  18
ATOM     18  C   UNL     1       1.147   0.182  22.833  0.00  0.00    +0.058 A 
ATOM     19  C   UNL     1       1.850   0.372  23.219  0.00  0.00    +0.035 A 
ATOM     20  C   UNL     1       2.476   0.104  22.755  0.00  0.00    +0.102 A 
ATOM     21  N   UNL     1       2.159  -0.253  22.082  0.00  0.00    -0.170 NA
ATOM     22  N   UNL     1       1.338  -0.204  22.131  0.00  0.00    -0.253 N 
ATOM     23  C   UNL     1       0.801  -0.492  21.574  0.00  0.00    +0.153 C 
BRANCH  20  24
ATOM     24  C   UNL     1       3.278   0.178  22.932  0.00  0.00    +0.019 A 
ATOM     25  C   UNL     1       3.666  -0.421  23.346  0.00  0.00    +0.002 A 
ATOM     26  C   UNL     1       4.470  -0.347  23.523  0.00  0.00    +0.000 A 
ATOM     27  C   UNL     1       4.883   0.327  23.287  0.00  0.00    +0.000 A 
ATOM     28  C   UNL     1       5.685   0.402  23.464  0.00  0.00    +0.000 A 
ATOM     29  C   UNL     1       6.074  -0.198  23.878  0.00  0.00    +0.000 A 
ATOM     30  C   UNL     1       5.660  -0.871  24.114  0.00  0.00    +0.000 A 
ATOM     31  C   UNL     1       4.858  -0.945  23.937  0.00  0.00    +0.000 A 
ATOM     32  C   UNL     1       4.495   0.927  22.873  0.00  0.00    +0.000 A 
ATOM     33  C   UNL     1       3.692   0.852  22.696  0.00  0.00    +0.002 A 
ENDBRANCH  20  24
ENDBRANCH  17  18
BRANCH  10   9
ATOM      9  C   UNL     1      -2.036   0.968  23.848  0.00  0.00    +0.089 C 
BRANCH   9   8
ATOM      8  N   UNL     1      -2.405   1.134  24.568  0.00  0.00    -0.264 NA
BRANCH   8   7
ATOM      7  C   UNL     1      -3.200   0.947  24.677  0.00  0.00    +0.099 C 
BRANCH   7   6
ATOM      3  C   UNL     1      -3.919  -1.422  24.723  0.00  0.00    +0.139 A 
ATOM      4  C   UNL     1      -4.011  -0.976  24.035  0.00  0.00    +0.037 A 
ATOM      5  C   UNL     1      -3.772  -0.186  24.019  0.00  0.00    +0.000 A 
ATOM      6  C   UNL     1      -3.440   0.157  24.693  0.00  0.00    -0.006 A 
ATOM     43  C   UNL     1      -3.347  -0.289  25.380  0.00  0.00    +0.000 A 
ATOM     44  C   UNL     1      -3.587  -1.078  25.395  0.00  0.00    +0.037 A 
BRANCH   3   2
ATOM      1  C   UNL     1      -3.608  -2.811  24.598  0.00  0.00    +0.252 C 
ATOM      2  O   UNL     1      -4.158  -2.211  24.737  0.00  0.00    -0.471 OA
ENDBRANCH   3   2
ENDBRANCH   7   6
ENDBRANCH   8   7
BRANCH   8  34
ATOM     34  C   UNL     1      -1.976   1.486  25.178  0.00  0.00    +0.099 C 
BRANCH  34  35
ATOM     35  C   UNL     1      -2.011   2.303  25.287  0.00  0.00    -0.006 A 
ATOM     36  C   UNL     1      -2.618   2.741  24.940  0.00  0.00    +0.000 A 
ATOM     37  C   UNL     1      -2.653   3.558  25.049  0.00  0.00    +0.037 A 
ATOM     38  C   UNL     1      -2.080   3.937  25.505  0.00  0.00    +0.139 A 
ATOM     41  C   UNL     1      -1.473   3.500  25.852  0.00  0.00    +0.037 A 
ATOM     42  C   UNL     1      -1.438   2.684  25.743  0.00  0.00    +0.000 A 
BRANCH  38  39
ATOM     39  O   UNL     1      -2.115   4.754  25.614  0.00  0.00    -0.471 OA
ATOM     40  C   UNL     1      -1.603   5.248  25.196  0.00  0.00    +0.252 C 
ENDBRANCH  38  39
ENDBRANCH  34  35
ENDBRANCH   8  34
ENDBRANCH   9   8
ENDBRANCH  10   9
TORSDOF 10
ENDMDL
MODEL 4
REMARK VINA RESULT:     -10.9      0.990      3.259
REMARK  Name = 
REMARK  10 active torsions:
REMARK  status: ('A' for Active; 'I' for Inactive)
REMARK    1  A    between atoms: O_2  and  C_3
REMARK    2  A    between atoms: C_6  and  C_7
REMARK    3  A    between atoms: C_7  and  N_8
REMARK    4  A    between atoms: N_8  and  C_9
REMARK    5  A    between atoms: N_8  and  C_34
REMARK    6  A    between atoms: C_9  and  C_10
REMARK    7  A    between atoms: C_17  and  C_18
REMARK    8  A    between atoms: C_20  and  C_24
REMARK    9  A    between atoms: C_34  and  C_35
REMARK   10  A    between atoms: C_38  and  O_39
REMARK                            x       y       z     vdW  Elec       q    Type
REMARK                         _______ _______ _______ _____ _____    ______ ____
ROOT
ATOM     10  C   UNL     1      -1.291   0.588  23.849  0.00  0.00    +0.074 C 
ATOM     11  C   UNL     1      -0.750   0.102  24.125  0.00  0.00    +0.018 C 
ATOM     12  C   UNL     1      -0.014  -0.012  23.807  0.00  0.00    +0.010 C 
ATOM     13  C   UNL     1       0.461  -0.614  24.272  0.00  0.00    +0.018 C 
ATOM     14  C   UNL     1      -0.061  -0.246  24.133  0.00  0.00    +0.072 C 
ATOM     15  N   UNL     1      -0.539   0.466  23.531  0.00  0.00    -0.272 NA
ATOM     16  C   UNL     1      -0.116   0.827  22.808  0.00  0.00    +0.078 C 
ATOM     17  C   UNL     1       0.388   0.339  23.110  0.00  0.00    +0.056 C 
ENDROOT
BRANCH  17  18
ATOM     18  C   UNL     1       1.150   0.177  22.838  0.00  0.00    +0.058 A 
ATOM     19  C   UNL     1       1.853   0.366  23.224  0.00  0.00    +0.035 A 
ATOM     20  C   UNL     1       2.480   0.102  22.757  0.00  0.00    +0.102 A 
ATOM     21  N   UNL     1       2.163  -0.249  22.082  0.00  0.00    -0.170 NA
ATOM     22  N   UNL     1       1.341  -0.203  22.132  0.00  0.00    -0.253 N 
ATOM     23  C   UNL     1       0.804  -0.488  21.573  0.00  0.00    +0.153 C 
BRANCH  20  24
ATOM     24  C   UNL     1       3.282   0.178  22.934  0.00  0.00    +0.019 A 
ATOM     25  C   UNL     1       3.673  -0.425  23.340  0.00  0.00    +0.002 A 
ATOM     26  C   UNL     1       4.476  -0.350  23.517  0.00  0.00    +0.000 A 
ATOM     27  C   UNL     1       4.886   0.328  23.287  0.00  0.00    +0.000 A 
ATOM     28  C   UNL     1       5.689   0.404  23.464  0.00  0.00    +0.000 A 
ATOM     29  C   UNL     1       6.080  -0.199  23.870  0.00  0.00    +0.000 A 
ATOM     30  C   UNL     1       5.669  -0.876  24.099  0.00  0.00    +0.000 A 
ATOM     31  C   UNL     1       4.867  -0.952  23.922  0.00  0.00    +0.000 A 
ATOM     32  C   UNL     1       4.496   0.931  22.881  0.00  0.00    +0.000 A 
ATOM     33  C   UNL     1       3.692   0.856  22.704  0.00  0.00    +0.002 A 
ENDBRANCH  20  24
ENDBRANCH  17  18
BRANCH  10   9
ATOM      9  C   UNL     1      -2.034   0.945  23.862  0.00  0.00    +0.089 C 
BRANCH   9   8
ATOM      8  N   UNL     1      -2.394   1.124  24.584  0.00  0.00    -0.264 NA
BRANCH   8   7
ATOM      7  C   UNL     1      -1.960   1.487  25.183  0.00  0.00    +0.099 C 
BRANCH   7   6
ATOM      3  C   UNL     1      -2.086   3.941  25.486  0.00  0.00    +0.139 A 
ATOM      4  C   UNL     1      -2.623   3.558  24.990  0.00  0.00    +0.037 A 
ATOM      5  C   UNL     1      -2.581   2.740  24.889  0.00  0.00    +0.000 A 
ATOM      6  C   UNL     1      -2.002   2.305  25.284  0.00  0.00    -0.006 A 
ATOM     43  C   UNL     1      -1.465   2.687  25.780  0.00  0.00    +0.000 A 
ATOM     44  C   UNL     1      -1.508   3.505  25.880  0.00  0.00    +0.037 A 
BRANCH   3   2
ATOM      1  C   UNL     1      -1.594   5.250  25.195  0.00  0.00    +0.252 C 
ATOM      2  O   UNL     1      -2.129   4.758  25.586  0.00  0.00    -0.471 OA
ENDBRANCH   3   2
ENDBRANCH   7   6
ENDBRANCH   8   7
BRANCH   8  34
ATOM     34  C   UNL     1      -3.189   0.938  24.704  0.00  0.00    +0.099 C 
BRANCH  34  35
ATOM     35  C   UNL     1      -3.430   0.149  24.719  0.00  0.00    -0.006 A 
ATOM     36  C   UNL     1      -3.339  -0.298  25.407  0.00  0.00    +0.000 A 
ATOM     37  C   UNL     1      -3.580  -1.087  25.422  0.00  0.00    +0.037 A 
ATOM     38  C   UNL     1      -3.911  -1.429  24.748  0.00  0.00    +0.139 A 
ATOM     41  C   UNL     1      -4.002  -0.983  24.061  0.00  0.00    +0.037 A 
ATOM     42  C   UNL     1      -3.761  -0.194  24.046  0.00  0.00    +0.000 A 
BRANCH  38  39
ATOM     39  O   UNL     1      -4.152  -2.217  24.763  0.00  0.00    -0.471 OA
ATOM     40  C   UNL     1      -3.597  -2.820  24.664  0.00  0.00    +0.252 C 
ENDBRANCH  38  39
ENDBRANCH  34  35
ENDBRANCH   8  34
ENDBRANCH   9   8
ENDBRANCH  10   9
TORSDOF 10
ENDMDL
