MODEL 1
REMARK VINA RESULT:     -10.7      0.000      0.000
REMARK  Name = 
REMARK  9 active torsions:
REMARK  status: ('A' for Active; 'I' for Inactive)
REMARK    1  A    between atoms: O_2  and  C_3
REMARK    2  A    between atoms: C_6  and  S_9
REMARK    3  A    between atoms: S_9  and  N_12
REMARK    4  A    between atoms: C_15  and  C_16
REMARK    5  A    between atoms: C_16  and  C_17
REMARK    6  A    between atoms: C_20  and  C_21
REMARK    7  A    between atoms: C_21  and  C_22
REMARK    8  A    between atoms: C_29  and  O_30
REMARK    9  A    between atoms: C_32  and  O_33
REMARK                            x       y       z     vdW  Elec       q    Type
REMARK                         _______ _______ _______ _____ _____    ______ ____
ROOT
ATOM     12  N   UNL     1      -4.314   0.639  24.938  0.00  0.00    -0.156 NA
ATOM     13  C   UNL     1      -5.047   0.901  25.209  0.00  0.00    +0.096 C 
ATOM     14  C   UNL     1      -5.181   1.706  25.324  0.00  0.00    +0.020 C 
ATOM     15  C   UNL     1      -4.581   2.250  25.166  0.00  0.00    +0.014 C 
ATOM     20  C   UNL     1      -3.848   1.988  24.894  0.00  0.00    +0.024 C 
ATOM     36  C   UNL     1      -3.714   1.182  24.780  0.00  0.00    +0.096 C 
ENDROOT
BRANCH  12   9
ATOM      9  S   UNL     1      -4.181  -0.168  24.823  0.00  0.00    +0.063 S 
ATOM     10  O   UNL     1      -4.578  -0.131  24.101  0.00  0.00    -0.153 OA
ATOM     11  O   UNL     1      -3.783  -0.203  25.545  0.00  0.00    -0.153 OA
BRANCH   9   6
ATOM      3  C   UNL     1      -3.779  -2.585  24.481  0.00  0.00    +0.139 A 
ATOM      4  C   UNL     1      -3.527  -2.220  25.175  0.00  0.00    +0.038 A 
ATOM      5  C   UNL     1      -3.661  -1.414  25.290  0.00  0.00    +0.023 A 
ATOM      6  C   UNL     1      -4.047  -0.974  24.708  0.00  0.00    +0.122 A 
ATOM      7  C   UNL     1      -4.299  -1.339  24.014  0.00  0.00    +0.023 A 
ATOM      8  C   UNL     1      -4.165  -2.145  23.899  0.00  0.00    +0.038 A 
BRANCH   3   2
ATOM      1  C   UNL     1      -2.924  -3.651  24.061  0.00  0.00    +0.252 C 
ATOM      2  O   UNL     1      -3.645  -3.392  24.366  0.00  0.00    -0.471 OA
ENDBRANCH   3   2
ENDBRANCH   9   6
ENDBRANCH  12   9
BRANCH  15  16
ATOM     16  C   UNL     1      -4.715   3.056  25.281  0.00  0.00    +0.114 C 
BRANCH  16  17
ATOM     17  C   UNL     1      -5.369   3.309  25.715  0.00  0.00    +0.365 C 
ATOM     18  O   UNL     1      -6.023   3.630  25.327  0.00  0.00    -0.246 OA
ATOM     19  O   UNL     1      -5.369   3.239  26.537  0.00  0.00    -0.246 OA
ENDBRANCH  16  17
ENDBRANCH  15  16
BRANCH  20  21
ATOM     21  C   UNL     1      -3.248   2.532  24.737  0.00  0.00    +0.047 C 
BRANCH  21  22
ATOM     22  C   UNL     1      -2.760   2.430  24.079  0.00  0.00    +0.053 C 
ATOM     23  N   UNL     1      -3.089   2.398  23.323  0.00  0.00    -0.274 NA
ATOM     24  C   UNL     1      -2.600   2.295  22.665  0.00  0.00    +0.130 C 
ATOM     25  C   UNL     1      -1.784   2.224  22.765  0.00  0.00    +0.053 C 
ATOM     26  C   UNL     1      -1.456   2.256  23.521  0.00  0.00    -0.016 A 
ATOM     27  C   UNL     1      -1.944   2.359  24.179  0.00  0.00    +0.012 A 
ATOM     28  C   UNL     1      -1.616   2.391  24.935  0.00  0.00    +0.041 A 
ATOM     29  C   UNL     1      -0.801   2.320  25.034  0.00  0.00    +0.172 A 
ATOM     32  C   UNL     1      -0.312   2.217  24.376  0.00  0.00    +0.172 A 
ATOM     35  C   UNL     1      -0.640   2.185  23.620  0.00  0.00    +0.036 A 
BRANCH  29  30
ATOM     30  O   UNL     1      -0.472   2.351  25.790  0.00  0.00    -0.468 OA
ATOM     31  C   UNL     1      -0.688   2.954  26.309  0.00  0.00    +0.253 C 
ENDBRANCH  29  30
BRANCH  32  33
ATOM     33  O   UNL     1       0.504   2.146  24.475  0.00  0.00    -0.468 OA
ATOM     34  C   UNL     1       0.939   1.649  23.981  0.00  0.00    +0.253 C 
ENDBRANCH  32  33
ENDBRANCH  21  22
ENDBRANCH  20  21
TORSDOF 9
ENDMDL
MODEL 2
REMARK VINA RESULT:     -10.2      1.303      3.484
REMARK  Name = 
REMARK  9 active torsions:
REMARK  status: ('A' for Active; 'I' for Inactive)
REMARK    1  A    between atoms: O_2  and  C_3
REMARK    2  A    between atoms: C_6  and  S_9
REMARK    3  A    between atoms: S_9  and  N_12
REMARK    4  A    between atoms: C_15  and  C_16
REMARK    5  A    between atoms: C_16  and  C_17
REMARK    6  A    between atoms: C_20  and  C_21
REMARK    7  A    between atoms: C_21  and  C_22
REMARK    8  A    between atoms: C_29  and  O_30
REMARK    9  A    between atoms: C_32  and  O_33
REMARK                            x       y       z     vdW  Elec       q    Type
REMARK                         _______ _______ _______ _____ _____    ______ ____
ROOT
ATOM     12  N   UNL     1      -1.612   0.244  24.632  0.00  0.00    -0.156 NA
ATOM     13  C   UNL     1      -0.790   0.194  24.646  0.00  0.00    +0.096 C 
ATOM     14  C   UNL     1      -0.334   0.881  24.651  0.00  0.00    +0.020 C 
ATOM     15  C   UNL     1      -0.702   1.619  24.642  0.00  0.00    +0.014 C 
ATOM     20  C   UNL     1      -1.525   1.669  24.628  0.00  0.00    +0.024 C 
ATOM     36  C   UNL     1      -1.981   0.982  24.623  0.00  0.00    +0.096 C 
ENDROOT
BRANCH  12   9
ATOM      9  S   UNL     1      -2.068  -0.444  24.628  0.00  0.00    +0.063 S 
ATOM     10  O   UNL     1      -1.844  -0.587  23.847  0.00  0.00    -0.153 OA
ATOM     11  O   UNL     1      -2.292  -0.300  25.409  0.00  0.00    -0.153 OA
BRANCH   9   6
ATOM      3  C   UNL     1      -3.436  -2.506  24.612  0.00  0.00    +0.139 A 
ATOM      4  C   UNL     1      -3.799  -1.770  24.540  0.00  0.00    +0.038 A 
ATOM      5  C   UNL     1      -3.344  -1.082  24.545  0.00  0.00    +0.023 A 
ATOM      6  C   UNL     1      -2.524  -1.132  24.623  0.00  0.00    +0.122 A 
ATOM      7  C   UNL     1      -2.160  -1.868  24.695  0.00  0.00    +0.023 A 
ATOM      8  C   UNL     1      -2.616  -2.556  24.689  0.00  0.00    +0.038 A 
BRANCH   3   2
ATOM      1  C   UNL     1      -4.276  -3.430  23.916  0.00  0.00    +0.252 C 
ATOM      2  O   UNL     1      -3.892  -3.194  24.607  0.00  0.00    -0.471 OA
ENDBRANCH   3   2
ENDBRANCH   9   6
ENDBRANCH  12   9
BRANCH  15  16
ATOM     16  C   UNL     1      -0.246   2.307  24.646  0.00  0.00    +0.114 C 
BRANCH  16  17
ATOM     17  C   UNL     1       0.546   2.276  24.872  0.00  0.00    +0.365 C 
ATOM     18  O   UNL     1       1.131   2.138  24.307  0.00  0.00    -0.246 OA
ATOM     19  O   UNL     1       0.753   2.382  25.664  0.00  0.00    -0.246 OA
ENDBRANCH  16  17
ENDBRANCH  15  16
BRANCH  20  21
ATOM     21  C   UNL     1      -1.893   2.408  24.619  0.00  0.00    +0.047 C 
BRANCH  21  22
ATOM     22  C   UNL     1      -2.580   2.522  24.176  0.00  0.00    +0.053 C 
ATOM     23  N   UNL     1      -2.616   2.253  23.396  0.00  0.00    -0.274 NA
ATOM     24  C   UNL     1      -3.303   2.367  22.952  0.00  0.00    +0.130 C 
ATOM     25  C   UNL     1      -3.953   2.748  23.289  0.00  0.00    +0.053 C 
ATOM     26  C   UNL     1      -3.917   3.017  24.069  0.00  0.00    -0.016 A 
ATOM     27  C   UNL     1      -3.229   2.903  24.512  0.00  0.00    +0.012 A 
ATOM     28  C   UNL     1      -3.192   3.172  25.291  0.00  0.00    +0.041 A 
ATOM     29  C   UNL     1      -3.841   3.553  25.627  0.00  0.00    +0.172 A 
ATOM     32  C   UNL     1      -4.529   3.666  25.183  0.00  0.00    +0.172 A 
ATOM     35  C   UNL     1      -4.566   3.398  24.405  0.00  0.00    +0.036 A 
BRANCH  29  30
ATOM     30  O   UNL     1      -3.805   3.821  26.407  0.00  0.00    -0.468 OA
ATOM     31  C   UNL     1      -3.124   4.195  26.683  0.00  0.00    +0.253 C 
ENDBRANCH  29  30
BRANCH  32  33
ATOM     33  O   UNL     1      -5.178   4.048  25.520  0.00  0.00    -0.468 OA
ATOM     34  C   UNL     1      -5.932   3.721  25.450  0.00  0.00    +0.253 C 
ENDBRANCH  32  33
ENDBRANCH  21  22
ENDBRANCH  20  21
TORSDOF 9
ENDMDL
MODEL 3
REMARK VINA RESULT:      -9.4      2.305      4.544
REMARK  Name = 
REMARK  9 active torsions:
REMARK  status: ('A' for Active; 'I' for Inactive)
REMARK    1  A    between atoms: O_2  and  C_3
REMARK    2  A    between atoms: C_6  and  S_9
REMARK    3  A    between atoms: S_9  and  N_12
REMARK    4  A    between atoms: C_15  and  C_16
REMARK    5  A    between atoms: C_16  and  C_17
REMARK    6  A    between atoms: C_20  and  C_21
REMARK    7  A    between atoms: C_21  and  C_22
REMARK    8  A    between atoms: C_29  and  O_30
REMARK    9  A    between atoms: C_32  and  O_33
REMARK                            x       y       z     vdW  Elec       q    Type
REMARK                         _______ _______ _______ _____ _____    ______ ____
ROOT
ATOM     12  N   UNL     1      -0.536  -0.136  24.047  0.00  0.00    -0.156 NA
ATOM     13  C   UNL     1      -0.892  -0.872  24.152  0.00  0.00    +0.096 C 
ATOM     14  C   UNL     1      -1.599  -0.933  24.573  0.00  0.00    +0.020 C 
ATOM     15  C   UNL     1      -1.949  -0.256  24.889  0.00  0.00    +0.014 C 
ATOM     20  C   UNL     1      -1.593   0.480  24.784  0.00  0.00    +0.024 C 
ATOM     36  C   UNL     1      -0.886   0.541  24.362  0.00  0.00    +0.096 C 
ENDROOT
BRANCH  12   9
ATOM      9  S   UNL     1       0.171  -0.076  23.625  0.00  0.00    +0.063 S 
ATOM     10  O   UNL     1       0.527  -0.606  24.147  0.00  0.00    -0.153 OA
ATOM     11  O   UNL     1      -0.186   0.454  23.103  0.00  0.00    -0.153 OA
BRANCH   9   6
ATOM      3  C   UNL     1       2.293   0.105  22.364  0.00  0.00    +0.139 A 
ATOM      4  C   UNL     1       2.217   0.473  23.097  0.00  0.00    +0.038 A 
ATOM      5  C   UNL     1       1.510   0.413  23.518  0.00  0.00    +0.023 A 
ATOM      6  C   UNL     1       0.878  -0.016  23.204  0.00  0.00    +0.122 A 
ATOM      7  C   UNL     1       0.954  -0.385  22.471  0.00  0.00    +0.023 A 
ATOM      8  C   UNL     1       1.662  -0.324  22.050  0.00  0.00    +0.038 A 
BRANCH   3   2
ATOM      1  C   UNL     1       3.654   0.534  22.285  0.00  0.00    +0.252 C 
ATOM      2  O   UNL     1       3.000   0.165  21.943  0.00  0.00    -0.471 OA
ENDBRANCH   3   2
ENDBRANCH   9   6
ENDBRANCH  12   9
BRANCH  15  16
ATOM     16  C   UNL     1      -2.656  -0.316  25.310  0.00  0.00    +0.114 C 
BRANCH  16  17
ATOM     17  C   UNL     1      -3.122  -0.992  25.239  0.00  0.00    +0.365 C 
ATOM     18  O   UNL     1      -3.663  -1.057  24.619  0.00  0.00    -0.246 OA
ATOM     19  O   UNL     1      -3.048  -1.604  25.788  0.00  0.00    -0.246 OA
ENDBRANCH  16  17
ENDBRANCH  15  16
BRANCH  20  21
ATOM     21  C   UNL     1      -1.943   1.157  25.100  0.00  0.00    +0.047 C 
BRANCH  21  22
ATOM     22  C   UNL     1      -1.476   1.735  25.459  0.00  0.00    +0.053 C 
ATOM     23  N   UNL     1      -0.829   1.512  25.920  0.00  0.00    -0.274 NA
ATOM     24  C   UNL     1      -0.361   2.090  26.280  0.00  0.00    +0.130 C 
ATOM     25  C   UNL     1      -0.541   2.889  26.177  0.00  0.00    +0.053 C 
ATOM     26  C   UNL     1      -1.189   3.111  25.716  0.00  0.00    -0.016 A 
ATOM     27  C   UNL     1      -1.656   2.533  25.357  0.00  0.00    +0.012 A 
ATOM     28  C   UNL     1      -2.303   2.755  24.896  0.00  0.00    +0.041 A 
ATOM     29  C   UNL     1      -2.483   3.553  24.794  0.00  0.00    +0.172 A 
ATOM     32  C   UNL     1      -2.015   4.131  25.153  0.00  0.00    +0.172 A 
ATOM     35  C   UNL     1      -1.368   3.909  25.614  0.00  0.00    +0.036 A 
BRANCH  29  30
ATOM     30  O   UNL     1      -3.130   3.775  24.333  0.00  0.00    -0.468 OA
ATOM     31  C   UNL     1      -3.836   3.352  24.381  0.00  0.00    +0.253 C 
ENDBRANCH  29  30
BRANCH  32  33
ATOM     33  O   UNL     1      -2.196   4.929  25.051  0.00  0.00    -0.468 OA
ATOM     34  C   UNL     1      -1.599   5.497  25.095  0.00  0.00    +0.253 C 
ENDBRANCH  32  33
ENDBRANCH  21  22
ENDBRANCH  20  21
TORSDOF 9
ENDMDL
MODEL 4
REMARK VINA RESULT:      -8.8      1.735      4.562
REMARK  Name = 
REMARK  9 active torsions:
REMARK  status: ('A' for Active; 'I' for Inactive)
REMARK    1  A    between atoms: O_2  and  C_3
REMARK    2  A    between atoms: C_6  and  S_9
REMARK    3  A    between atoms: S_9  and  N_12
REMARK    4  A    between atoms: C_15  and  C_16
REMARK    5  A    between atoms: C_16  and  C_17
REMARK    6  A    between atoms: C_20  and  C_21
REMARK    7  A    between atoms: C_21  and  C_22
REMARK    8  A    between atoms: C_29  and  O_30
REMARK    9  A    between atoms: C_32  and  O_33
REMARK                            x       y       z     vdW  Elec       q    Type
REMARK                         _______ _______ _______ _____ _____    ______ ____
ROOT
ATOM     12  N   UNL     1      -3.773   2.845  25.153  0.00  0.00    -0.156 NA
ATOM     13  C   UNL     1      -4.511   3.202  25.231  0.00  0.00    +0.096 C 
ATOM     14  C   UNL     1      -5.192   2.738  25.266  0.00  0.00    +0.020 C 
ATOM     15  C   UNL     1      -5.133   1.916  25.222  0.00  0.00    +0.014 C 
ATOM     20  C   UNL     1      -4.394   1.559  25.144  0.00  0.00    +0.024 C 
ATOM     36  C   UNL     1      -3.713   2.023  25.109  0.00  0.00    +0.096 C 
ENDROOT
BRANCH  12   9
ATOM      9  S   UNL     1      -3.091   3.310  25.118  0.00  0.00    +0.063 S 
ATOM     10  O   UNL     1      -2.852   3.013  25.849  0.00  0.00    -0.153 OA
ATOM     11  O   UNL     1      -3.332   3.606  24.386  0.00  0.00    -0.153 OA
BRANCH   9   6
ATOM      3  C   UNL     1      -1.048   4.701  25.013  0.00  0.00    +0.139 A 
ATOM      4  C   UNL     1      -1.027   3.919  24.755  0.00  0.00    +0.038 A 
ATOM      5  C   UNL     1      -1.708   3.455  24.789  0.00  0.00    +0.023 A 
ATOM      6  C   UNL     1      -2.410   3.774  25.083  0.00  0.00    +0.122 A 
ATOM      7  C   UNL     1      -2.431   4.556  25.342  0.00  0.00    +0.023 A 
ATOM      8  C   UNL     1      -1.749   5.021  25.307  0.00  0.00    +0.038 A 
BRANCH   3   2
ATOM      1  C   UNL     1       0.002   5.305  24.254  0.00  0.00    +0.252 C 
ATOM      2  O   UNL     1      -0.366   5.165  24.979  0.00  0.00    -0.471 OA
ENDBRANCH   3   2
ENDBRANCH   9   6
ENDBRANCH  12   9
BRANCH  15  16
ATOM     16  C   UNL     1      -5.814   1.451  25.257  0.00  0.00    +0.114 C 
BRANCH  16  17
ATOM     17  C   UNL     1      -6.544   1.800  25.422  0.00  0.00    +0.365 C 
ATOM     18  O   UNL     1      -6.770   1.933  26.204  0.00  0.00    -0.246 OA
ATOM     19  O   UNL     1      -7.046   2.015  24.804  0.00  0.00    -0.246 OA
ENDBRANCH  16  17
ENDBRANCH  15  16
BRANCH  20  21
ATOM     21  C   UNL     1      -4.335   0.737  25.101  0.00  0.00    +0.047 C 
BRANCH  21  22
ATOM     22  C   UNL     1      -3.920   0.385  24.481  0.00  0.00    +0.053 C 
ATOM     23  N   UNL     1      -3.845   0.779  23.759  0.00  0.00    -0.274 NA
ATOM     24  C   UNL     1      -3.430   0.427  23.139  0.00  0.00    +0.130 C 
ATOM     25  C   UNL     1      -3.089  -0.318  23.241  0.00  0.00    +0.053 C 
ATOM     26  C   UNL     1      -3.164  -0.712  23.962  0.00  0.00    -0.016 A 
ATOM     27  C   UNL     1      -3.580  -0.360  24.583  0.00  0.00    +0.012 A 
ATOM     28  C   UNL     1      -3.655  -0.752  25.304  0.00  0.00    +0.041 A 
ATOM     29  C   UNL     1      -3.315  -1.496  25.405  0.00  0.00    +0.172 A 
ATOM     32  C   UNL     1      -2.899  -1.849  24.785  0.00  0.00    +0.172 A 
ATOM     35  C   UNL     1      -2.824  -1.456  24.064  0.00  0.00    +0.036 A 
BRANCH  29  30
ATOM     30  O   UNL     1      -3.389  -1.890  26.127  0.00  0.00    -0.468 OA
ATOM     31  C   UNL     1      -3.247  -1.489  26.833  0.00  0.00    +0.253 C 
ENDBRANCH  29  30
BRANCH  32  33
ATOM     33  O   UNL     1      -2.559  -2.594  24.887  0.00  0.00    -0.468 OA
ATOM     34  C   UNL     1      -2.087  -2.917  24.293  0.00  0.00    +0.253 C 
ENDBRANCH  32  33
ENDBRANCH  21  22
ENDBRANCH  20  21
TORSDOF 9
ENDMDL
MODEL 5
REMARK VINA RESULT:      -8.8      1.337      4.074
REMARK  Name = 
REMARK  9 active torsions:
REMARK  status: ('A' for Active; 'I' for Inactive)
REMARK    1  A    between atoms: O_2  and  C_3
REMARK    2  A    between atoms: C_6  and  S_9
REMARK    3  A    between atoms: S_9  and  N_12
REMARK    4  A    between atoms: C_15  and  C_16
REMARK    5  A    between atoms: C_16  and  C_17
REMARK    6  A    between atoms: C_20  and  C_21
REMARK    7  A    between atoms: C_21  and  C_22
REMARK    8  A    between atoms: C_29  and  O_30
REMARK    9  A    between atoms: C_32  and  O_33
REMARK                            x       y       z     vdW  Elec       q    Type
REMARK                         _______ _______ _______ _____ _____    ______ ____
ROOT
ATOM     12  N   UNL     1      -4.357   0.225  24.726  0.00  0.00    -0.156 NA
ATOM     13  C   UNL     1      -4.847  -0.427  24.612  0.00  0.00    +0.096 C 
ATOM     14  C   UNL     1      -4.523  -1.153  24.391  0.00  0.00    +0.020 C 
ATOM     15  C   UNL     1      -3.708  -1.225  24.286  0.00  0.00    +0.014 C 
ATOM     20  C   UNL     1      -3.218  -0.572  24.400  0.00  0.00    +0.024 C 
ATOM     36  C   UNL     1      -3.542   0.154  24.621  0.00  0.00    +0.096 C 
ENDROOT
BRANCH  12   9
ATOM      9  S   UNL     1      -4.682   0.952  24.947  0.00  0.00    +0.063 S 
ATOM     10  O   UNL     1      -4.784   0.672  25.716  0.00  0.00    -0.153 OA
ATOM     11  O   UNL     1      -4.579   1.231  24.177  0.00  0.00    -0.153 OA
BRANCH   9   6
ATOM      3  C   UNL     1      -5.654   3.129  25.610  0.00  0.00    +0.139 A 
ATOM      4  C   UNL     1      -4.856   3.077  25.411  0.00  0.00    +0.038 A 
ATOM      5  C   UNL     1      -4.531   2.352  25.190  0.00  0.00    +0.023 A 
ATOM      6  C   UNL     1      -5.006   1.677  25.168  0.00  0.00    +0.122 A 
ATOM      7  C   UNL     1      -5.804   1.728  25.367  0.00  0.00    +0.023 A 
ATOM      8  C   UNL     1      -6.129   2.455  25.588  0.00  0.00    +0.038 A 
BRANCH   3   2
ATOM      1  C   UNL     1      -5.692   4.553  25.497  0.00  0.00    +0.252 C 
ATOM      2  O   UNL     1      -5.978   3.855  25.831  0.00  0.00    -0.471 OA
ENDBRANCH   3   2
ENDBRANCH   9   6
ENDBRANCH  12   9
BRANCH  15  16
ATOM     16  C   UNL     1      -3.383  -1.951  24.065  0.00  0.00    +0.114 C 
BRANCH  16  17
ATOM     17  C   UNL     1      -3.857  -2.626  24.045  0.00  0.00    +0.365 C 
ATOM     18  O   UNL     1      -4.355  -2.761  23.401  0.00  0.00    -0.246 OA
ATOM     19  O   UNL     1      -3.832  -3.165  24.670  0.00  0.00    -0.246 OA
ENDBRANCH  16  17
ENDBRANCH  15  16
BRANCH  20  21
ATOM     21  C   UNL     1      -2.402  -0.644  24.295  0.00  0.00    +0.047 C 
BRANCH  21  22
ATOM     22  C   UNL     1      -1.886  -0.388  24.885  0.00  0.00    +0.053 C 
ATOM     23  N   UNL     1      -1.908  -0.739  25.632  0.00  0.00    -0.274 NA
ATOM     24  C   UNL     1      -1.390  -0.483  26.223  0.00  0.00    +0.130 C 
ATOM     25  C   UNL     1      -0.852   0.123  26.065  0.00  0.00    +0.053 C 
ATOM     26  C   UNL     1      -0.830   0.473  25.318  0.00  0.00    -0.016 A 
ATOM     27  C   UNL     1      -1.347   0.217  24.727  0.00  0.00    +0.012 A 
ATOM     28  C   UNL     1      -1.326   0.567  23.981  0.00  0.00    +0.041 A 
ATOM     29  C   UNL     1      -0.788   1.171  23.824  0.00  0.00    +0.172 A 
ATOM     32  C   UNL     1      -0.271   1.427  24.415  0.00  0.00    +0.172 A 
ATOM     35  C   UNL     1      -0.292   1.078  25.162  0.00  0.00    +0.036 A 
BRANCH  29  30
ATOM     30  O   UNL     1      -0.766   1.522  23.077  0.00  0.00    -0.468 OA
ATOM     31  C   UNL     1      -1.439   1.887  22.773  0.00  0.00    +0.253 C 
ENDBRANCH  29  30
BRANCH  32  33
ATOM     33  O   UNL     1       0.267   2.033  24.258  0.00  0.00    -0.468 OA
ATOM     34  C   UNL     1       0.523   2.527  24.866  0.00  0.00    +0.253 C 
ENDBRANCH  32  33
ENDBRANCH  21  22
ENDBRANCH  20  21
TORSDOF 9
ENDMDL
MODEL 6
REMARK VINA RESULT:      -8.8      1.984      3.961
REMARK  Name = 
REMARK  9 active torsions:
REMARK  status: ('A' for Active; 'I' for Inactive)
REMARK    1  A    between atoms: O_2  and  C_3
REMARK    2  A    between atoms: C_6  and  S_9
REMARK    3  A    between atoms: S_9  and  N_12
REMARK    4  A    between atoms: C_15  and  C_16
REMARK    5  A    between atoms: C_16  and  C_17
REMARK    6  A    between atoms: C_20  and  C_21
REMARK    7  A    between atoms: C_21  and  C_22
REMARK    8  A    between atoms: C_29  and  O_30
REMARK    9  A    between atoms: C_32  and  O_33
REMARK                            x       y       z     vdW  Elec       q    Type
REMARK                         _______ _______ _______ _____ _____    ______ ____
ROOT
ATOM     12  N   UNL     1      -0.982   1.943  24.982  0.00  0.00    -0.156 NA
ATOM     13  C   UNL     1      -0.322   2.433  25.045  0.00  0.00    +0.096 C 
ATOM     14  C   UNL     1      -0.410   3.252  25.000  0.00  0.00    +0.020 C 
ATOM     15  C   UNL     1      -1.160   3.580  24.891  0.00  0.00    +0.014 C 
ATOM     20  C   UNL     1      -1.819   3.090  24.827  0.00  0.00    +0.024 C 
ATOM     36  C   UNL     1      -1.731   2.271  24.872  0.00  0.00    +0.096 C 
ENDROOT
BRANCH  12   9
ATOM      9  S   UNL     1      -0.893   1.123  25.027  0.00  0.00    +0.063 S 
ATOM     10  O   UNL     1      -0.621   1.110  24.249  0.00  0.00    -0.153 OA
ATOM     11  O   UNL     1      -1.166   1.138  25.806  0.00  0.00    -0.153 OA
BRANCH   9   6
ATOM      3  C   UNL     1      -0.628  -1.333  25.164  0.00  0.00    +0.139 A 
ATOM      4  C   UNL     1      -1.045  -0.930  25.750  0.00  0.00    +0.038 A 
ATOM      5  C   UNL     1      -1.133  -0.111  25.705  0.00  0.00    +0.023 A 
ATOM      6  C   UNL     1      -0.804   0.305  25.072  0.00  0.00    +0.122 A 
ATOM      7  C   UNL     1      -0.388  -0.098  24.486  0.00  0.00    +0.023 A 
ATOM      8  C   UNL     1      -0.299  -0.918  24.532  0.00  0.00    +0.038 A 
BRANCH   3   2
ATOM      1  C   UNL     1      -1.122  -2.648  24.901  0.00  0.00    +0.252 C 
ATOM      2  O   UNL     1      -0.540  -2.153  25.210  0.00  0.00    -0.471 OA
ENDBRANCH   3   2
ENDBRANCH   9   6
ENDBRANCH  12   9
BRANCH  15  16
ATOM     16  C   UNL     1      -1.248   4.399  24.845  0.00  0.00    +0.114 C 
BRANCH  16  17
ATOM     17  C   UNL     1      -0.594   4.877  24.689  0.00  0.00    +0.365 C 
ATOM     18  O   UNL     1      -0.241   5.305  25.300  0.00  0.00    -0.246 OA
ATOM     19  O   UNL     1      -0.294   4.926  23.922  0.00  0.00    -0.246 OA
ENDBRANCH  16  17
ENDBRANCH  15  16
BRANCH  20  21
ATOM     21  C   UNL     1      -2.569   3.418  24.718  0.00  0.00    +0.047 C 
BRANCH  21  22
ATOM     22  C   UNL     1      -3.124   3.030  24.247  0.00  0.00    +0.053 C 
ATOM     23  N   UNL     1      -2.922   2.792  23.483  0.00  0.00    -0.274 NA
ATOM     24  C   UNL     1      -3.479   2.404  23.012  0.00  0.00    +0.130 C 
ATOM     25  C   UNL     1      -4.236   2.255  23.305  0.00  0.00    +0.053 C 
ATOM     26  C   UNL     1      -4.437   2.494  24.069  0.00  0.00    -0.016 A 
ATOM     27  C   UNL     1      -3.881   2.882  24.540  0.00  0.00    +0.012 A 
ATOM     28  C   UNL     1      -4.082   3.120  25.304  0.00  0.00    +0.041 A 
ATOM     29  C   UNL     1      -4.838   2.972  25.596  0.00  0.00    +0.172 A 
ATOM     32  C   UNL     1      -5.394   2.583  25.125  0.00  0.00    +0.172 A 
ATOM     35  C   UNL     1      -5.193   2.345  24.362  0.00  0.00    +0.036 A 
BRANCH  29  30
ATOM     30  O   UNL     1      -5.040   3.210  26.360  0.00  0.00    -0.468 OA
ATOM     31  C   UNL     1      -4.672   3.865  26.699  0.00  0.00    +0.253 C 
ENDBRANCH  29  30
BRANCH  32  33
ATOM     33  O   UNL     1      -6.151   2.435  25.419  0.00  0.00    -0.468 OA
ATOM     34  C   UNL     1      -6.586   1.795  25.135  0.00  0.00    +0.253 C 
ENDBRANCH  32  33
ENDBRANCH  21  22
ENDBRANCH  20  21
TORSDOF 9
ENDMDL
MODEL 7
REMARK VINA RESULT:      -8.6      1.532      4.541
REMARK  Name = 
REMARK  9 active torsions:
REMARK  status: ('A' for Active; 'I' for Inactive)
REMARK    1  A    between atoms: O_2  and  C_3
REMARK    2  A    between atoms: C_6  and  S_9
REMARK    3  A    between atoms: S_9  and  N_12
REMARK    4  A    between atoms: C_15  and  C_16
REMARK    5  A    between atoms: C_16  and  C_17
REMARK    6  A    between atoms: C_20  and  C_21
REMARK    7  A    between atoms: C_21  and  C_22
REMARK    8  A    between atoms: C_29  and  O_30
REMARK    9  A    between atoms: C_32  and  O_33
REMARK                            x       y       z     vdW  Elec       q    Type
REMARK                         _______ _______ _______ _____ _____    ______ ____
ROOT
ATOM     12  N   UNL     1      -1.510  -0.273  24.280  0.00  0.00    -0.156 NA
ATOM     13  C   UNL     1      -1.568  -1.068  24.490  0.00  0.00    +0.096 C 
ATOM     14  C   UNL     1      -2.305  -1.399  24.652  0.00  0.00    +0.020 C 
ATOM     15  C   UNL     1      -2.985  -0.934  24.603  0.00  0.00    +0.014 C 
ATOM     20  C   UNL     1      -2.927  -0.140  24.393  0.00  0.00    +0.024 C 
ATOM     36  C   UNL     1      -2.189   0.192  24.232  0.00  0.00    +0.096 C 
ENDROOT
BRANCH  12   9
ATOM      9  S   UNL     1      -0.771   0.059  24.119  0.00  0.00    +0.063 S 
ATOM     10  O   UNL     1      -0.798  -0.254  23.356  0.00  0.00    -0.153 OA
ATOM     11  O   UNL     1      -0.745   0.371  24.882  0.00  0.00    -0.153 OA
BRANCH   9   6
ATOM      3  C   UNL     1       1.443   1.053  23.635  0.00  0.00    +0.139 A 
ATOM      4  C   UNL     1       0.912   1.448  24.126  0.00  0.00    +0.038 A 
ATOM      5  C   UNL     1       0.174   1.117  24.288  0.00  0.00    +0.023 A 
ATOM      6  C   UNL     1      -0.033   0.390  23.957  0.00  0.00    +0.122 A 
ATOM      7  C   UNL     1       0.498  -0.005  23.466  0.00  0.00    +0.023 A 
ATOM      8  C   UNL     1       1.236   0.326  23.304  0.00  0.00    +0.038 A 
BRANCH   3   2
ATOM      1  C   UNL     1       2.745   0.952  23.054  0.00  0.00    +0.252 C 
ATOM      2  O   UNL     1       2.181   1.385  23.473  0.00  0.00    -0.471 OA
ENDBRANCH   3   2
ENDBRANCH   9   6
ENDBRANCH  12   9
BRANCH  15  16
ATOM     16  C   UNL     1      -3.724  -1.266  24.764  0.00  0.00    +0.114 C 
BRANCH  16  17
ATOM     17  C   UNL     1      -3.819  -2.085  24.756  0.00  0.00    +0.365 C 
ATOM     18  O   UNL     1      -3.647  -2.527  25.432  0.00  0.00    -0.246 OA
ATOM     19  O   UNL     1      -4.086  -2.462  24.072  0.00  0.00    -0.246 OA
ENDBRANCH  16  17
ENDBRANCH  15  16
BRANCH  20  21
ATOM     21  C   UNL     1      -3.607   0.326  24.344  0.00  0.00    +0.047 C 
BRANCH  21  22
ATOM     22  C   UNL     1      -3.578   1.062  23.973  0.00  0.00    +0.053 C 
ATOM     23  N   UNL     1      -3.147   1.154  23.276  0.00  0.00    -0.274 NA
ATOM     24  C   UNL     1      -3.118   1.891  22.904  0.00  0.00    +0.130 C 
ATOM     25  C   UNL     1      -3.520   2.534  23.230  0.00  0.00    +0.053 C 
ATOM     26  C   UNL     1      -3.952   2.441  23.927  0.00  0.00    -0.016 A 
ATOM     27  C   UNL     1      -3.981   1.704  24.299  0.00  0.00    +0.012 A 
ATOM     28  C   UNL     1      -4.412   1.611  24.996  0.00  0.00    +0.041 A 
ATOM     29  C   UNL     1      -4.813   2.253  25.321  0.00  0.00    +0.172 A 
ATOM     32  C   UNL     1      -4.784   2.990  24.949  0.00  0.00    +0.172 A 
ATOM     35  C   UNL     1      -4.354   3.083  24.253  0.00  0.00    +0.036 A 
BRANCH  29  30
ATOM     30  O   UNL     1      -5.245   2.160  26.019  0.00  0.00    -0.468 OA
ATOM     31  C   UNL     1      -5.897   1.656  26.037  0.00  0.00    +0.253 C 
ENDBRANCH  29  30
BRANCH  32  33
ATOM     33  O   UNL     1      -5.187   3.632  25.276  0.00  0.00    -0.468 OA
ATOM     34  C   UNL     1      -4.850   4.384  25.255  0.00  0.00    +0.253 C 
ENDBRANCH  32  33
ENDBRANCH  21  22
ENDBRANCH  20  21
TORSDOF 9
ENDMDL
MODEL 8
REMARK VINA RESULT:      -8.4      1.696      4.412
REMARK  Name = 
REMARK  9 active torsions:
REMARK  status: ('A' for Active; 'I' for Inactive)
REMARK    1  A    between atoms: O_2  and  C_3
REMARK    2  A    between atoms: C_6  and  S_9
REMARK    3  A    between atoms: S_9  and  N_12
REMARK    4  A    between atoms: C_15  and  C_16
REMARK    5  A    between atoms: C_16  and  C_17
REMARK    6  A    between atoms: C_20  and  C_21
REMARK    7  A    between atoms: C_21  and  C_22
REMARK    8  A    between atoms: C_29  and  O_30
REMARK    9  A    between atoms: C_32  and  O_33
REMARK                            x       y       z     vdW  Elec       q    Type
REMARK                         _______ _______ _______ _____ _____    ______ ____
ROOT
ATOM     12  N   UNL     1      -0.870   1.771  24.434  0.00  0.00    -0.156 NA
ATOM     13  C   UNL     1      -0.830   2.565  24.648  0.00  0.00    +0.096 C 
ATOM     14  C   UNL     1      -1.479   2.932  25.000  0.00  0.00    +0.020 C 
ATOM     15  C   UNL     1      -2.170   2.503  25.137  0.00  0.00    +0.014 C 
ATOM     20  C   UNL     1      -2.211   1.708  24.922  0.00  0.00    +0.024 C 
ATOM     36  C   UNL     1      -1.561   1.341  24.571  0.00  0.00    +0.096 C 
ENDROOT
BRANCH  12   9
ATOM      9  S   UNL     1      -0.220   1.404  24.082  0.00  0.00    +0.063 S 
ATOM     10  O   UNL     1      -0.377   1.803  23.377  0.00  0.00    -0.153 OA
ATOM     11  O   UNL     1      -0.064   1.006  24.787  0.00  0.00    -0.153 OA
BRANCH   9   6
ATOM      3  C   UNL     1       1.728   0.304  23.025  0.00  0.00    +0.139 A 
ATOM      4  C   UNL     1       0.995  -0.072  23.029  0.00  0.00    +0.038 A 
ATOM      5  C   UNL     1       0.345   0.294  23.381  0.00  0.00    +0.023 A 
ATOM      6  C   UNL     1       0.430   1.038  23.730  0.00  0.00    +0.122 A 
ATOM      7  C   UNL     1       1.163   1.414  23.726  0.00  0.00    +0.023 A 
ATOM      8  C   UNL     1       1.813   1.047  23.373  0.00  0.00    +0.038 A 
BRANCH   3   2
ATOM      1  C   UNL     1       3.094   0.341  22.605  0.00  0.00    +0.252 C 
ATOM      2  O   UNL     1       2.378  -0.063  22.672  0.00  0.00    -0.471 OA
ENDBRANCH   3   2
ENDBRANCH   9   6
ENDBRANCH  12   9
BRANCH  15  16
ATOM     16  C   UNL     1      -2.820   2.870  25.489  0.00  0.00    +0.114 C 
BRANCH  16  17
ATOM     17  C   UNL     1      -2.816   3.685  25.616  0.00  0.00    +0.365 C 
ATOM     18  O   UNL     1      -3.040   4.198  25.010  0.00  0.00    -0.246 OA
ATOM     19  O   UNL     1      -2.587   3.986  26.350  0.00  0.00    -0.246 OA
ENDBRANCH  16  17
ENDBRANCH  15  16
BRANCH  20  21
ATOM     21  C   UNL     1      -2.902   1.279  25.060  0.00  0.00    +0.047 C 
BRANCH  21  22
ATOM     22  C   UNL     1      -3.207   0.787  24.471  0.00  0.00    +0.053 C 
ATOM     23  N   UNL     1      -3.353   1.089  23.717  0.00  0.00    -0.274 NA
ATOM     24  C   UNL     1      -3.657   0.597  23.128  0.00  0.00    +0.130 C 
ATOM     25  C   UNL     1      -3.815  -0.196  23.293  0.00  0.00    +0.053 C 
ATOM     26  C   UNL     1      -3.668  -0.498  24.047  0.00  0.00    -0.016 A 
ATOM     27  C   UNL     1      -3.364  -0.006  24.637  0.00  0.00    +0.012 A 
ATOM     28  C   UNL     1      -3.218  -0.307  25.390  0.00  0.00    +0.041 A 
ATOM     29  C   UNL     1      -3.375  -1.099  25.555  0.00  0.00    +0.172 A 
ATOM     32  C   UNL     1      -3.679  -1.591  24.966  0.00  0.00    +0.172 A 
ATOM     35  C   UNL     1      -3.826  -1.290  24.213  0.00  0.00    +0.036 A 
BRANCH  29  30
ATOM     30  O   UNL     1      -3.229  -1.401  26.309  0.00  0.00    -0.468 OA
ATOM     31  C   UNL     1      -2.476  -1.340  26.639  0.00  0.00    +0.253 C 
ENDBRANCH  29  30
BRANCH  32  33
ATOM     33  O   UNL     1      -3.837  -2.384  25.132  0.00  0.00    -0.468 OA
ATOM     34  C   UNL     1      -3.845  -2.940  24.523  0.00  0.00    +0.253 C 
ENDBRANCH  32  33
ENDBRANCH  21  22
ENDBRANCH  20  21
TORSDOF 9
ENDMDL
MODEL 9
REMARK VINA RESULT:      -8.2      2.105      4.223
REMARK  Name = 
REMARK  9 active torsions:
REMARK  status: ('A' for Active; 'I' for Inactive)
REMARK    1  A    between atoms: O_2  and  C_3
REMARK    2  A    between atoms: C_6  and  S_9
REMARK    3  A    between atoms: S_9  and  N_12
REMARK    4  A    between atoms: C_15  and  C_16
REMARK    5  A    between atoms: C_16  and  C_17
REMARK    6  A    between atoms: C_20  and  C_21
REMARK    7  A    between atoms: C_21  and  C_22
REMARK    8  A    between atoms: C_29  and  O_30
REMARK    9  A    between atoms: C_32  and  O_33
REMARK                            x       y       z     vdW  Elec       q    Type
REMARK                         _______ _______ _______ _____ _____    ______ ____
ROOT
ATOM     12  N   UNL     1      -0.474  -0.281  24.174  0.00  0.00    -0.156 NA
ATOM     13  C   UNL     1       0.211  -0.592  23.839  0.00  0.00    +0.096 C 
ATOM     14  C   UNL     1       0.822  -0.089  23.605  0.00  0.00    +0.020 C 
ATOM     15  C   UNL     1       0.745   0.726  23.707  0.00  0.00    +0.014 C 
ATOM     20  C   UNL     1       0.060   1.037  24.042  0.00  0.00    +0.024 C 
ATOM     36  C   UNL     1      -0.551   0.534  24.276  0.00  0.00    +0.096 C 
ENDROOT
BRANCH  12   9
ATOM      9  S   UNL     1      -1.085  -0.784  24.408  0.00  0.00    +0.063 S 
ATOM     10  O   UNL     1      -1.547  -0.515  23.780  0.00  0.00    -0.153 OA
ATOM     11  O   UNL     1      -0.622  -1.053  25.036  0.00  0.00    -0.153 OA
BRANCH   9   6
ATOM      3  C   UNL     1      -2.915  -2.295  25.108  0.00  0.00    +0.139 A 
ATOM      4  C   UNL     1      -2.322  -2.571  24.608  0.00  0.00    +0.038 A 
ATOM      5  C   UNL     1      -1.712  -2.068  24.374  0.00  0.00    +0.023 A 
ATOM      6  C   UNL     1      -1.695  -1.288  24.642  0.00  0.00    +0.122 A 
ATOM      7  C   UNL     1      -2.289  -1.011  25.143  0.00  0.00    +0.023 A 
ATOM      8  C   UNL     1      -2.900  -1.515  25.376  0.00  0.00    +0.038 A 
BRANCH   3   2
ATOM      1  C   UNL     1      -3.927  -3.251  24.779  0.00  0.00    +0.252 C 
ATOM      2  O   UNL     1      -3.526  -2.799  25.342  0.00  0.00    -0.471 OA
ENDBRANCH   3   2
ENDBRANCH   9   6
ENDBRANCH  12   9
BRANCH  15  16
ATOM     16  C   UNL     1       1.356   1.230  23.472  0.00  0.00    +0.114 C 
BRANCH  16  17
ATOM     17  C   UNL     1       2.035   0.919  23.122  0.00  0.00    +0.365 C 
ATOM     18  O   UNL     1       1.974   0.460  22.439  0.00  0.00    -0.246 OA
ATOM     19  O   UNL     1       2.775   1.068  23.455  0.00  0.00    -0.246 OA
ENDBRANCH  16  17
ENDBRANCH  15  16
BRANCH  20  21
ATOM     21  C   UNL     1      -0.017   1.853  24.143  0.00  0.00    +0.047 C 
BRANCH  21  22
ATOM     22  C   UNL     1      -0.175   2.163  24.891  0.00  0.00    +0.053 C 
ATOM     23  N   UNL     1       0.335   2.002  25.520  0.00  0.00    -0.274 NA
ATOM     24  C   UNL     1       0.176   2.312  26.269  0.00  0.00    +0.130 C 
ATOM     25  C   UNL     1      -0.491   2.782  26.387  0.00  0.00    +0.053 C 
ATOM     26  C   UNL     1      -1.001   2.943  25.759  0.00  0.00    -0.016 A 
ATOM     27  C   UNL     1      -0.843   2.633  25.010  0.00  0.00    +0.012 A 
ATOM     28  C   UNL     1      -1.352   2.793  24.381  0.00  0.00    +0.041 A 
ATOM     29  C   UNL     1      -2.019   3.263  24.500  0.00  0.00    +0.172 A 
ATOM     32  C   UNL     1      -2.177   3.573  25.249  0.00  0.00    +0.172 A 
ATOM     35  C   UNL     1      -1.668   3.413  25.877  0.00  0.00    +0.036 A 
BRANCH  29  30
ATOM     30  O   UNL     1      -2.528   3.423  23.871  0.00  0.00    -0.468 OA
ATOM     31  C   UNL     1      -2.935   2.809  23.501  0.00  0.00    +0.253 C 
ENDBRANCH  29  30
BRANCH  32  33
ATOM     33  O   UNL     1      -2.845   4.043  25.367  0.00  0.00    -0.468 OA
ATOM     34  C   UNL     1      -3.067   4.260  26.131  0.00  0.00    +0.253 C 
ENDBRANCH  32  33
ENDBRANCH  21  22
ENDBRANCH  20  21
TORSDOF 9
ENDMDL
