REMARK  Name = 
REMARK  6 active torsions:
REMARK  status: ('A' for Active; 'I' for Inactive)
REMARK    1  A    between atoms: O_2  and  C_3
REMARK    2  A    between atoms: C_6  and  C_9
REMARK    3  A    between atoms: C_14  and  C_15
REMARK    4  A    between atoms: C_15  and  C_16
REMARK    5  A    between atoms: C_19  and  C_20
REMARK    6  A    between atoms: C_20  and  C_21
REMARK                            x       y       z     vdW  Elec       q    Type
REMARK                         _______ _______ _______ _____ _____    ______ ____
ROOT
ATOM      9  C   UNL     1      -2.858   0.825   0.000  0.00  0.00    +0.249 C 
ATOM     10  O   UNL     1      -2.858   0.000   0.000  0.00  0.00    -0.270 OA
ATOM     11  N   UNL     1      -2.143   1.238   0.000  0.00  0.00    -0.276 N 
ATOM     12  C   UNL     1      -2.143   2.062   0.000  0.00  0.00    +0.094 C 
ATOM     13  C   UNL     1      -1.429   2.475   0.000  0.00  0.00    +0.022 C 
ATOM     14  C   UNL     1      -0.715   2.062   0.000  0.00  0.00    +0.015 C 
ATOM     19  C   UNL     1      -0.715   1.238   0.000  0.00  0.00    +0.026 C 
ATOM     31  C   UNL     1      -1.429   0.825   0.000  0.00  0.00    +0.094 C 
ENDROOT
BRANCH   9   6
ATOM      3  C   UNL     1      -5.001   2.062   0.000  0.00  0.00    +0.139 A 
ATOM      4  C   UNL     1      -4.287   2.475   0.000  0.00  0.00    +0.037 A 
ATOM      5  C   UNL     1      -3.572   2.062   0.000  0.00  0.00    +0.008 A 
ATOM      6  C   UNL     1      -3.572   1.238   0.000  0.00  0.00    +0.054 A 
ATOM      7  C   UNL     1      -4.287   0.825   0.000  0.00  0.00    +0.008 A 
ATOM      8  C   UNL     1      -5.001   1.238   0.000  0.00  0.00    +0.037 A 
BRANCH   3   2
ATOM      1  C   UNL     1      -6.430   2.062   0.000  0.00  0.00    +0.252 C 
ATOM      2  O   UNL     1      -5.716   2.475   0.000  0.00  0.00    -0.471 OA
ENDBRANCH   3   2
ENDBRANCH   9   6
BRANCH  14  15
ATOM     15  C   UNL     1       0.000   2.475   0.000  0.00  0.00    +0.114 C 
BRANCH  15  16
ATOM     16  C   UNL     1       0.000   3.300   0.000  0.00  0.00    +0.365 C 
ATOM     17  O   UNL     1      -0.715   3.712   0.000  0.00  0.00    -0.246 OA
ATOM     18  O   UNL     1       0.715   3.712   0.000  0.00  0.00    -0.246 OA
ENDBRANCH  15  16
ENDBRANCH  14  15
BRANCH  19  20
ATOM     20  C   UNL     1       0.000   0.825   0.000  0.00  0.00    +0.047 C 
BRANCH  20  21
ATOM     21  C   UNL     1       0.000   0.000   0.000  0.00  0.00    +0.053 C 
ATOM     22  N   UNL     1      -0.715  -0.412   0.000  0.00  0.00    -0.274 NA
ATOM     23  C   UNL     1      -0.715  -1.238   0.000  0.00  0.00    +0.130 C 
ATOM     24  C   UNL     1       0.000  -1.650   0.000  0.00  0.00    +0.053 C 
ATOM     25  C   UNL     1       0.715  -1.238   0.000  0.00  0.00    -0.019 A 
ATOM     26  C   UNL     1       0.715  -0.412   0.000  0.00  0.00    +0.009 A 
ATOM     27  C   UNL     1       1.429   0.000   0.000  0.00  0.00    +0.001 A 
ATOM     28  C   UNL     1       2.143  -0.412   0.000  0.00  0.00    +0.000 A 
ATOM     29  C   UNL     1       2.143  -1.238   0.000  0.00  0.00    -0.000 A 
ATOM     30  C   UNL     1       1.429  -1.650   0.000  0.00  0.00    -0.004 A 
ENDBRANCH  20  21
ENDBRANCH  19  20
TORSDOF 6
