MODEL 1
REMARK VINA RESULT:     -11.0      0.000      0.000
REMARK  Name = 
REMARK  2 active torsions:
REMARK  status: ('A' for Active; 'I' for Inactive)
REMARK    1  A    between atoms: C_2  and  N_4
REMARK    2  A    between atoms: C_7  and  C_9
REMARK                            x       y       z     vdW  Elec       q    Type
REMARK                         _______ _______ _______ _____ _____    ______ ____
ROOT
ATOM      9  C   UNL     1      -4.288   0.370  24.874  0.00  0.00    +0.140 A 
ATOM     10  N   UNL     1      -4.429  -0.143  24.244  0.00  0.00    -0.229 NA
ATOM     11  C   UNL     1      -4.125  -0.883  24.445  0.00  0.00    +0.100 A 
ATOM     12  C   UNL     1      -3.795  -0.827  25.199  0.00  0.00    +0.100 A 
ATOM     13  N   UNL     1      -3.895  -0.053  25.465  0.00  0.00    -0.229 NA
ATOM     14  C   UNL     1      -3.445  -1.489  25.546  0.00  0.00    +0.020 A 
ATOM     15  C   UNL     1      -3.426  -2.206  25.140  0.00  0.00    -0.003 A 
ATOM     16  C   UNL     1      -3.755  -2.262  24.386  0.00  0.00    -0.020 A 
ATOM     17  C   UNL     1      -3.736  -2.979  23.978  0.00  0.00    +0.031 C 
ATOM     18  C   UNL     1      -4.105  -1.601  24.038  0.00  0.00    +0.016 A 
ENDROOT
BRANCH   9   7
ATOM      4  N   UNL     1      -4.434   2.500  24.913  0.00  0.00    -0.274 NA
ATOM      5  C   UNL     1      -5.225   2.284  25.009  0.00  0.00    +0.073 C 
ATOM      6  C   UNL     1      -5.266   1.459  25.006  0.00  0.00    +0.026 C 
ATOM      7  C   UNL     1      -4.501   1.166  24.908  0.00  0.00    +0.076 C 
ATOM      8  C   UNL     1      -3.987   1.809  24.851  0.00  0.00    +0.080 C 
BRANCH   4   2
ATOM      1  C   UNL     1      -3.883   3.587  24.168  0.00  0.00    +0.017 C 
ATOM      2  C   UNL     1      -4.142   3.270  24.885  0.00  0.00    +0.058 C 
ATOM      3  C   UNL     1      -4.108   3.725  25.572  0.00  0.00    +0.017 C 
ENDBRANCH   4   2
ENDBRANCH   9   7
TORSDOF 2
ENDMDL
MODEL 2
REMARK VINA RESULT:     -10.3      0.879      4.270
REMARK  Name = 
REMARK  2 active torsions:
REMARK  status: ('A' for Active; 'I' for Inactive)
REMARK    1  A    between atoms: C_2  and  N_4
REMARK    2  A    between atoms: C_7  and  C_9
REMARK                            x       y       z     vdW  Elec       q    Type
REMARK                         _______ _______ _______ _____ _____    ______ ____
ROOT
ATOM      9  C   UNL     1      -4.165   0.283  24.513  0.00  0.00    +0.140 A 
ATOM     10  N   UNL     1      -4.729   0.597  25.026  0.00  0.00    -0.229 NA
ATOM     11  C   UNL     1      -4.696   1.419  24.968  0.00  0.00    +0.100 A 
ATOM     12  C   UNL     1      -4.111   1.613  24.420  0.00  0.00    +0.100 A 
ATOM     13  N   UNL     1      -3.782   0.911  24.138  0.00  0.00    -0.229 NA
ATOM     14  C   UNL     1      -3.953   2.404  24.249  0.00  0.00    +0.020 A 
ATOM     15  C   UNL     1      -4.380   3.001  24.625  0.00  0.00    -0.003 A 
ATOM     16  C   UNL     1      -4.965   2.807  25.173  0.00  0.00    -0.020 A 
ATOM     17  C   UNL     1      -5.392   3.404  25.550  0.00  0.00    +0.031 C 
ATOM     18  C   UNL     1      -5.123   2.016  25.345  0.00  0.00    +0.016 A 
ENDROOT
BRANCH   9   7
ATOM      4  N   UNL     1      -3.458  -1.732  24.480  0.00  0.00    -0.274 NA
ATOM      5  C   UNL     1      -4.084  -1.774  23.945  0.00  0.00    +0.073 C 
ATOM      6  C   UNL     1      -4.425  -1.024  23.892  0.00  0.00    +0.026 C 
ATOM      7  C   UNL     1      -4.010  -0.519  24.395  0.00  0.00    +0.076 C 
ATOM      8  C   UNL     1      -3.412  -0.956  24.758  0.00  0.00    +0.080 C 
BRANCH   4   2
ATOM      1  C   UNL     1      -3.283  -3.031  25.049  0.00  0.00    +0.017 C 
ATOM      2  C   UNL     1      -2.964  -2.355  24.700  0.00  0.00    +0.058 C 
ATOM      3  C   UNL     1      -2.151  -2.303  24.570  0.00  0.00    +0.017 C 
ENDBRANCH   4   2
ENDBRANCH   9   7
TORSDOF 2
ENDMDL
