MODEL 1
REMARK VINA RESULT:      -8.9      0.000      0.000
REMARK  Name = 
REMARK  9 active torsions:
REMARK  status: ('A' for Active; 'I' for Inactive)
REMARK    1  A    between atoms: C_2  and  C_4
REMARK    2  A    between atoms: C_6  and  C_7
REMARK    3  A    between atoms: C_7  and  C_8
REMARK    4  A    between atoms: C_11  and  C_13
REMARK    5  A    between atoms: C_16  and  N_19
REMARK    6  A    between atoms: C_25  and  C_26
REMARK    7  A    between atoms: C_26  and  N_27
REMARK    8  A    between atoms: N_27  and  C_28
REMARK    9  A    between atoms: C_28  and  C_29
REMARK                            x       y       z     vdW  Elec       q    Type
REMARK                         _______ _______ _______ _____ _____    ______ ____
ROOT
ATOM      4  C   UNL     1      -0.251   0.673  24.133  0.00  0.00    +0.006 C 
ATOM      5  C   UNL     1      -0.871   0.353  24.573  0.00  0.00    +0.005 C 
ATOM      6  C   UNL     1      -0.943  -0.465  24.650  0.00  0.00    +0.027 C 
ATOM     22  C   UNL     1      -0.394  -0.963  24.288  0.00  0.00    -0.048 C 
ATOM     23  C   UNL     1      -0.466  -1.782  24.366  0.00  0.00    +0.026 C 
ATOM     24  C   UNL     1       0.226  -0.644  23.848  0.00  0.00    -0.033 C 
ATOM     25  C   UNL     1       0.298   0.175  23.770  0.00  0.00    +0.039 C 
ENDROOT
BRANCH   4   2
ATOM      1  C   UNL     1       0.229   1.924  24.627  0.00  0.00    +0.000 C 
ATOM      2  C   UNL     1      -0.179   1.491  24.055  0.00  0.00    +0.000 C 
ATOM      3  C   UNL     1      -0.516   1.876  23.408  0.00  0.00    +0.000 C 
ENDBRANCH   4   2
BRANCH   6   7
ATOM      7  C   UNL     1      -1.564  -0.785  25.090  0.00  0.00    +0.091 C 
BRANCH   7   8
ATOM      8  C   UNL     1      -2.344  -0.597  24.900  0.00  0.00    +0.227 A 
ATOM      9  N   UNL     1      -2.856  -1.058  24.445  0.00  0.00    -0.111 NA
ATOM     10  N   UNL     1      -3.578  -0.661  24.394  0.00  0.00    -0.107 NA
ATOM     11  C   UNL     1      -3.512   0.043  24.818  0.00  0.00    +0.250 A 
ATOM     12  O   UNL     1      -2.750   0.083  25.130  0.00  0.00    -0.420 OA
BRANCH  11  13
ATOM     13  C   UNL     1      -4.105   0.609  24.913  0.00  0.00    +0.055 A 
ATOM     14  C   UNL     1      -4.734   0.467  25.427  0.00  0.00    +0.006 A 
ATOM     15  C   UNL     1      -5.327   1.033  25.522  0.00  0.00    +0.015 A 
ATOM     16  C   UNL     1      -5.290   1.742  25.102  0.00  0.00    +0.048 A 
ATOM     17  C   UNL     1      -4.661   1.885  24.588  0.00  0.00    +0.015 A 
ATOM     18  C   UNL     1      -4.069   1.319  24.493  0.00  0.00    +0.006 A 
BRANCH  16  19
ATOM     19  N   UNL     1      -5.883   2.308  25.197  0.00  0.00    -0.304 N 
ATOM     20  C   UNL     1      -5.703   3.043  25.526  0.00  0.00    +0.112 C 
ATOM     21  C   UNL     1      -6.656   2.140  24.962  0.00  0.00    +0.112 C 
ENDBRANCH  16  19
ENDBRANCH  11  13
ENDBRANCH   7   8
ENDBRANCH   6   7
BRANCH  25  26
ATOM     26  C   UNL     1       0.918   0.494  23.331  0.00  0.00    +0.093 C 
BRANCH  26  27
ATOM     27  N   UNL     1       1.623   0.075  23.246  0.00  0.00    -0.213 NA
BRANCH  27  28
ATOM     28  C   UNL     1       2.145   0.264  22.636  0.00  0.00    +0.117 C 
BRANCH  28  29
ATOM     29  C   UNL     1       2.957   0.270  22.774  0.00  0.00    +0.014 A 
ATOM     30  C   UNL     1       3.386   0.970  22.689  0.00  0.00    +0.000 A 
ATOM     31  C   UNL     1       4.199   0.976  22.827  0.00  0.00    +0.020 A 
ATOM     32  C   UNL     1       4.584   0.282  23.052  0.00  0.00    +0.099 A 
ATOM     33  N   UNL     1       4.157  -0.418  23.138  0.00  0.00    -0.243 NA
ATOM     34  C   UNL     1       3.343  -0.424  22.999  0.00  0.00    +0.096 A 
ENDBRANCH  28  29
ENDBRANCH  27  28
ENDBRANCH  26  27
ENDBRANCH  25  26
TORSDOF 9
ENDMDL
MODEL 2
REMARK VINA RESULT:      -8.2      1.310      2.059
REMARK  Name = 
REMARK  9 active torsions:
REMARK  status: ('A' for Active; 'I' for Inactive)
REMARK    1  A    between atoms: C_2  and  C_4
REMARK    2  A    between atoms: C_6  and  C_7
REMARK    3  A    between atoms: C_7  and  C_8
REMARK    4  A    between atoms: C_11  and  C_13
REMARK    5  A    between atoms: C_16  and  N_19
REMARK    6  A    between atoms: C_25  and  C_26
REMARK    7  A    between atoms: C_26  and  N_27
REMARK    8  A    between atoms: N_27  and  C_28
REMARK    9  A    between atoms: C_28  and  C_29
REMARK                            x       y       z     vdW  Elec       q    Type
REMARK                         _______ _______ _______ _____ _____    ______ ____
ROOT
ATOM      4  C   UNL     1      -0.226   0.655  24.223  0.00  0.00    +0.006 C 
ATOM      5  C   UNL     1      -0.710   1.164  24.656  0.00  0.00    +0.005 C 
ATOM      6  C   UNL     1      -0.486   1.951  24.766  0.00  0.00    +0.027 C 
ATOM     22  C   UNL     1       0.220   2.228  24.443  0.00  0.00    -0.048 C 
ATOM     23  C   UNL     1       0.443   3.015  24.553  0.00  0.00    +0.026 C 
ATOM     24  C   UNL     1       0.703   1.719  24.010  0.00  0.00    -0.033 C 
ATOM     25  C   UNL     1       0.481   0.932  23.900  0.00  0.00    +0.039 C 
ENDROOT
BRANCH   4   2
ATOM      1  C   UNL     1      -0.270  -0.694  24.689  0.00  0.00    +0.000 C 
ATOM      2  C   UNL     1      -0.450  -0.132  24.114  0.00  0.00    +0.000 C 
ATOM      3  C   UNL     1      -0.853  -0.355  23.429  0.00  0.00    +0.000 C 
ENDBRANCH   4   2
BRANCH   6   7
ATOM      7  C   UNL     1      -0.971   2.460  25.199  0.00  0.00    +0.091 C 
BRANCH   7   8
ATOM      8  C   UNL     1      -1.741   2.612  24.946  0.00  0.00    +0.227 A 
ATOM      9  N   UNL     1      -1.959   3.109  24.324  0.00  0.00    -0.111 NA
ATOM     10  N   UNL     1      -2.781   3.097  24.265  0.00  0.00    -0.107 NA
ATOM     11  C   UNL     1      -3.072   2.593  24.850  0.00  0.00    +0.250 A 
ATOM     12  O   UNL     1      -2.429   2.293  25.271  0.00  0.00    -0.420 OA
BRANCH  11  13
ATOM     13  C   UNL     1      -3.867   2.420  24.989  0.00  0.00    +0.055 A 
ATOM     14  C   UNL     1      -4.163   1.670  24.813  0.00  0.00    +0.006 A 
ATOM     15  C   UNL     1      -4.957   1.497  24.952  0.00  0.00    +0.015 A 
ATOM     16  C   UNL     1      -5.456   2.073  25.268  0.00  0.00    +0.048 A 
ATOM     17  C   UNL     1      -5.160   2.823  25.445  0.00  0.00    +0.015 A 
ATOM     18  C   UNL     1      -4.366   2.996  25.305  0.00  0.00    +0.006 A 
BRANCH  16  19
ATOM     19  N   UNL     1      -6.250   1.900  25.407  0.00  0.00    -0.304 N 
ATOM     20  C   UNL     1      -6.534   1.859  26.181  0.00  0.00    +0.112 C 
ATOM     21  C   UNL     1      -6.761   1.769  24.773  0.00  0.00    +0.112 C 
ENDBRANCH  16  19
ENDBRANCH  11  13
ENDBRANCH   7   8
ENDBRANCH   6   7
BRANCH  25  26
ATOM     26  C   UNL     1       0.964   0.423  23.467  0.00  0.00    +0.093 C 
BRANCH  26  27
ATOM     27  N   UNL     1       1.737   0.643  23.285  0.00  0.00    -0.213 NA
BRANCH  27  28
ATOM     28  C   UNL     1       2.210   0.148  22.825  0.00  0.00    +0.117 C 
BRANCH  28  29
ATOM     29  C   UNL     1       3.031   0.207  22.865  0.00  0.00    +0.014 A 
ATOM     30  C   UNL     1       3.410   0.892  22.602  0.00  0.00    +0.000 A 
ATOM     31  C   UNL     1       4.231   0.951  22.643  0.00  0.00    +0.020 A 
ATOM     32  C   UNL     1       4.675   0.326  22.947  0.00  0.00    +0.099 A 
ATOM     33  N   UNL     1       4.298  -0.359  23.210  0.00  0.00    -0.243 NA
ATOM     34  C   UNL     1       3.475  -0.418  23.169  0.00  0.00    +0.096 A 
ENDBRANCH  28  29
ENDBRANCH  27  28
ENDBRANCH  26  27
ENDBRANCH  25  26
TORSDOF 9
ENDMDL
MODEL 3
REMARK VINA RESULT:      -8.2      1.435      6.876
REMARK  Name = 
REMARK  9 active torsions:
REMARK  status: ('A' for Active; 'I' for Inactive)
REMARK    1  A    between atoms: C_2  and  C_4
REMARK    2  A    between atoms: C_6  and  C_7
REMARK    3  A    between atoms: C_7  and  C_8
REMARK    4  A    between atoms: C_11  and  C_13
REMARK    5  A    between atoms: C_16  and  N_19
REMARK    6  A    between atoms: C_25  and  C_26
REMARK    7  A    between atoms: C_26  and  N_27
REMARK    8  A    between atoms: N_27  and  C_28
REMARK    9  A    between atoms: C_28  and  C_29
REMARK                            x       y       z     vdW  Elec       q    Type
REMARK                         _______ _______ _______ _____ _____    ______ ____
ROOT
ATOM      4  C   UNL     1      -0.823   1.720  24.630  0.00  0.00    +0.006 C 
ATOM      5  C   UNL     1      -0.358   1.072  24.414  0.00  0.00    +0.005 C 
ATOM      6  C   UNL     1      -0.716   0.358  24.210  0.00  0.00    +0.027 C 
ATOM     22  C   UNL     1      -1.538   0.290  24.221  0.00  0.00    -0.048 C 
ATOM     23  C   UNL     1      -1.895  -0.425  24.016  0.00  0.00    +0.026 C 
ATOM     24  C   UNL     1      -2.002   0.937  24.437  0.00  0.00    -0.033 C 
ATOM     25  C   UNL     1      -1.645   1.652  24.641  0.00  0.00    +0.039 C 
ENDROOT
BRANCH   4   2
ATOM      1  C   UNL     1      -0.210   2.560  25.609  0.00  0.00    +0.000 C 
ATOM      2  C   UNL     1      -0.465   2.434  24.835  0.00  0.00    +0.000 C 
ATOM      3  C   UNL     1      -0.361   3.022  24.265  0.00  0.00    +0.000 C 
ENDBRANCH   4   2
BRANCH   6   7
ATOM      7  C   UNL     1      -0.251  -0.289  23.994  0.00  0.00    +0.091 C 
BRANCH   7   8
ATOM      8  C   UNL     1       0.405  -0.181  23.506  0.00  0.00    +0.227 A 
ATOM      9  N   UNL     1       0.391  -0.102  22.684  0.00  0.00    -0.111 NA
ATOM     10  N   UNL     1       1.167  -0.005  22.424  0.00  0.00    -0.107 NA
ATOM     11  C   UNL     1       1.662  -0.025  23.085  0.00  0.00    +0.250 A 
ATOM     12  O   UNL     1       1.191  -0.134  23.752  0.00  0.00    -0.420 OA
BRANCH  11  13
ATOM     13  C   UNL     1       2.484   0.050  23.078  0.00  0.00    +0.055 A 
ATOM     14  C   UNL     1       2.831   0.766  22.860  0.00  0.00    +0.006 A 
ATOM     15  C   UNL     1       3.652   0.841  22.853  0.00  0.00    +0.015 A 
ATOM     16  C   UNL     1       4.127   0.201  23.064  0.00  0.00    +0.048 A 
ATOM     17  C   UNL     1       3.780  -0.516  23.282  0.00  0.00    +0.015 A 
ATOM     18  C   UNL     1       2.959  -0.591  23.288  0.00  0.00    +0.006 A 
BRANCH  16  19
ATOM     19  N   UNL     1       4.948   0.276  23.057  0.00  0.00    -0.304 N 
ATOM     20  C   UNL     1       5.375   0.084  22.377  0.00  0.00    +0.112 C 
ATOM     21  C   UNL     1       5.344   0.542  23.730  0.00  0.00    +0.112 C 
ENDBRANCH  16  19
ENDBRANCH  11  13
ENDBRANCH   7   8
ENDBRANCH   6   7
BRANCH  25  26
ATOM     26  C   UNL     1      -2.109   2.298  24.857  0.00  0.00    +0.093 C 
BRANCH  26  27
ATOM     27  N   UNL     1      -2.928   2.222  24.900  0.00  0.00    -0.213 NA
BRANCH  27  28
ATOM     28  C   UNL     1      -3.406   2.895  24.917  0.00  0.00    +0.117 C 
BRANCH  28  29
ATOM     29  C   UNL     1      -4.197   2.834  25.142  0.00  0.00    +0.014 A 
ATOM     30  C   UNL     1      -4.715   2.363  24.706  0.00  0.00    +0.000 A 
ATOM     31  C   UNL     1      -5.506   2.302  24.931  0.00  0.00    +0.020 A 
ATOM     32  C   UNL     1      -5.779   2.713  25.592  0.00  0.00    +0.099 A 
ATOM     33  N   UNL     1      -5.262   3.185  26.028  0.00  0.00    -0.243 NA
ATOM     34  C   UNL     1      -4.470   3.245  25.803  0.00  0.00    +0.096 A 
ENDBRANCH  28  29
ENDBRANCH  27  28
ENDBRANCH  26  27
ENDBRANCH  25  26
TORSDOF 9
ENDMDL
MODEL 4
REMARK VINA RESULT:      -8.1      2.347      4.188
REMARK  Name = 
REMARK  9 active torsions:
REMARK  status: ('A' for Active; 'I' for Inactive)
REMARK    1  A    between atoms: C_2  and  C_4
REMARK    2  A    between atoms: C_6  and  C_7
REMARK    3  A    between atoms: C_7  and  C_8
REMARK    4  A    between atoms: C_11  and  C_13
REMARK    5  A    between atoms: C_16  and  N_19
REMARK    6  A    between atoms: C_25  and  C_26
REMARK    7  A    between atoms: C_26  and  N_27
REMARK    8  A    between atoms: N_27  and  C_28
REMARK    9  A    between atoms: C_28  and  C_29
REMARK                            x       y       z     vdW  Elec       q    Type
REMARK                         _______ _______ _______ _____ _____    ______ ____
ROOT
ATOM      4  C   UNL     1      -0.453   1.162  24.297  0.00  0.00    +0.006 C 
ATOM      5  C   UNL     1      -0.404   1.967  24.473  0.00  0.00    +0.005 C 
ATOM      6  C   UNL     1      -0.374   2.215  25.259  0.00  0.00    +0.027 C 
ATOM     22  C   UNL     1      -0.394   1.660  25.869  0.00  0.00    -0.048 C 
ATOM     23  C   UNL     1      -0.364   1.909  26.655  0.00  0.00    +0.026 C 
ATOM     24  C   UNL     1      -0.443   0.856  25.692  0.00  0.00    -0.033 C 
ATOM     25  C   UNL     1      -0.472   0.607  24.906  0.00  0.00    +0.039 C 
ENDROOT
BRANCH   4   2
ATOM      1  C   UNL     1      -1.185   0.984  23.083  0.00  0.00    +0.000 C 
ATOM      2  C   UNL     1      -0.483   0.914  23.511  0.00  0.00    +0.000 C 
ATOM      3  C   UNL     1       0.189   0.596  23.152  0.00  0.00    +0.000 C 
ENDBRANCH   4   2
BRANCH   6   7
ATOM      7  C   UNL     1      -0.325   3.021  25.436  0.00  0.00    +0.091 C 
BRANCH   7   8
ATOM      8  C   UNL     1      -0.995   3.499  25.372  0.00  0.00    +0.227 A 
ATOM      9  N   UNL     1      -0.999   4.307  25.207  0.00  0.00    -0.111 NA
ATOM     10  N   UNL     1      -1.784   4.560  25.195  0.00  0.00    -0.107 NA
ATOM     11  C   UNL     1      -2.264   3.908  25.353  0.00  0.00    +0.250 A 
ATOM     12  O   UNL     1      -1.777   3.252  25.462  0.00  0.00    -0.420 OA
BRANCH  11  13
ATOM     13  C   UNL     1      -3.089   3.912  25.393  0.00  0.00    +0.055 A 
ATOM     14  C   UNL     1      -3.537   3.893  24.701  0.00  0.00    +0.006 A 
ATOM     15  C   UNL     1      -4.361   3.897  24.743  0.00  0.00    +0.015 A 
ATOM     16  C   UNL     1      -4.737   3.919  25.476  0.00  0.00    +0.048 A 
ATOM     17  C   UNL     1      -4.289   3.938  26.169  0.00  0.00    +0.015 A 
ATOM     18  C   UNL     1      -3.466   3.935  26.128  0.00  0.00    +0.006 A 
BRANCH  16  19
ATOM     19  N   UNL     1      -5.561   3.923  25.517  0.00  0.00    -0.304 N 
ATOM     20  C   UNL     1      -5.972   3.216  25.632  0.00  0.00    +0.112 C 
ATOM     21  C   UNL     1      -5.974   4.633  25.444  0.00  0.00    +0.112 C 
ENDBRANCH  16  19
ENDBRANCH  11  13
ENDBRANCH   7   8
ENDBRANCH   6   7
BRANCH  25  26
ATOM     26  C   UNL     1      -0.521  -0.197  24.730  0.00  0.00    +0.093 C 
BRANCH  26  27
ATOM     27  N   UNL     1      -1.073  -0.672  25.117  0.00  0.00    -0.213 NA
BRANCH  27  28
ATOM     28  C   UNL     1      -1.095  -1.484  24.971  0.00  0.00    +0.117 C 
BRANCH  28  29
ATOM     29  C   UNL     1      -1.818  -1.876  24.926  0.00  0.00    +0.014 A 
ATOM     30  C   UNL     1      -2.423  -1.689  25.456  0.00  0.00    +0.000 A 
ATOM     31  C   UNL     1      -3.147  -2.082  25.411  0.00  0.00    +0.020 A 
ATOM     32  C   UNL     1      -3.267  -2.661  24.836  0.00  0.00    +0.099 A 
ATOM     33  N   UNL     1      -2.663  -2.849  24.306  0.00  0.00    -0.243 NA
ATOM     34  C   UNL     1      -1.938  -2.456  24.352  0.00  0.00    +0.096 A 
ENDBRANCH  28  29
ENDBRANCH  27  28
ENDBRANCH  26  27
ENDBRANCH  25  26
TORSDOF 9
ENDMDL
MODEL 5
REMARK VINA RESULT:      -7.8      2.415      4.533
REMARK  Name = 
REMARK  9 active torsions:
REMARK  status: ('A' for Active; 'I' for Inactive)
REMARK    1  A    between atoms: C_2  and  C_4
REMARK    2  A    between atoms: C_6  and  C_7
REMARK    3  A    between atoms: C_7  and  C_8
REMARK    4  A    between atoms: C_11  and  C_13
REMARK    5  A    between atoms: C_16  and  N_19
REMARK    6  A    between atoms: C_25  and  C_26
REMARK    7  A    between atoms: C_26  and  N_27
REMARK    8  A    between atoms: N_27  and  C_28
REMARK    9  A    between atoms: C_28  and  C_29
REMARK                            x       y       z     vdW  Elec       q    Type
REMARK                         _______ _______ _______ _____ _____    ______ ____
ROOT
ATOM      4  C   UNL     1      -3.477   3.732  25.543  0.00  0.00    +0.006 C 
ATOM      5  C   UNL     1      -4.159   3.298  25.373  0.00  0.00    +0.005 C 
ATOM      6  C   UNL     1      -4.287   3.016  24.609  0.00  0.00    +0.027 C 
ATOM     22  C   UNL     1      -3.735   3.167  24.014  0.00  0.00    -0.048 C 
ATOM     23  C   UNL     1      -3.865   2.884  23.250  0.00  0.00    +0.026 C 
ATOM     24  C   UNL     1      -3.055   3.601  24.184  0.00  0.00    -0.033 C 
ATOM     25  C   UNL     1      -2.926   3.884  24.948  0.00  0.00    +0.039 C 
ENDROOT
BRANCH   4   2
ATOM      1  C   UNL     1      -3.095   3.499  26.899  0.00  0.00    +0.000 C 
ATOM      2  C   UNL     1      -3.349   4.015  26.307  0.00  0.00    +0.000 C 
ATOM      3  C   UNL     1      -3.475   4.812  26.480  0.00  0.00    +0.000 C 
ENDBRANCH   4   2
BRANCH   6   7
ATOM      7  C   UNL     1      -4.968   2.581  24.439  0.00  0.00    +0.091 C 
BRANCH   7   8
ATOM      8  C   UNL     1      -5.021   1.790  24.667  0.00  0.00    +0.227 A 
ATOM      9  N   UNL     1      -5.631   1.452  25.108  0.00  0.00    -0.111 NA
ATOM     10  N   UNL     1      -5.460   0.652  25.208  0.00  0.00    -0.107 NA
ATOM     11  C   UNL     1      -4.744   0.495  24.829  0.00  0.00    +0.250 A 
ATOM     12  O   UNL     1      -4.473   1.198  24.495  0.00  0.00    -0.420 OA
BRANCH  11  13
ATOM     13  C   UNL     1      -4.366  -0.238  24.791  0.00  0.00    +0.055 A 
ATOM     14  C   UNL     1      -4.429  -0.701  24.111  0.00  0.00    +0.006 A 
ATOM     15  C   UNL     1      -4.051  -1.433  24.074  0.00  0.00    +0.015 A 
ATOM     16  C   UNL     1      -3.610  -1.703  24.716  0.00  0.00    +0.048 A 
ATOM     17  C   UNL     1      -3.546  -1.240  25.396  0.00  0.00    +0.015 A 
ATOM     18  C   UNL     1      -3.924  -0.508  25.434  0.00  0.00    +0.006 A 
BRANCH  16  19
ATOM     19  N   UNL     1      -3.232  -2.435  24.679  0.00  0.00    -0.304 N 
ATOM     20  C   UNL     1      -2.410  -2.472  24.614  0.00  0.00    +0.112 C 
ATOM     21  C   UNL     1      -3.675  -3.130  24.705  0.00  0.00    +0.112 C 
ENDBRANCH  16  19
ENDBRANCH  11  13
ENDBRANCH   7   8
ENDBRANCH   6   7
BRANCH  25  26
ATOM     26  C   UNL     1      -2.246   4.318  25.118  0.00  0.00    +0.093 C 
BRANCH  26  27
ATOM     27  N   UNL     1      -1.551   4.179  24.696  0.00  0.00    -0.213 NA
BRANCH  27  28
ATOM     28  C   UNL     1      -0.833   4.100  25.095  0.00  0.00    +0.117 C 
BRANCH  28  29
ATOM     29  C   UNL     1      -0.349   3.450  24.949  0.00  0.00    +0.014 A 
ATOM     30  C   UNL     1      -0.129   2.950  25.568  0.00  0.00    +0.000 A 
ATOM     31  C   UNL     1       0.356   2.300  25.421  0.00  0.00    +0.020 A 
ATOM     32  C   UNL     1       0.622   2.148  24.655  0.00  0.00    +0.099 A 
ATOM     33  N   UNL     1       0.403   2.647  24.036  0.00  0.00    -0.243 NA
ATOM     34  C   UNL     1      -0.083   3.298  24.183  0.00  0.00    +0.096 A 
ENDBRANCH  28  29
ENDBRANCH  27  28
ENDBRANCH  26  27
ENDBRANCH  25  26
TORSDOF 9
ENDMDL
MODEL 6
REMARK VINA RESULT:      -7.7      1.960      3.205
REMARK  Name = 
REMARK  9 active torsions:
REMARK  status: ('A' for Active; 'I' for Inactive)
REMARK    1  A    between atoms: C_2  and  C_4
REMARK    2  A    between atoms: C_6  and  C_7
REMARK    3  A    between atoms: C_7  and  C_8
REMARK    4  A    between atoms: C_11  and  C_13
REMARK    5  A    between atoms: C_16  and  N_19
REMARK    6  A    between atoms: C_25  and  C_26
REMARK    7  A    between atoms: C_26  and  N_27
REMARK    8  A    between atoms: N_27  and  C_28
REMARK    9  A    between atoms: C_28  and  C_29
REMARK                            x       y       z     vdW  Elec       q    Type
REMARK                         _______ _______ _______ _____ _____    ______ ____
ROOT
ATOM      4  C   UNL     1      -0.328   2.623  25.540  0.00  0.00    +0.006 C 
ATOM      5  C   UNL     1      -0.863   3.247  25.621  0.00  0.00    +0.005 C 
ATOM      6  C   UNL     1      -0.991   3.765  24.992  0.00  0.00    +0.027 C 
ATOM     22  C   UNL     1      -0.585   3.660  24.282  0.00  0.00    -0.048 C 
ATOM     23  C   UNL     1      -0.714   4.179  23.653  0.00  0.00    +0.026 C 
ATOM     24  C   UNL     1      -0.051   3.037  24.201  0.00  0.00    -0.033 C 
ATOM     25  C   UNL     1       0.078   2.519  24.829  0.00  0.00    +0.039 C 
ENDROOT
BRANCH   4   2
ATOM      1  C   UNL     1       0.321   2.314  26.773  0.00  0.00    +0.000 C 
ATOM      2  C   UNL     1      -0.200   2.106  26.169  0.00  0.00    +0.000 C 
ATOM      3  C   UNL     1      -0.593   1.381  26.194  0.00  0.00    +0.000 C 
ENDBRANCH   4   2
BRANCH   6   7
ATOM      7  C   UNL     1      -1.526   4.388  25.074  0.00  0.00    +0.091 C 
BRANCH   7   8
ATOM      8  C   UNL     1      -2.272   4.252  25.399  0.00  0.00    +0.227 A 
ATOM      9  N   UNL     1      -2.596   4.641  26.051  0.00  0.00    -0.111 NA
ATOM     10  N   UNL     1      -3.349   4.332  26.183  0.00  0.00    -0.107 NA
ATOM     11  C   UNL     1      -3.491   3.753  25.613  0.00  0.00    +0.250 A 
ATOM     12  O   UNL     1      -2.826   3.703  25.128  0.00  0.00    -0.420 OA
BRANCH  11  13
ATOM     13  C   UNL     1      -4.179   3.302  25.541  0.00  0.00    +0.055 A 
ATOM     14  C   UNL     1      -4.133   2.515  25.296  0.00  0.00    +0.006 A 
ATOM     15  C   UNL     1      -4.820   2.065  25.224  0.00  0.00    +0.015 A 
ATOM     16  C   UNL     1      -5.554   2.401  25.396  0.00  0.00    +0.048 A 
ATOM     17  C   UNL     1      -5.600   3.188  25.641  0.00  0.00    +0.015 A 
ATOM     18  C   UNL     1      -4.913   3.638  25.713  0.00  0.00    +0.006 A 
BRANCH  16  19
ATOM     19  N   UNL     1      -6.241   1.951  25.324  0.00  0.00    -0.304 N 
ATOM     20  C   UNL     1      -6.597   1.630  25.996  0.00  0.00    +0.112 C 
ATOM     21  C   UNL     1      -6.573   1.821  24.580  0.00  0.00    +0.112 C 
ENDBRANCH  16  19
ENDBRANCH  11  13
ENDBRANCH   7   8
ENDBRANCH   6   7
BRANCH  25  26
ATOM     26  C   UNL     1       0.612   1.896  24.748  0.00  0.00    +0.093 C 
BRANCH  26  27
ATOM     27  N   UNL     1       0.794   1.603  23.999  0.00  0.00    -0.213 NA
BRANCH  27  28
ATOM     28  C   UNL     1       1.476   1.153  23.886  0.00  0.00    +0.117 C 
BRANCH  28  29
ATOM     29  C   UNL     1       1.522   0.627  23.252  0.00  0.00    +0.014 A 
ATOM     30  C   UNL     1       0.865   0.175  23.040  0.00  0.00    +0.000 A 
ATOM     31  C   UNL     1       0.912  -0.350  22.407  0.00  0.00    +0.020 A 
ATOM     32  C   UNL     1       1.617  -0.425  21.985  0.00  0.00    +0.099 A 
ATOM     33  N   UNL     1       2.274   0.026  22.195  0.00  0.00    -0.243 NA
ATOM     34  C   UNL     1       2.227   0.552  22.830  0.00  0.00    +0.096 A 
ENDBRANCH  28  29
ENDBRANCH  27  28
ENDBRANCH  26  27
ENDBRANCH  25  26
TORSDOF 9
ENDMDL
MODEL 7
REMARK VINA RESULT:      -7.6      1.682      3.026
REMARK  Name = 
REMARK  9 active torsions:
REMARK  status: ('A' for Active; 'I' for Inactive)
REMARK    1  A    between atoms: C_2  and  C_4
REMARK    2  A    between atoms: C_6  and  C_7
REMARK    3  A    between atoms: C_7  and  C_8
REMARK    4  A    between atoms: C_11  and  C_13
REMARK    5  A    between atoms: C_16  and  N_19
REMARK    6  A    between atoms: C_25  and  C_26
REMARK    7  A    between atoms: C_26  and  N_27
REMARK    8  A    between atoms: N_27  and  C_28
REMARK    9  A    between atoms: C_28  and  C_29
REMARK                            x       y       z     vdW  Elec       q    Type
REMARK                         _______ _______ _______ _____ _____    ______ ____
ROOT
ATOM      4  C   UNL     1      -0.911   2.168  25.095  0.00  0.00    +0.006 C 
ATOM      5  C   UNL     1      -1.736   2.216  25.099  0.00  0.00    +0.005 C 
ATOM      6  C   UNL     1      -2.149   2.268  24.387  0.00  0.00    +0.027 C 
ATOM     22  C   UNL     1      -1.739   2.272  23.671  0.00  0.00    -0.048 C 
ATOM     23  C   UNL     1      -2.153   2.324  22.960  0.00  0.00    +0.026 C 
ATOM     24  C   UNL     1      -0.916   2.223  23.667  0.00  0.00    -0.033 C 
ATOM     25  C   UNL     1      -0.502   2.171  24.379  0.00  0.00    +0.039 C 
ENDROOT
BRANCH   4   2
ATOM      1  C   UNL     1      -0.183   2.796  26.150  0.00  0.00    +0.000 C 
ATOM      2  C   UNL     1      -0.498   2.116  25.807  0.00  0.00    +0.000 C 
ATOM      3  C   UNL     1      -0.401   1.384  26.176  0.00  0.00    +0.000 C 
ENDBRANCH   4   2
BRANCH   6   7
ATOM      7  C   UNL     1      -2.973   2.316  24.392  0.00  0.00    +0.091 C 
BRANCH   7   8
ATOM      8  C   UNL     1      -3.425   1.646  24.557  0.00  0.00    +0.227 A 
ATOM      9  N   UNL     1      -4.167   1.639  24.919  0.00  0.00    -0.111 NA
ATOM     10  N   UNL     1      -4.414   0.854  24.975  0.00  0.00    -0.107 NA
ATOM     11  C   UNL     1      -3.826   0.377  24.647  0.00  0.00    +0.250 A 
ATOM     12  O   UNL     1      -3.215   0.866  24.389  0.00  0.00    -0.420 OA
BRANCH  11  13
ATOM     13  C   UNL     1      -3.847  -0.446  24.588  0.00  0.00    +0.055 A 
ATOM     14  C   UNL     1      -4.204  -0.805  23.937  0.00  0.00    +0.006 A 
ATOM     15  C   UNL     1      -4.224  -1.628  23.879  0.00  0.00    +0.015 A 
ATOM     16  C   UNL     1      -3.887  -2.092  24.471  0.00  0.00    +0.048 A 
ATOM     17  C   UNL     1      -3.529  -1.733  25.123  0.00  0.00    +0.015 A 
ATOM     18  C   UNL     1      -3.509  -0.911  25.181  0.00  0.00    +0.006 A 
BRANCH  16  19
ATOM     19  N   UNL     1      -3.907  -2.914  24.413  0.00  0.00    -0.304 N 
ATOM     20  C   UNL     1      -3.491  -3.377  24.956  0.00  0.00    +0.112 C 
ATOM     21  C   UNL     1      -4.342  -3.275  23.812  0.00  0.00    +0.112 C 
ENDBRANCH  16  19
ENDBRANCH  11  13
ENDBRANCH   7   8
ENDBRANCH   6   7
BRANCH  25  26
ATOM     26  C   UNL     1       0.321   2.123  24.375  0.00  0.00    +0.093 C 
BRANCH  26  27
ATOM     27  N   UNL     1       0.705   1.668  23.805  0.00  0.00    -0.213 NA
BRANCH  27  28
ATOM     28  C   UNL     1       1.516   1.529  23.864  0.00  0.00    +0.117 C 
BRANCH  28  29
ATOM     29  C   UNL     1       1.886   1.010  23.340  0.00  0.00    +0.014 A 
ATOM     30  C   UNL     1       2.666   1.145  23.106  0.00  0.00    +0.000 A 
ATOM     31  C   UNL     1       3.035   0.626  22.583  0.00  0.00    +0.020 A 
ATOM     32  C   UNL     1       2.625  -0.028  22.292  0.00  0.00    +0.099 A 
ATOM     33  N   UNL     1       1.846  -0.164  22.525  0.00  0.00    -0.243 NA
ATOM     34  C   UNL     1       1.476   0.356  23.050  0.00  0.00    +0.096 A 
ENDBRANCH  28  29
ENDBRANCH  27  28
ENDBRANCH  26  27
ENDBRANCH  25  26
TORSDOF 9
ENDMDL
MODEL 8
REMARK VINA RESULT:      -7.5      2.309      6.425
REMARK  Name = 
REMARK  9 active torsions:
REMARK  status: ('A' for Active; 'I' for Inactive)
REMARK    1  A    between atoms: C_2  and  C_4
REMARK    2  A    between atoms: C_6  and  C_7
REMARK    3  A    between atoms: C_7  and  C_8
REMARK    4  A    between atoms: C_11  and  C_13
REMARK    5  A    between atoms: C_16  and  N_19
REMARK    6  A    between atoms: C_25  and  C_26
REMARK    7  A    between atoms: C_26  and  N_27
REMARK    8  A    between atoms: N_27  and  C_28
REMARK    9  A    between atoms: C_28  and  C_29
REMARK                            x       y       z     vdW  Elec       q    Type
REMARK                         _______ _______ _______ _____ _____    ______ ____
ROOT
ATOM      4  C   UNL     1      -2.823   3.124  23.940  0.00  0.00    +0.006 C 
ATOM      5  C   UNL     1      -2.004   3.026  23.979  0.00  0.00    +0.005 C 
ATOM      6  C   UNL     1      -1.594   3.251  24.658  0.00  0.00    +0.027 C 
ATOM     22  C   UNL     1      -2.002   3.574  25.299  0.00  0.00    -0.048 C 
ATOM     23  C   UNL     1      -1.591   3.798  25.978  0.00  0.00    +0.026 C 
ATOM     24  C   UNL     1      -2.820   3.671  25.260  0.00  0.00    -0.033 C 
ATOM     25  C   UNL     1      -3.231   3.447  24.581  0.00  0.00    +0.039 C 
ENDROOT
BRANCH   4   2
ATOM      1  C   UNL     1      -3.517   3.475  22.742  0.00  0.00    +0.000 C 
ATOM      2  C   UNL     1      -3.233   2.899  23.260  0.00  0.00    +0.000 C 
ATOM      3  C   UNL     1      -3.359   2.100  23.099  0.00  0.00    +0.000 C 
ENDBRANCH   4   2
BRANCH   6   7
ATOM      7  C   UNL     1      -0.776   3.153  24.697  0.00  0.00    +0.091 C 
BRANCH   7   8
ATOM      8  C   UNL     1      -0.445   2.403  24.605  0.00  0.00    +0.227 A 
ATOM      9  N   UNL     1       0.315   2.239  24.327  0.00  0.00    -0.111 NA
ATOM     10  N   UNL     1       0.413   1.420  24.326  0.00  0.00    -0.107 NA
ATOM     11  C   UNL     1      -0.285   1.079  24.602  0.00  0.00    +0.250 A 
ATOM     12  O   UNL     1      -0.815   1.686  24.775  0.00  0.00    -0.420 OA
BRANCH  11  13
ATOM     13  C   UNL     1      -0.427   0.270  24.691  0.00  0.00    +0.055 A 
ATOM     14  C   UNL     1      -0.798  -0.012  25.372  0.00  0.00    +0.006 A 
ATOM     15  C   UNL     1      -0.940  -0.820  25.459  0.00  0.00    +0.015 A 
ATOM     16  C   UNL     1      -0.712  -1.346  24.867  0.00  0.00    +0.048 A 
ATOM     17  C   UNL     1      -0.342  -1.064  24.185  0.00  0.00    +0.015 A 
ATOM     18  C   UNL     1      -0.199  -0.256  24.097  0.00  0.00    +0.006 A 
BRANCH  16  19
ATOM     19  N   UNL     1      -0.854  -2.153  24.954  0.00  0.00    -0.304 N 
ATOM     20  C   UNL     1      -1.552  -2.484  24.663  0.00  0.00    +0.112 C 
ATOM     21  C   UNL     1      -0.299  -2.631  25.333  0.00  0.00    +0.112 C 
ENDBRANCH  16  19
ENDBRANCH  11  13
ENDBRANCH   7   8
ENDBRANCH   6   7
BRANCH  25  26
ATOM     26  C   UNL     1      -4.049   3.544  24.541  0.00  0.00    +0.093 C 
BRANCH  26  27
ATOM     27  N   UNL     1      -4.513   3.409  25.209  0.00  0.00    -0.213 NA
BRANCH  27  28
ATOM     28  C   UNL     1      -5.332   3.342  25.137  0.00  0.00    +0.117 C 
BRANCH  28  29
ATOM     29  C   UNL     1      -5.740   2.777  25.576  0.00  0.00    +0.014 A 
ATOM     30  C   UNL     1      -6.055   2.111  25.204  0.00  0.00    +0.000 A 
ATOM     31  C   UNL     1      -6.463   1.546  25.643  0.00  0.00    +0.020 A 
ATOM     32  C   UNL     1      -6.558   1.646  26.457  0.00  0.00    +0.099 A 
ATOM     33  N   UNL     1      -6.244   2.311  26.831  0.00  0.00    -0.243 NA
ATOM     34  C   UNL     1      -5.835   2.877  26.390  0.00  0.00    +0.096 A 
ENDBRANCH  28  29
ENDBRANCH  27  28
ENDBRANCH  26  27
ENDBRANCH  25  26
TORSDOF 9
ENDMDL
MODEL 9
REMARK VINA RESULT:      -7.3      2.765      4.351
REMARK  Name = 
REMARK  9 active torsions:
REMARK  status: ('A' for Active; 'I' for Inactive)
REMARK    1  A    between atoms: C_2  and  C_4
REMARK    2  A    between atoms: C_6  and  C_7
REMARK    3  A    between atoms: C_7  and  C_8
REMARK    4  A    between atoms: C_11  and  C_13
REMARK    5  A    between atoms: C_16  and  N_19
REMARK    6  A    between atoms: C_25  and  C_26
REMARK    7  A    between atoms: C_26  and  N_27
REMARK    8  A    between atoms: N_27  and  C_28
REMARK    9  A    between atoms: C_28  and  C_29
REMARK                            x       y       z     vdW  Elec       q    Type
REMARK                         _______ _______ _______ _____ _____    ______ ____
ROOT
ATOM      4  C   UNL     1      -0.674   2.239  25.207  0.00  0.00    +0.006 C 
ATOM      5  C   UNL     1      -1.420   2.365  24.877  0.00  0.00    +0.005 C 
ATOM      6  C   UNL     1      -1.959   2.862  25.254  0.00  0.00    +0.027 C 
ATOM     22  C   UNL     1      -1.753   3.233  25.962  0.00  0.00    -0.048 C 
ATOM     23  C   UNL     1      -2.294   3.730  26.339  0.00  0.00    +0.026 C 
ATOM     24  C   UNL     1      -1.008   3.107  26.292  0.00  0.00    -0.033 C 
ATOM     25  C   UNL     1      -0.468   2.610  25.915  0.00  0.00    +0.039 C 
ENDROOT
BRANCH   4   2
ATOM      1  C   UNL     1      -0.130   0.935  25.000  0.00  0.00    +0.000 C 
ATOM      2  C   UNL     1      -0.135   1.742  24.830  0.00  0.00    +0.000 C 
ATOM      3  C   UNL     1       0.399   2.051  24.282  0.00  0.00    +0.000 C 
ENDBRANCH   4   2
BRANCH   6   7
ATOM      7  C   UNL     1      -2.705   2.988  24.923  0.00  0.00    +0.091 C 
BRANCH   7   8
ATOM      8  C   UNL     1      -3.230   2.357  24.836  0.00  0.00    +0.227 A 
ATOM      9  N   UNL     1      -4.052   2.413  24.794  0.00  0.00    -0.111 NA
ATOM     10  N   UNL     1      -4.355   1.651  24.708  0.00  0.00    -0.107 NA
ATOM     11  C   UNL     1      -3.720   1.124  24.697  0.00  0.00    +0.250 A 
ATOM     12  O   UNL     1      -3.025   1.561  24.777  0.00  0.00    -0.420 OA
BRANCH  11  13
ATOM     13  C   UNL     1      -3.771   0.304  24.621  0.00  0.00    +0.055 A 
ATOM     14  C   UNL     1      -3.821  -0.039  23.872  0.00  0.00    +0.006 A 
ATOM     15  C   UNL     1      -3.872  -0.858  23.796  0.00  0.00    +0.015 A 
ATOM     16  C   UNL     1      -3.875  -1.336  24.468  0.00  0.00    +0.048 A 
ATOM     17  C   UNL     1      -3.826  -0.994  25.218  0.00  0.00    +0.015 A 
ATOM     18  C   UNL     1      -3.774  -0.174  25.294  0.00  0.00    +0.006 A 
BRANCH  16  19
ATOM     19  N   UNL     1      -3.926  -2.155  24.392  0.00  0.00    -0.304 N 
ATOM     20  C   UNL     1      -4.413  -2.487  23.813  0.00  0.00    +0.112 C 
ATOM     21  C   UNL     1      -3.492  -2.645  24.894  0.00  0.00    +0.112 C 
ENDBRANCH  16  19
ENDBRANCH  11  13
ENDBRANCH   7   8
ENDBRANCH   6   7
BRANCH  25  26
ATOM     26  C   UNL     1       0.277   2.484  26.245  0.00  0.00    +0.093 C 
BRANCH  26  27
ATOM     27  N   UNL     1       0.398   2.612  27.050  0.00  0.00    -0.213 NA
BRANCH  27  28
ATOM     28  C   UNL     1       1.158   2.766  27.334  0.00  0.00    +0.117 C 
BRANCH  28  29
ATOM     29  C   UNL     1       1.329   2.661  28.134  0.00  0.00    +0.014 A 
ATOM     30  C   UNL     1       2.086   2.824  28.419  0.00  0.00    +0.000 A 
ATOM     31  C   UNL     1       2.257   2.719  29.219  0.00  0.00    +0.020 A 
ATOM     32  C   UNL     1       1.671   2.451  29.734  0.00  0.00    +0.099 A 
ATOM     33  N   UNL     1       0.914   2.287  29.450  0.00  0.00    -0.243 NA
ATOM     34  C   UNL     1       0.743   2.393  28.649  0.00  0.00    +0.096 A 
ENDBRANCH  28  29
ENDBRANCH  27  28
ENDBRANCH  26  27
ENDBRANCH  25  26
TORSDOF 9
ENDMDL
MODEL 10
REMARK VINA RESULT:      -7.2      2.241      5.280
REMARK  Name = 
REMARK  9 active torsions:
REMARK  status: ('A' for Active; 'I' for Inactive)
REMARK    1  A    between atoms: C_2  and  C_4
REMARK    2  A    between atoms: C_6  and  C_7
REMARK    3  A    between atoms: C_7  and  C_8
REMARK    4  A    between atoms: C_11  and  C_13
REMARK    5  A    between atoms: C_16  and  N_19
REMARK    6  A    between atoms: C_25  and  C_26
REMARK    7  A    between atoms: C_26  and  N_27
REMARK    8  A    between atoms: N_27  and  C_28
REMARK    9  A    between atoms: C_28  and  C_29
REMARK                            x       y       z     vdW  Elec       q    Type
REMARK                         _______ _______ _______ _____ _____    ______ ____
ROOT
ATOM      4  C   UNL     1      -0.362   2.384  25.379  0.00  0.00    +0.006 C 
ATOM      5  C   UNL     1      -0.025   1.739  24.989  0.00  0.00    +0.005 C 
ATOM      6  C   UNL     1      -0.209   1.594  24.198  0.00  0.00    +0.027 C 
ATOM     22  C   UNL     1      -0.729   2.093  23.796  0.00  0.00    -0.048 C 
ATOM     23  C   UNL     1      -0.912   1.946  23.005  0.00  0.00    +0.026 C 
ATOM     24  C   UNL     1      -1.065   2.737  24.186  0.00  0.00    -0.033 C 
ATOM     25  C   UNL     1      -0.882   2.883  24.977  0.00  0.00    +0.039 C 
ENDROOT
BRANCH   4   2
ATOM      1  C   UNL     1      -0.584   2.129  26.766  0.00  0.00    +0.000 C 
ATOM      2  C   UNL     1      -0.178   2.529  26.169  0.00  0.00    +0.000 C 
ATOM      3  C   UNL     1       0.410   3.074  26.364  0.00  0.00    +0.000 C 
ENDBRANCH   4   2
BRANCH   6   7
ATOM      7  C   UNL     1       0.128   0.948  23.808  0.00  0.00    +0.091 C 
BRANCH   7   8
ATOM      8  C   UNL     1      -0.099   0.181  24.008  0.00  0.00    +0.227 A 
ATOM      9  N   UNL     1       0.409  -0.443  24.191  0.00  0.00    -0.111 NA
ATOM     10  N   UNL     1      -0.052  -1.107  24.356  0.00  0.00    -0.107 NA
ATOM     11  C   UNL     1      -0.845  -0.893  24.275  0.00  0.00    +0.250 A 
ATOM     12  O   UNL     1      -0.874  -0.097  24.060  0.00  0.00    -0.420 OA
BRANCH  11  13
ATOM     13  C   UNL     1      -1.495  -1.388  24.389  0.00  0.00    +0.055 A 
ATOM     14  C   UNL     1      -1.456  -2.180  24.161  0.00  0.00    +0.006 A 
ATOM     15  C   UNL     1      -2.106  -2.675  24.275  0.00  0.00    +0.015 A 
ATOM     16  C   UNL     1      -2.795  -2.379  24.618  0.00  0.00    +0.048 A 
ATOM     17  C   UNL     1      -2.835  -1.587  24.847  0.00  0.00    +0.015 A 
ATOM     18  C   UNL     1      -2.185  -1.092  24.732  0.00  0.00    +0.006 A 
BRANCH  16  19
ATOM     19  N   UNL     1      -3.445  -2.874  24.732  0.00  0.00    -0.304 N 
ATOM     20  C   UNL     1      -4.029  -2.929  24.151  0.00  0.00    +0.112 C 
ATOM     21  C   UNL     1      -3.512  -3.313  25.427  0.00  0.00    +0.112 C 
ENDBRANCH  16  19
ENDBRANCH  11  13
ENDBRANCH   7   8
ENDBRANCH   6   7
BRANCH  25  26
ATOM     26  C   UNL     1      -1.218   3.527  25.366  0.00  0.00    +0.093 C 
BRANCH  26  27
ATOM     27  N   UNL     1      -1.927   3.849  25.095  0.00  0.00    -0.213 NA
BRANCH  27  28
ATOM     28  C   UNL     1      -2.459   4.186  25.628  0.00  0.00    +0.117 C 
BRANCH  28  29
ATOM     29  C   UNL     1      -3.268   4.060  25.538  0.00  0.00    +0.014 A 
ATOM     30  C   UNL     1      -3.723   3.819  26.183  0.00  0.00    +0.000 A 
ATOM     31  C   UNL     1      -4.533   3.693  26.094  0.00  0.00    +0.020 A 
ATOM     32  C   UNL     1      -4.889   3.808  25.359  0.00  0.00    +0.099 A 
ATOM     33  N   UNL     1      -4.436   4.049  24.713  0.00  0.00    -0.243 NA
ATOM     34  C   UNL     1      -3.625   4.175  24.803  0.00  0.00    +0.096 A 
ENDBRANCH  28  29
ENDBRANCH  27  28
ENDBRANCH  26  27
ENDBRANCH  25  26
TORSDOF 9
ENDMDL
