MODEL 1
REMARK VINA RESULT:      -9.8      0.000      0.000
REMARK  Name = 
REMARK  7 active torsions:
REMARK  status: ('A' for Active; 'I' for Inactive)
REMARK    1  A    between atoms: C_2  and  C_4
REMARK    2  A    between atoms: C_4  and  C_5
REMARK    3  A    between atoms: C_7  and  C_8
REMARK    4  A    between atoms: C_8  and  C_9
REMARK    5  A    between atoms: C_9  and  N_13
REMARK    6  A    between atoms: N_13  and  C_14
REMARK    7  A    between atoms: C_14  and  C_15
REMARK                            x       y       z     vdW  Elec       q    Type
REMARK                         _______ _______ _______ _____ _____    ______ ____
ROOT
ATOM      9  C   UNL     1      -4.999   2.078  25.065  0.00  0.00    +0.120 C 
ATOM     10  C   UNL     1      -5.362   2.553  25.635  0.00  0.00    +0.161 C 
ATOM     11  O   UNL     1      -6.081   2.177  25.489  0.00  0.00    -0.351 OA
ATOM     12  C   UNL     1      -5.719   1.703  24.920  0.00  0.00    +0.161 C 
ENDROOT
BRANCH   9   8
ATOM      8  C   UNL     1      -4.636   1.604  24.495  0.00  0.00    +0.070 C 
BRANCH   8   7
ATOM      5  C   UNL     1      -3.821  -0.365  24.624  0.00  0.00    +0.154 A 
ATOM      6  C   UNL     1      -3.935   0.343  24.216  0.00  0.00    +0.054 A 
ATOM      7  C   UNL     1      -4.392   0.841  24.689  0.00  0.00    +0.102 A 
ATOM     21  N   UNL     1      -4.561   0.441  25.390  0.00  0.00    -0.082 NA
ATOM     22  O   UNL     1      -4.209  -0.304  25.350  0.00  0.00    -0.358 OA
BRANCH   5   4
ATOM      4  C   UNL     1      -3.396  -1.018  24.355  0.00  0.00    +0.067 C 
BRANCH   4   2
ATOM      1  C   UNL     1      -4.250  -2.048  23.854  0.00  0.00    +0.000 C 
ATOM      2  C   UNL     1      -3.717  -1.775  24.422  0.00  0.00    +0.008 C 
ATOM      3  C   UNL     1      -3.504  -2.259  25.055  0.00  0.00    +0.000 C 
ENDBRANCH   4   2
ENDBRANCH   5   4
ENDBRANCH   8   7
ENDBRANCH   9   8
BRANCH   9  13
ATOM     13  N   UNL     1      -4.279   2.455  25.210  0.00  0.00    -0.211 NA
BRANCH  13  14
ATOM     14  C   UNL     1      -4.238   3.279  25.211  0.00  0.00    +0.117 C 
BRANCH  14  15
ATOM     15  C   UNL     1      -3.507   3.655  25.282  0.00  0.00    +0.014 A 
ATOM     16  C   UNL     1      -3.191   3.803  26.030  0.00  0.00    +0.000 A 
ATOM     17  C   UNL     1      -2.460   4.179  26.102  0.00  0.00    +0.020 A 
ATOM     18  C   UNL     1      -2.045   4.406  25.426  0.00  0.00    +0.099 A 
ATOM     19  N   UNL     1      -2.361   4.257  24.678  0.00  0.00    -0.243 NA
ATOM     20  C   UNL     1      -3.092   3.881  24.607  0.00  0.00    +0.096 A 
ENDBRANCH  14  15
ENDBRANCH  13  14
ENDBRANCH   9  13
TORSDOF 7
ENDMDL
MODEL 2
REMARK VINA RESULT:      -9.7      1.174      4.365
REMARK  Name = 
REMARK  7 active torsions:
REMARK  status: ('A' for Active; 'I' for Inactive)
REMARK    1  A    between atoms: C_2  and  C_4
REMARK    2  A    between atoms: C_4  and  C_5
REMARK    3  A    between atoms: C_7  and  C_8
REMARK    4  A    between atoms: C_8  and  C_9
REMARK    5  A    between atoms: C_9  and  N_13
REMARK    6  A    between atoms: N_13  and  C_14
REMARK    7  A    between atoms: C_14  and  C_15
REMARK                            x       y       z     vdW  Elec       q    Type
REMARK                         _______ _______ _______ _____ _____    ______ ____
ROOT
ATOM      9  C   UNL     1      -4.626   1.771  24.763  0.00  0.00    +0.120 C 
ATOM     10  C   UNL     1      -5.258   1.493  25.215  0.00  0.00    +0.161 C 
ATOM     11  O   UNL     1      -5.669   2.194  25.072  0.00  0.00    -0.351 OA
ATOM     12  C   UNL     1      -5.038   2.472  24.620  0.00  0.00    +0.161 C 
ENDROOT
BRANCH   9   8
ATOM      8  C   UNL     1      -3.995   2.049  24.311  0.00  0.00    +0.070 C 
BRANCH   8   7
ATOM      5  C   UNL     1      -2.720   3.545  25.143  0.00  0.00    +0.154 A 
ATOM      6  C   UNL     1      -2.956   2.758  25.072  0.00  0.00    +0.054 A 
ATOM      7  C   UNL     1      -3.588   2.728  24.543  0.00  0.00    +0.102 A 
ATOM     21  N   UNL     1      -3.743   3.497  24.287  0.00  0.00    -0.082 NA
ATOM     22  O   UNL     1      -3.206   4.002  24.658  0.00  0.00    -0.358 OA
BRANCH   5   4
ATOM      4  C   UNL     1      -2.105   3.827  25.616  0.00  0.00    +0.067 C 
BRANCH   4   2
ATOM      1  C   UNL     1      -1.460   5.014  25.152  0.00  0.00    +0.000 C 
ATOM      2  C   UNL     1      -1.455   4.197  25.270  0.00  0.00    +0.008 C 
ATOM      3  C   UNL     1      -0.799   3.751  25.042  0.00  0.00    +0.000 C 
ENDBRANCH   4   2
ENDBRANCH   5   4
ENDBRANCH   8   7
ENDBRANCH   9   8
BRANCH   9  13
ATOM     13  N   UNL     1      -4.215   1.070  24.906  0.00  0.00    -0.211 NA
BRANCH  13  14
ATOM     14  C   UNL     1      -4.597   0.344  24.817  0.00  0.00    +0.117 C 
BRANCH  14  15
ATOM     15  C   UNL     1      -4.165  -0.358  24.870  0.00  0.00    +0.014 A 
ATOM     16  C   UNL     1      -4.071  -0.835  24.204  0.00  0.00    +0.000 A 
ATOM     17  C   UNL     1      -3.640  -1.536  24.256  0.00  0.00    +0.020 A 
ATOM     18  C   UNL     1      -3.302  -1.760  24.975  0.00  0.00    +0.099 A 
ATOM     19  N   UNL     1      -3.396  -1.282  25.641  0.00  0.00    -0.243 NA
ATOM     20  C   UNL     1      -3.828  -0.581  25.588  0.00  0.00    +0.096 A 
ENDBRANCH  14  15
ENDBRANCH  13  14
ENDBRANCH   9  13
TORSDOF 7
ENDMDL
MODEL 3
REMARK VINA RESULT:      -9.2      1.128      1.277
REMARK  Name = 
REMARK  7 active torsions:
REMARK  status: ('A' for Active; 'I' for Inactive)
REMARK    1  A    between atoms: C_2  and  C_4
REMARK    2  A    between atoms: C_4  and  C_5
REMARK    3  A    between atoms: C_7  and  C_8
REMARK    4  A    between atoms: C_8  and  C_9
REMARK    5  A    between atoms: C_9  and  N_13
REMARK    6  A    between atoms: N_13  and  C_14
REMARK    7  A    between atoms: C_14  and  C_15
REMARK                            x       y       z     vdW  Elec       q    Type
REMARK                         _______ _______ _______ _____ _____    ______ ____
ROOT
ATOM      9  C   UNL     1      -4.115   1.901  24.726  0.00  0.00    +0.120 C 
ATOM     10  C   UNL     1      -4.302   2.552  24.253  0.00  0.00    +0.161 C 
ATOM     11  O   UNL     1      -5.103   2.363  24.310  0.00  0.00    -0.351 OA
ATOM     12  C   UNL     1      -4.917   1.713  24.782  0.00  0.00    +0.161 C 
ENDROOT
BRANCH   9   8
ATOM      8  C   UNL     1      -3.929   1.252  25.198  0.00  0.00    +0.070 C 
BRANCH   8   7
ATOM      5  C   UNL     1      -3.936  -0.838  24.763  0.00  0.00    +0.154 A 
ATOM      6  C   UNL     1      -3.915  -0.215  25.303  0.00  0.00    +0.054 A 
ATOM      7  C   UNL     1      -3.939   0.492  24.878  0.00  0.00    +0.102 A 
ATOM     21  N   UNL     1      -3.973   0.305  24.075  0.00  0.00    -0.082 NA
ATOM     22  O   UNL     1      -3.971  -0.517  24.004  0.00  0.00    -0.358 OA
BRANCH   5   4
ATOM      4  C   UNL     1      -3.922  -1.642  24.949  0.00  0.00    +0.067 C 
BRANCH   4   2
ATOM      1  C   UNL     1      -4.060  -2.547  23.852  0.00  0.00    +0.000 C 
ATOM      2  C   UNL     1      -3.589  -2.182  24.422  0.00  0.00    +0.008 C 
ATOM      3  C   UNL     1      -2.783  -2.357  24.466  0.00  0.00    +0.000 C 
ENDBRANCH   4   2
ENDBRANCH   5   4
ENDBRANCH   8   7
ENDBRANCH   9   8
BRANCH   9  13
ATOM     13  N   UNL     1      -3.314   2.090  24.669  0.00  0.00    -0.211 NA
BRANCH  13  14
ATOM     14  C   UNL     1      -3.061   2.862  24.819  0.00  0.00    +0.117 C 
BRANCH  14  15
ATOM     15  C   UNL     1      -2.255   3.026  24.879  0.00  0.00    +0.014 A 
ATOM     16  C   UNL     1      -1.944   3.310  25.589  0.00  0.00    +0.000 A 
ATOM     17  C   UNL     1      -1.138   3.475  25.650  0.00  0.00    +0.020 A 
ATOM     18  C   UNL     1      -0.643   3.356  25.000  0.00  0.00    +0.099 A 
ATOM     19  N   UNL     1      -0.954   3.073  24.290  0.00  0.00    -0.243 NA
ATOM     20  C   UNL     1      -1.760   2.908  24.230  0.00  0.00    +0.096 A 
ENDBRANCH  14  15
ENDBRANCH  13  14
ENDBRANCH   9  13
TORSDOF 7
ENDMDL
MODEL 4
REMARK VINA RESULT:      -9.1      1.694      2.513
REMARK  Name = 
REMARK  7 active torsions:
REMARK  status: ('A' for Active; 'I' for Inactive)
REMARK    1  A    between atoms: C_2  and  C_4
REMARK    2  A    between atoms: C_4  and  C_5
REMARK    3  A    between atoms: C_7  and  C_8
REMARK    4  A    between atoms: C_8  and  C_9
REMARK    5  A    between atoms: C_9  and  N_13
REMARK    6  A    between atoms: N_13  and  C_14
REMARK    7  A    between atoms: C_14  and  C_15
REMARK                            x       y       z     vdW  Elec       q    Type
REMARK                         _______ _______ _______ _____ _____    ______ ____
ROOT
ATOM      9  C   UNL     1      -2.455   1.394  24.173  0.00  0.00    +0.120 C 
ATOM     10  C   UNL     1      -2.599   1.838  23.491  0.00  0.00    +0.161 C 
ATOM     11  O   UNL     1      -1.870   1.602  23.184  0.00  0.00    -0.351 OA
ATOM     12  C   UNL     1      -1.727   1.158  23.865  0.00  0.00    +0.161 C 
ENDROOT
BRANCH   9   8
ATOM      8  C   UNL     1      -2.312   0.950  24.853  0.00  0.00    +0.070 C 
BRANCH   8   7
ATOM      5  C   UNL     1      -2.908  -1.097  24.948  0.00  0.00    +0.154 A 
ATOM      6  C   UNL     1      -3.069  -0.295  25.050  0.00  0.00    +0.054 A 
ATOM      7  C   UNL     1      -2.395   0.130  24.836  0.00  0.00    +0.102 A 
ATOM     21  N   UNL     1      -1.817  -0.410  24.601  0.00  0.00    -0.082 NA
ATOM     22  O   UNL     1      -2.134  -1.169  24.670  0.00  0.00    -0.358 OA
BRANCH   5   4
ATOM      4  C   UNL     1      -3.429  -1.719  25.097  0.00  0.00    +0.067 C 
BRANCH   4   2
ATOM      1  C   UNL     1      -4.265  -1.899  23.953  0.00  0.00    +0.000 C 
ATOM      2  C   UNL     1      -3.698  -2.190  24.476  0.00  0.00    +0.008 C 
ATOM      3  C   UNL     1      -3.400  -2.954  24.379  0.00  0.00    +0.000 C 
ENDBRANCH   4   2
ENDBRANCH   5   4
ENDBRANCH   8   7
ENDBRANCH   9   8
BRANCH   9  13
ATOM     13  N   UNL     1      -3.184   1.630  24.479  0.00  0.00    -0.211 NA
BRANCH  13  14
ATOM     14  C   UNL     1      -3.435   2.411  24.390  0.00  0.00    +0.117 C 
BRANCH  14  15
ATOM     15  C   UNL     1      -4.096   2.681  24.803  0.00  0.00    +0.014 A 
ATOM     16  C   UNL     1      -4.844   2.382  24.624  0.00  0.00    +0.000 A 
ATOM     17  C   UNL     1      -5.505   2.651  25.037  0.00  0.00    +0.020 A 
ATOM     18  C   UNL     1      -5.418   3.220  25.629  0.00  0.00    +0.099 A 
ATOM     19  N   UNL     1      -4.670   3.519  25.807  0.00  0.00    -0.243 NA
ATOM     20  C   UNL     1      -4.009   3.249  25.394  0.00  0.00    +0.096 A 
ENDBRANCH  14  15
ENDBRANCH  13  14
ENDBRANCH   9  13
TORSDOF 7
ENDMDL
MODEL 5
REMARK VINA RESULT:      -9.0      2.089      2.861
REMARK  Name = 
REMARK  7 active torsions:
REMARK  status: ('A' for Active; 'I' for Inactive)
REMARK    1  A    between atoms: C_2  and  C_4
REMARK    2  A    between atoms: C_4  and  C_5
REMARK    3  A    between atoms: C_7  and  C_8
REMARK    4  A    between atoms: C_8  and  C_9
REMARK    5  A    between atoms: C_9  and  N_13
REMARK    6  A    between atoms: N_13  and  C_14
REMARK    7  A    between atoms: C_14  and  C_15
REMARK                            x       y       z     vdW  Elec       q    Type
REMARK                         _______ _______ _______ _____ _____    ______ ____
ROOT
ATOM      9  C   UNL     1      -1.020   1.112  24.885  0.00  0.00    +0.120 C 
ATOM     10  C   UNL     1      -0.406   1.402  24.415  0.00  0.00    +0.161 C 
ATOM     11  O   UNL     1      -0.090   0.642  24.358  0.00  0.00    -0.351 OA
ATOM     12  C   UNL     1      -0.703   0.352  24.827  0.00  0.00    +0.161 C 
ENDROOT
BRANCH   9   8
ATOM      8  C   UNL     1      -1.633   0.822  25.354  0.00  0.00    +0.070 C 
BRANCH   8   7
ATOM      5  C   UNL     1      -3.180  -0.562  24.857  0.00  0.00    +0.154 A 
ATOM      6  C   UNL     1      -2.644  -0.244  25.397  0.00  0.00    +0.054 A 
ATOM      7  C   UNL     1      -2.225   0.357  25.018  0.00  0.00    +0.102 A 
ATOM     21  N   UNL     1      -2.502   0.411  24.243  0.00  0.00    -0.082 NA
ATOM     22  O   UNL     1      -3.092  -0.157  24.143  0.00  0.00    -0.358 OA
BRANCH   5   4
ATOM      4  C   UNL     1      -3.710  -1.176  25.004  0.00  0.00    +0.067 C 
BRANCH   4   2
ATOM      1  C   UNL     1      -4.279  -1.827  23.866  0.00  0.00    +0.000 C 
ATOM      2  C   UNL     1      -3.744  -1.823  24.494  0.00  0.00    +0.008 C 
ATOM      3  C   UNL     1      -3.242  -2.468  24.612  0.00  0.00    +0.000 C 
ENDBRANCH   4   2
ENDBRANCH   5   4
ENDBRANCH   8   7
ENDBRANCH   9   8
BRANCH   9  13
ATOM     13  N   UNL     1      -1.335   1.873  24.941  0.00  0.00    -0.211 NA
BRANCH  13  14
ATOM     14  C   UNL     1      -0.916   2.464  25.337  0.00  0.00    +0.117 C 
BRANCH  14  15
ATOM     15  C   UNL     1      -1.207   3.236  25.348  0.00  0.00    +0.014 A 
ATOM     16  C   UNL     1      -0.793   3.837  24.964  0.00  0.00    +0.000 A 
ATOM     17  C   UNL     1      -1.082   4.610  24.975  0.00  0.00    +0.020 A 
ATOM     18  C   UNL     1      -1.785   4.781  25.371  0.00  0.00    +0.099 A 
ATOM     19  N   UNL     1      -2.199   4.180  25.756  0.00  0.00    -0.243 NA
ATOM     20  C   UNL     1      -1.909   3.407  25.744  0.00  0.00    +0.096 A 
ENDBRANCH  14  15
ENDBRANCH  13  14
ENDBRANCH   9  13
TORSDOF 7
ENDMDL
