MODEL 1
REMARK VINA RESULT:     -11.6      0.000      0.000
REMARK  Name = 
REMARK  4 active torsions:
REMARK  status: ('A' for Active; 'I' for Inactive)
REMARK    1  A    between atoms: C_9  and  C_10
REMARK    2  A    between atoms: C_12  and  C_15
REMARK    3  A    between atoms: C_18  and  O_19
REMARK    4  A    between atoms: O_19  and  C_20
REMARK                            x       y       z     vdW  Elec       q    Type
REMARK                         _______ _______ _______ _____ _____    ______ ____
ROOT
ATOM     10  C   UNL     1      -3.115   2.127  24.670  0.00  0.00    +0.160 A 
ATOM     11  N   UNL     1      -3.152   1.382  25.022  0.00  0.00    -0.227 NA
ATOM     12  C   UNL     1      -3.434   0.849  24.459  0.00  0.00    +0.102 A 
ATOM     13  C   UNL     1      -3.572   1.265  23.760  0.00  0.00    +0.119 A 
ATOM     14  N   UNL     1      -3.374   2.055  23.890  0.00  0.00    -0.226 NA
ENDROOT
BRANCH  10   9
ATOM      1  C   UNL     1      -4.778   3.775  25.474  0.00  0.00    +0.095 C 
ATOM      2  C   UNL     1      -4.224   3.227  25.207  0.00  0.00    +0.227 C 
ATOM      3  O   UNL     1      -4.477   2.530  24.841  0.00  0.00    -0.275 OA
ATOM      4  N   UNL     1      -3.418   3.372  25.303  0.00  0.00    -0.270 N 
ATOM      5  C   UNL     1      -3.166   4.068  25.668  0.00  0.00    +0.126 C 
ATOM      6  C   UNL     1      -2.359   4.215  25.765  0.00  0.00    +0.164 C 
ATOM      7  O   UNL     1      -1.806   3.665  25.497  0.00  0.00    -0.350 OA
ATOM      8  C   UNL     1      -2.058   2.970  25.132  0.00  0.00    +0.170 C 
ATOM      9  C   UNL     1      -2.863   2.823  25.035  0.00  0.00    +0.164 C 
ENDBRANCH  10   9
BRANCH  12  15
ATOM     15  C   UNL     1      -3.557   0.041  24.574  0.00  0.00    +0.019 A 
ATOM     16  C   UNL     1      -3.949  -0.402  23.999  0.00  0.00    +0.005 A 
ATOM     17  C   UNL     1      -4.072  -1.210  24.115  0.00  0.00    +0.037 A 
ATOM     18  C   UNL     1      -3.804  -1.574  24.804  0.00  0.00    +0.147 A 
ATOM     24  C   UNL     1      -3.412  -1.130  25.380  0.00  0.00    +0.037 A 
ATOM     25  C   UNL     1      -3.289  -0.322  25.264  0.00  0.00    +0.005 A 
BRANCH  18  19
ATOM     19  O   UNL     1      -3.927  -2.382  24.920  0.00  0.00    -0.404 OA
BRANCH  19  20
ATOM     20  C   UNL     1      -3.541  -2.931  24.441  0.00  0.00    +0.575 C 
ATOM     21  F   UNL     1      -3.155  -3.480  23.960  0.00  0.00    -0.133 F 
ATOM     22  F   UNL     1      -2.891  -2.915  24.947  0.00  0.00    -0.133 F 
ATOM     23  F   UNL     1      -4.192  -2.946  23.934  0.00  0.00    -0.133 F 
ENDBRANCH  19  20
ENDBRANCH  18  19
ENDBRANCH  12  15
TORSDOF 4
ENDMDL
