REMARK  Name = 
REMARK  8 active torsions:
REMARK  status: ('A' for Active; 'I' for Inactive)
REMARK    1  A    between atoms: C_2  and  C_4
REMARK    2  A    between atoms: C_6  and  C_7
REMARK    3  A    between atoms: C_7  and  C_8
REMARK    4  A    between atoms: N_10  and  C_11
REMARK    5  A    between atoms: C_19  and  C_20
REMARK    6  A    between atoms: C_20  and  N_21
REMARK    7  A    between atoms: C_22  and  C_24
REMARK    8  A    between atoms: C_24  and  C_25
REMARK                            x       y       z     vdW  Elec       q    Type
REMARK                         _______ _______ _______ _____ _____    ______ ____
ROOT
ATOM      4  C   UNL     1      -3.572   8.416   0.000  0.00  0.00    +0.006 C 
ATOM      5  C   UNL     1      -2.858   8.004   0.000  0.00  0.00    +0.005 C 
ATOM      6  C   UNL     1      -2.858   7.179   0.000  0.00  0.00    +0.027 C 
ATOM     16  C   UNL     1      -3.572   6.766   0.000  0.00  0.00    -0.048 C 
ATOM     17  C   UNL     1      -3.572   5.941   0.000  0.00  0.00    +0.026 C 
ATOM     18  C   UNL     1      -4.287   7.179   0.000  0.00  0.00    -0.033 C 
ATOM     19  C   UNL     1      -4.287   8.004   0.000  0.00  0.00    +0.043 C 
ENDROOT
BRANCH   4   2
ATOM      1  C   UNL     1      -4.287   9.654   0.000  0.00  0.00    +0.000 C 
ATOM      2  C   UNL     1      -3.572   9.241   0.000  0.00  0.00    +0.000 C 
ATOM      3  C   UNL     1      -2.858   9.654   0.000  0.00  0.00    +0.000 C 
ENDBRANCH   4   2
BRANCH   6   7
ATOM      7  C   UNL     1      -2.143   6.766   0.000  0.00  0.00    +0.091 C 
BRANCH   7   8
ATOM      8  C   UNL     1      -2.143   5.941   0.000  0.00  0.00    +0.242 C 
ATOM      9  O   UNL     1      -2.858   5.529   0.000  0.00  0.00    -0.273 OA
ATOM     10  N   UNL     1      -1.429   5.529   0.000  0.00  0.00    -0.207 NA
BRANCH  10  11
ATOM     11  C   UNL     1      -1.429   4.704   0.000  0.00  0.00    +0.095 C 
ATOM     12  C   UNL     1      -0.761   4.219   0.000  0.00  0.00    +0.022 C 
ATOM     13  C   UNL     1      -1.016   3.434   0.000  0.00  0.00    +0.002 C 
ATOM     14  C   UNL     1      -1.841   3.434   0.000  0.00  0.00    +0.002 C 
ATOM     15  C   UNL     1      -2.096   4.219   0.000  0.00  0.00    +0.022 C 
ENDBRANCH  10  11
ENDBRANCH   7   8
ENDBRANCH   6   7
BRANCH  19  20
ATOM     20  C   UNL     1      -5.001   8.416   0.000  0.00  0.00    +0.119 C 
BRANCH  20  21
ATOM     21  N   UNL     1      -5.001   9.241   0.000  0.00  0.00    -0.205 NA
ATOM     22  C   UNL     1      -5.716   9.654   0.000  0.00  0.00    +0.241 C 
ATOM     23  O   UNL     1      -6.430   9.241   0.000  0.00  0.00    -0.273 OA
BRANCH  22  24
ATOM     24  C   UNL     1      -5.716  10.479   0.000  0.00  0.00    +0.087 C 
BRANCH  24  25
ATOM     25  C   UNL     1      -6.430  10.891   0.000  0.00  0.00    +0.009 C 
ATOM     26  C   UNL     1      -7.145  11.304   0.000  0.00  0.00    +0.000 C 
ATOM     27  C   UNL     1      -6.018  11.605   0.000  0.00  0.00    +0.000 C 
ATOM     28  C   UNL     1      -6.843  10.177   0.000  0.00  0.00    +0.000 C 
ENDBRANCH  24  25
ENDBRANCH  22  24
ENDBRANCH  20  21
ENDBRANCH  19  20
TORSDOF 8
