MODEL 1
REMARK VINA RESULT:     -13.6      0.000      0.000
REMARK  Name = 
REMARK  4 active torsions:
REMARK  status: ('A' for Active; 'I' for Inactive)
REMARK    1  A    between atoms: C_2  and  C_4
REMARK    2  A    between atoms: C_4  and  C_5
REMARK    3  A    between atoms: C_10  and  C_11
REMARK    4  A    between atoms: C_11  and  C_12
REMARK                            x       y       z     vdW  Elec       q    Type
REMARK                         _______ _______ _______ _____ _____    ______ ____
ROOT
ATOM      5  C   UNL     1      -4.375   1.529  24.942  0.00  0.00    +0.015 C 
ATOM      6  C   UNL     1      -4.210   2.311  25.147  0.00  0.00    +0.022 C 
ATOM      7  C   UNL     1      -3.447   2.609  25.055  0.00  0.00    +0.095 C 
ATOM      8  N   UNL     1      -2.848   2.127  24.758  0.00  0.00    -0.264 N 
ATOM      9  C   UNL     1      -3.013   1.345  24.553  0.00  0.00    +0.095 C 
ATOM     10  C   UNL     1      -3.776   1.047  24.645  0.00  0.00    +0.026 C 
ATOM     23  C   UNL     1      -2.084   2.425  24.667  0.00  0.00    +0.307 C 
ATOM     24  O   UNL     1      -1.920   3.207  24.872  0.00  0.00    -0.252 OA
ATOM     25  N   UNL     1      -1.486   1.942  24.370  0.00  0.00    -0.259 N 
ATOM     26  C   UNL     1      -0.722   2.241  24.278  0.00  0.00    +0.127 C 
ATOM     27  C   UNL     1      -0.123   1.757  23.981  0.00  0.00    +0.164 C 
ATOM     28  O   UNL     1      -0.287   0.975  23.776  0.00  0.00    -0.350 OA
ATOM     29  C   UNL     1      -1.051   0.676  23.868  0.00  0.00    +0.164 C 
ATOM     30  C   UNL     1      -1.650   1.160  24.165  0.00  0.00    +0.127 C 
ENDROOT
BRANCH   5   4
ATOM      4  C   UNL     1      -5.139   1.231  25.033  0.00  0.00    +0.114 C 
BRANCH   4   2
ATOM      1  O   UNL     1      -6.216   2.060  24.594  0.00  0.00    -0.246 OA
ATOM      2  C   UNL     1      -5.763   1.741  25.205  0.00  0.00    +0.365 C 
ATOM      3  O   UNL     1      -5.935   1.934  25.990  0.00  0.00    -0.246 OA
ENDBRANCH   4   2
ENDBRANCH   5   4
BRANCH  10  11
ATOM     11  C   UNL     1      -3.940   0.264  24.440  0.00  0.00    +0.047 C 
BRANCH  11  12
ATOM     12  C   UNL     1      -3.718  -0.350  24.943  0.00  0.00    +0.053 C 
ATOM     13  N   UNL     1      -3.442  -0.181  25.702  0.00  0.00    -0.274 NA
ATOM     14  C   UNL     1      -3.219  -0.796  26.207  0.00  0.00    +0.130 C 
ATOM     15  C   UNL     1      -3.274  -1.579  25.951  0.00  0.00    +0.053 C 
ATOM     16  C   UNL     1      -3.550  -1.748  25.192  0.00  0.00    -0.017 A 
ATOM     17  C   UNL     1      -3.772  -1.133  24.688  0.00  0.00    +0.009 A 
ATOM     18  C   UNL     1      -4.048  -1.301  23.929  0.00  0.00    +0.003 A 
ATOM     19  C   UNL     1      -4.103  -2.083  23.674  0.00  0.00    +0.030 A 
ATOM     20  C   UNL     1      -3.880  -2.698  24.179  0.00  0.00    +0.140 A 
ATOM     21  F   UNL     1      -3.934  -3.481  23.923  0.00  0.00    -0.204 F 
ATOM     22  C   UNL     1      -3.604  -2.530  24.937  0.00  0.00    +0.025 A 
ENDBRANCH  11  12
ENDBRANCH  10  11
TORSDOF 4
ENDMDL
MODEL 2
REMARK VINA RESULT:     -12.8      0.770      3.077
REMARK  Name = 
REMARK  4 active torsions:
REMARK  status: ('A' for Active; 'I' for Inactive)
REMARK    1  A    between atoms: C_2  and  C_4
REMARK    2  A    between atoms: C_4  and  C_5
REMARK    3  A    between atoms: C_10  and  C_11
REMARK    4  A    between atoms: C_11  and  C_12
REMARK                            x       y       z     vdW  Elec       q    Type
REMARK                         _______ _______ _______ _____ _____    ______ ____
ROOT
ATOM      5  C   UNL     1      -1.864   1.360  24.500  0.00  0.00    +0.015 C 
ATOM      6  C   UNL     1      -1.634   2.103  24.776  0.00  0.00    +0.022 C 
ATOM      7  C   UNL     1      -2.201   2.635  25.049  0.00  0.00    +0.095 C 
ATOM      8  N   UNL     1      -2.999   2.426  25.048  0.00  0.00    -0.264 N 
ATOM      9  C   UNL     1      -3.229   1.683  24.772  0.00  0.00    +0.095 C 
ATOM     10  C   UNL     1      -2.662   1.151  24.499  0.00  0.00    +0.026 C 
ATOM     23  C   UNL     1      -3.566   2.959  25.322  0.00  0.00    +0.307 C 
ATOM     24  O   UNL     1      -3.335   3.701  25.597  0.00  0.00    -0.252 OA
ATOM     25  N   UNL     1      -4.363   2.749  25.320  0.00  0.00    -0.259 N 
ATOM     26  C   UNL     1      -4.930   3.282  25.594  0.00  0.00    +0.127 C 
ATOM     27  C   UNL     1      -5.729   3.072  25.592  0.00  0.00    +0.164 C 
ATOM     28  O   UNL     1      -5.960   2.329  25.317  0.00  0.00    -0.350 OA
ATOM     29  C   UNL     1      -5.392   1.796  25.043  0.00  0.00    +0.164 C 
ATOM     30  C   UNL     1      -4.595   2.006  25.045  0.00  0.00    +0.127 C 
ENDROOT
BRANCH   5   4
ATOM      4  C   UNL     1      -1.297   0.827  24.226  0.00  0.00    +0.114 C 
BRANCH   4   2
ATOM      1  O   UNL     1       0.052   1.172  24.545  0.00  0.00    -0.246 OA
ATOM      2  C   UNL     1      -0.555   1.100  23.992  0.00  0.00    +0.365 C 
ATOM      3  O   UNL     1      -0.420   1.300  23.202  0.00  0.00    -0.246 OA
ENDBRANCH   4   2
ENDBRANCH   5   4
BRANCH  10  11
ATOM     11  C   UNL     1      -2.893   0.408  24.223  0.00  0.00    +0.047 C 
BRANCH  11  12
ATOM     12  C   UNL     1      -3.020  -0.209  24.756  0.00  0.00    +0.053 C 
ATOM     13  N   UNL     1      -2.765  -0.137  25.538  0.00  0.00    -0.274 NA
ATOM     14  C   UNL     1      -2.892  -0.755  26.071  0.00  0.00    +0.130 C 
ATOM     15  C   UNL     1      -3.274  -1.442  25.822  0.00  0.00    +0.053 C 
ATOM     16  C   UNL     1      -3.529  -1.514  25.041  0.00  0.00    -0.017 A 
ATOM     17  C   UNL     1      -3.402  -0.897  24.507  0.00  0.00    +0.009 A 
ATOM     18  C   UNL     1      -3.657  -0.968  23.726  0.00  0.00    +0.003 A 
ATOM     19  C   UNL     1      -4.039  -1.655  23.478  0.00  0.00    +0.030 A 
ATOM     20  C   UNL     1      -4.166  -2.273  24.012  0.00  0.00    +0.140 A 
ATOM     21  F   UNL     1      -4.548  -2.960  23.763  0.00  0.00    -0.204 F 
ATOM     22  C   UNL     1      -3.911  -2.201  24.793  0.00  0.00    +0.025 A 
ENDBRANCH  11  12
ENDBRANCH  10  11
TORSDOF 4
ENDMDL
MODEL 3
REMARK VINA RESULT:     -12.3      2.174      4.613
REMARK  Name = 
REMARK  4 active torsions:
REMARK  status: ('A' for Active; 'I' for Inactive)
REMARK    1  A    between atoms: C_2  and  C_4
REMARK    2  A    between atoms: C_4  and  C_5
REMARK    3  A    between atoms: C_10  and  C_11
REMARK    4  A    between atoms: C_11  and  C_12
REMARK                            x       y       z     vdW  Elec       q    Type
REMARK                         _______ _______ _______ _____ _____    ______ ____
ROOT
ATOM      5  C   UNL     1      -0.804   1.172  24.742  0.00  0.00    +0.015 C 
ATOM      6  C   UNL     1      -0.279   0.552  24.600  0.00  0.00    +0.022 C 
ATOM      7  C   UNL     1      -0.555  -0.224  24.573  0.00  0.00    +0.095 C 
ATOM      8  N   UNL     1      -1.357  -0.382  24.688  0.00  0.00    -0.264 N 
ATOM      9  C   UNL     1      -1.881   0.238  24.831  0.00  0.00    +0.095 C 
ATOM     10  C   UNL     1      -1.605   1.014  24.857  0.00  0.00    +0.026 C 
ATOM     23  C   UNL     1      -1.633  -1.159  24.662  0.00  0.00    +0.307 C 
ATOM     24  O   UNL     1      -1.108  -1.778  24.520  0.00  0.00    -0.252 OA
ATOM     25  N   UNL     1      -2.434  -1.315  24.777  0.00  0.00    -0.259 N 
ATOM     26  C   UNL     1      -2.710  -2.092  24.751  0.00  0.00    +0.127 C 
ATOM     27  C   UNL     1      -3.512  -2.250  24.866  0.00  0.00    +0.164 C 
ATOM     28  O   UNL     1      -4.038  -1.629  25.009  0.00  0.00    -0.350 OA
ATOM     29  C   UNL     1      -3.762  -0.852  25.035  0.00  0.00    +0.164 C 
ATOM     30  C   UNL     1      -2.960  -0.696  24.920  0.00  0.00    +0.127 C 
ENDROOT
BRANCH   5   4
ATOM      4  C   UNL     1      -0.528   1.949  24.768  0.00  0.00    +0.114 C 
BRANCH   4   2
ATOM      1  O   UNL     1       0.821   2.106  24.323  0.00  0.00    -0.246 OA
ATOM      2  C   UNL     1       0.266   2.099  24.934  0.00  0.00    +0.365 C 
ATOM      3  O   UNL     1       0.506   2.241  25.711  0.00  0.00    -0.246 OA
ENDBRANCH   4   2
ENDBRANCH   5   4
BRANCH  10  11
ATOM     11  C   UNL     1      -2.131   1.635  24.999  0.00  0.00    +0.047 C 
BRANCH  11  12
ATOM     12  C   UNL     1      -2.587   1.940  24.382  0.00  0.00    +0.053 C 
ATOM     13  N   UNL     1      -2.429   1.715  23.604  0.00  0.00    -0.274 NA
ATOM     14  C   UNL     1      -2.885   2.020  22.987  0.00  0.00    +0.130 C 
ATOM     15  C   UNL     1      -3.497   2.549  23.149  0.00  0.00    +0.053 C 
ATOM     16  C   UNL     1      -3.654   2.774  23.927  0.00  0.00    -0.017 A 
ATOM     17  C   UNL     1      -3.199   2.469  24.545  0.00  0.00    +0.009 A 
ATOM     18  C   UNL     1      -3.355   2.693  25.322  0.00  0.00    +0.003 A 
ATOM     19  C   UNL     1      -3.967   3.222  25.484  0.00  0.00    +0.030 A 
ATOM     20  C   UNL     1      -4.423   3.527  24.866  0.00  0.00    +0.140 A 
ATOM     21  F   UNL     1      -5.035   4.056  25.028  0.00  0.00    -0.204 F 
ATOM     22  C   UNL     1      -4.266   3.303  24.088  0.00  0.00    +0.025 A 
ENDBRANCH  11  12
ENDBRANCH  10  11
TORSDOF 4
ENDMDL
MODEL 4
REMARK VINA RESULT:     -11.9      2.191      3.780
REMARK  Name = 
REMARK  4 active torsions:
REMARK  status: ('A' for Active; 'I' for Inactive)
REMARK    1  A    between atoms: C_2  and  C_4
REMARK    2  A    between atoms: C_4  and  C_5
REMARK    3  A    between atoms: C_10  and  C_11
REMARK    4  A    between atoms: C_11  and  C_12
REMARK                            x       y       z     vdW  Elec       q    Type
REMARK                         _______ _______ _______ _____ _____    ______ ____
ROOT
ATOM      5  C   UNL     1      -3.116  -0.077  24.551  0.00  0.00    +0.015 C 
ATOM      6  C   UNL     1      -2.470  -0.560  24.377  0.00  0.00    +0.022 C 
ATOM      7  C   UNL     1      -1.705  -0.296  24.531  0.00  0.00    +0.095 C 
ATOM      8  N   UNL     1      -1.583   0.450  24.859  0.00  0.00    -0.264 N 
ATOM      9  C   UNL     1      -2.229   0.933  25.034  0.00  0.00    +0.095 C 
ATOM     10  C   UNL     1      -2.994   0.670  24.880  0.00  0.00    +0.026 C 
ATOM     23  C   UNL     1      -0.817   0.714  25.014  0.00  0.00    +0.307 C 
ATOM     24  O   UNL     1      -0.172   0.231  24.839  0.00  0.00    -0.252 OA
ATOM     25  N   UNL     1      -0.696   1.460  25.342  0.00  0.00    -0.259 N 
ATOM     26  C   UNL     1       0.070   1.724  25.496  0.00  0.00    +0.127 C 
ATOM     27  C   UNL     1       0.192   2.472  25.825  0.00  0.00    +0.164 C 
ATOM     28  O   UNL     1      -0.454   2.955  26.000  0.00  0.00    -0.350 OA
ATOM     29  C   UNL     1      -1.221   2.691  25.846  0.00  0.00    +0.164 C 
ATOM     30  C   UNL     1      -1.341   1.944  25.517  0.00  0.00    +0.127 C 
ENDROOT
BRANCH   5   4
ATOM      4  C   UNL     1      -3.882  -0.341  24.397  0.00  0.00    +0.114 C 
BRANCH   4   2
ATOM      1  O   UNL     1      -4.067  -1.645  24.952  0.00  0.00    -0.246 OA
ATOM      2  C   UNL     1      -4.029  -1.146  24.296  0.00  0.00    +0.365 C 
ATOM      3  O   UNL     1      -4.137  -1.453  23.537  0.00  0.00    -0.246 OA
ENDBRANCH   4   2
ENDBRANCH   5   4
BRANCH  10  11
ATOM     11  C   UNL     1      -3.640   1.153  25.055  0.00  0.00    +0.047 C 
BRANCH  11  12
ATOM     12  C   UNL     1      -3.814   1.800  24.573  0.00  0.00    +0.053 C 
ATOM     13  N   UNL     1      -3.485   1.852  23.818  0.00  0.00    -0.274 NA
ATOM     14  C   UNL     1      -3.658   2.500  23.336  0.00  0.00    +0.130 C 
ATOM     15  C   UNL     1      -4.160   3.095  23.610  0.00  0.00    +0.053 C 
ATOM     16  C   UNL     1      -4.488   3.044  24.365  0.00  0.00    -0.017 A 
ATOM     17  C   UNL     1      -4.315   2.396  24.848  0.00  0.00    +0.009 A 
ATOM     18  C   UNL     1      -4.643   2.344  25.602  0.00  0.00    +0.003 A 
ATOM     19  C   UNL     1      -5.144   2.939  25.876  0.00  0.00    +0.030 A 
ATOM     20  C   UNL     1      -5.317   3.587  25.394  0.00  0.00    +0.140 A 
ATOM     21  F   UNL     1      -5.818   4.182  25.668  0.00  0.00    -0.204 F 
ATOM     22  C   UNL     1      -4.989   3.638  24.639  0.00  0.00    +0.025 A 
ENDBRANCH  11  12
ENDBRANCH  10  11
TORSDOF 4
ENDMDL
MODEL 5
REMARK VINA RESULT:     -11.8      2.147      3.959
REMARK  Name = 
REMARK  4 active torsions:
REMARK  status: ('A' for Active; 'I' for Inactive)
REMARK    1  A    between atoms: C_2  and  C_4
REMARK    2  A    between atoms: C_4  and  C_5
REMARK    3  A    between atoms: C_10  and  C_11
REMARK    4  A    between atoms: C_11  and  C_12
REMARK                            x       y       z     vdW  Elec       q    Type
REMARK                         _______ _______ _______ _____ _____    ______ ____
ROOT
ATOM      5  C   UNL     1      -4.328   1.026  24.883  0.00  0.00    +0.015 C 
ATOM      6  C   UNL     1      -4.807   0.380  24.698  0.00  0.00    +0.022 C 
ATOM      7  C   UNL     1      -4.475  -0.370  24.621  0.00  0.00    +0.095 C 
ATOM      8  N   UNL     1      -3.664  -0.476  24.729  0.00  0.00    -0.264 N 
ATOM      9  C   UNL     1      -3.185   0.170  24.913  0.00  0.00    +0.095 C 
ATOM     10  C   UNL     1      -3.517   0.920  24.990  0.00  0.00    +0.026 C 
ATOM     23  C   UNL     1      -3.332  -1.228  24.652  0.00  0.00    +0.307 C 
ATOM     24  O   UNL     1      -3.811  -1.873  24.467  0.00  0.00    -0.252 OA
ATOM     25  N   UNL     1      -2.522  -1.333  24.759  0.00  0.00    -0.259 N 
ATOM     26  C   UNL     1      -2.190  -2.084  24.682  0.00  0.00    +0.127 C 
ATOM     27  C   UNL     1      -1.378  -2.190  24.789  0.00  0.00    +0.164 C 
ATOM     28  O   UNL     1      -0.898  -1.544  24.973  0.00  0.00    -0.350 OA
ATOM     29  C   UNL     1      -1.230  -0.792  25.051  0.00  0.00    +0.164 C 
ATOM     30  C   UNL     1      -2.042  -0.688  24.943  0.00  0.00    +0.127 C 
ENDROOT
BRANCH   5   4
ATOM      4  C   UNL     1      -4.660   1.778  24.960  0.00  0.00    +0.114 C 
BRANCH   4   2
ATOM      1  O   UNL     1      -6.019   1.919  24.542  0.00  0.00    -0.246 OA
ATOM      2  C   UNL     1      -5.459   1.858  25.145  0.00  0.00    +0.365 C 
ATOM      3  O   UNL     1      -5.700   1.877  25.935  0.00  0.00    -0.246 OA
ENDBRANCH   4   2
ENDBRANCH   5   4
BRANCH  10  11
ATOM     11  C   UNL     1      -3.038   1.566  25.174  0.00  0.00    +0.047 C 
BRANCH  11  12
ATOM     12  C   UNL     1      -2.585   1.926  24.586  0.00  0.00    +0.053 C 
ATOM     13  N   UNL     1      -2.705   1.726  23.794  0.00  0.00    -0.274 NA
ATOM     14  C   UNL     1      -2.252   2.086  23.205  0.00  0.00    +0.130 C 
ATOM     15  C   UNL     1      -1.680   2.645  23.408  0.00  0.00    +0.053 C 
ATOM     16  C   UNL     1      -1.560   2.844  24.200  0.00  0.00    -0.017 A 
ATOM     17  C   UNL     1      -2.013   2.484  24.789  0.00  0.00    +0.009 A 
ATOM     18  C   UNL     1      -1.893   2.684  25.580  0.00  0.00    +0.003 A 
ATOM     19  C   UNL     1      -1.321   3.242  25.783  0.00  0.00    +0.030 A 
ATOM     20  C   UNL     1      -0.868   3.602  25.194  0.00  0.00    +0.140 A 
ATOM     21  F   UNL     1      -0.296   4.160  25.397  0.00  0.00    -0.204 F 
ATOM     22  C   UNL     1      -0.988   3.402  24.403  0.00  0.00    +0.025 A 
ENDBRANCH  11  12
ENDBRANCH  10  11
TORSDOF 4
ENDMDL
MODEL 6
REMARK VINA RESULT:     -11.7      2.135      4.135
REMARK  Name = 
REMARK  4 active torsions:
REMARK  status: ('A' for Active; 'I' for Inactive)
REMARK    1  A    between atoms: C_2  and  C_4
REMARK    2  A    between atoms: C_4  and  C_5
REMARK    3  A    between atoms: C_10  and  C_11
REMARK    4  A    between atoms: C_11  and  C_12
REMARK                            x       y       z     vdW  Elec       q    Type
REMARK                         _______ _______ _______ _____ _____    ______ ____
ROOT
ATOM      5  C   UNL     1      -3.820  -0.141  24.658  0.00  0.00    +0.015 C 
ATOM      6  C   UNL     1      -4.630  -0.243  24.540  0.00  0.00    +0.022 C 
ATOM      7  C   UNL     1      -5.147   0.388  24.658  0.00  0.00    +0.095 C 
ATOM      8  N   UNL     1      -4.855   1.122  24.894  0.00  0.00    -0.264 N 
ATOM      9  C   UNL     1      -4.045   1.225  25.013  0.00  0.00    +0.095 C 
ATOM     10  C   UNL     1      -3.528   0.594  24.895  0.00  0.00    +0.026 C 
ATOM     23  C   UNL     1      -5.373   1.754  25.012  0.00  0.00    +0.307 C 
ATOM     24  O   UNL     1      -6.182   1.651  24.893  0.00  0.00    -0.252 OA
ATOM     25  N   UNL     1      -5.081   2.488  25.248  0.00  0.00    -0.259 N 
ATOM     26  C   UNL     1      -5.598   3.119  25.366  0.00  0.00    +0.127 C 
ATOM     27  C   UNL     1      -5.306   3.854  25.603  0.00  0.00    +0.164 C 
ATOM     28  O   UNL     1      -4.495   3.957  25.722  0.00  0.00    -0.350 OA
ATOM     29  C   UNL     1      -3.978   3.325  25.604  0.00  0.00    +0.164 C 
ATOM     30  C   UNL     1      -4.271   2.591  25.367  0.00  0.00    +0.127 C 
ENDROOT
BRANCH   5   4
ATOM      4  C   UNL     1      -3.302  -0.772  24.540  0.00  0.00    +0.114 C 
BRANCH   4   2
ATOM      1  O   UNL     1      -3.848  -1.915  23.878  0.00  0.00    -0.246 OA
ATOM      2  C   UNL     1      -3.584  -1.546  24.568  0.00  0.00    +0.365 C 
ATOM      3  O   UNL     1      -3.602  -1.954  25.286  0.00  0.00    -0.246 OA
ENDBRANCH   4   2
ENDBRANCH   5   4
BRANCH  10  11
ATOM     11  C   UNL     1      -2.718   0.697  25.014  0.00  0.00    +0.047 C 
BRANCH  11  12
ATOM     12  C   UNL     1      -2.264   1.086  24.446  0.00  0.00    +0.053 C 
ATOM     13  N   UNL     1      -2.555   1.181  23.679  0.00  0.00    -0.274 NA
ATOM     14  C   UNL     1      -2.100   1.571  23.111  0.00  0.00    +0.130 C 
ATOM     15  C   UNL     1      -1.355   1.866  23.310  0.00  0.00    +0.053 C 
ATOM     16  C   UNL     1      -1.064   1.772  24.076  0.00  0.00    -0.017 A 
ATOM     17  C   UNL     1      -1.519   1.381  24.645  0.00  0.00    +0.009 A 
ATOM     18  C   UNL     1      -1.229   1.287  25.411  0.00  0.00    +0.003 A 
ATOM     19  C   UNL     1      -0.485   1.581  25.609  0.00  0.00    +0.030 A 
ATOM     20  C   UNL     1      -0.030   1.972  25.041  0.00  0.00    +0.140 A 
ATOM     21  F   UNL     1       0.714   2.267  25.240  0.00  0.00    -0.204 F 
ATOM     22  C   UNL     1      -0.321   2.066  24.275  0.00  0.00    +0.025 A 
ENDBRANCH  11  12
ENDBRANCH  10  11
TORSDOF 4
ENDMDL
