MODEL 1
REMARK VINA RESULT:      -8.3      0.000      0.000
REMARK  Name = 
REMARK  7 active torsions:
REMARK  status: ('A' for Active; 'I' for Inactive)
REMARK    1  A    between atoms: C_2  and  N_3
REMARK    2  A    between atoms: N_3  and  C_4
REMARK    3  A    between atoms: N_3  and  C_6
REMARK    4  A    between atoms: C_6  and  C_7
REMARK    5  A    between atoms: C_7  and  C_8
REMARK    6  A    between atoms: C_11  and  C_12
REMARK    7  A    between atoms: C_12  and  C_13
REMARK                            x       y       z     vdW  Elec       q    Type
REMARK                         _______ _______ _______ _____ _____    ______ ____
ROOT
ATOM      7  C   UNL     1      -4.101   1.341  24.446  0.00  0.00    +0.069 C 
ENDROOT
BRANCH   7   8
ATOM      8  C   UNL     1      -4.070   0.545  24.663  0.00  0.00    +0.102 A 
ATOM      9  N   UNL     1      -4.114   0.249  25.431  0.00  0.00    -0.082 NA
ATOM     10  O   UNL     1      -4.062  -0.573  25.392  0.00  0.00    -0.358 OA
ATOM     11  C   UNL     1      -3.985  -0.786  24.598  0.00  0.00    +0.154 A 
ATOM     16  C   UNL     1      -3.990  -0.095  24.148  0.00  0.00    +0.054 A 
BRANCH  11  12
ATOM     12  C   UNL     1      -3.915  -1.555  24.307  0.00  0.00    +0.067 C 
BRANCH  12  13
ATOM     13  C   UNL     1      -3.335  -2.059  24.608  0.00  0.00    +0.008 C 
ATOM     14  C   UNL     1      -2.563  -2.016  24.322  0.00  0.00    +0.000 C 
ATOM     15  C   UNL     1      -3.528  -2.605  25.195  0.00  0.00    +0.000 C 
ENDBRANCH  12  13
ENDBRANCH  11  12
ENDBRANCH   7   8
BRANCH   7   6
ATOM      6  C   UNL     1      -4.704   1.823  24.736  0.00  0.00    +0.106 C 
ATOM     17  C   UNL     1      -5.306   2.306  25.026  0.00  0.00    +0.160 C 
ATOM     18  O   UNL     1      -5.809   1.654  25.069  0.00  0.00    -0.351 OA
ATOM     19  C   UNL     1      -5.206   1.171  24.779  0.00  0.00    +0.160 C 
BRANCH   6   3
ATOM      3  N   UNL     1      -4.200   2.476  24.692  0.00  0.00    -0.271 NA
BRANCH   3   2
ATOM      1  C   UNL     1      -3.358   3.404  25.378  0.00  0.00    +0.019 C 
ATOM      2  C   UNL     1      -4.006   2.894  25.376  0.00  0.00    +0.072 C 
ENDBRANCH   3   2
BRANCH   3   4
ATOM      4  C   UNL     1      -3.892   2.710  23.964  0.00  0.00    +0.072 C 
ATOM      5  C   UNL     1      -3.858   3.511  23.767  0.00  0.00    +0.019 C 
ENDBRANCH   3   4
ENDBRANCH   6   3
ENDBRANCH   7   6
TORSDOF 7
ENDMDL
MODEL 2
REMARK VINA RESULT:      -8.0      1.408      4.006
REMARK  Name = 
REMARK  7 active torsions:
REMARK  status: ('A' for Active; 'I' for Inactive)
REMARK    1  A    between atoms: C_2  and  N_3
REMARK    2  A    between atoms: N_3  and  C_4
REMARK    3  A    between atoms: N_3  and  C_6
REMARK    4  A    between atoms: C_6  and  C_7
REMARK    5  A    between atoms: C_7  and  C_8
REMARK    6  A    between atoms: C_11  and  C_12
REMARK    7  A    between atoms: C_12  and  C_13
REMARK                            x       y       z     vdW  Elec       q    Type
REMARK                         _______ _______ _______ _____ _____    ______ ____
ROOT
ATOM      7  C   UNL     1      -3.597   1.683  24.361  0.00  0.00    +0.069 C 
ENDROOT
BRANCH   7   8
ATOM      8  C   UNL     1      -3.323   2.443  24.528  0.00  0.00    +0.102 A 
ATOM      9  N   UNL     1      -3.511   3.130  24.111  0.00  0.00    -0.082 NA
ATOM     10  O   UNL     1      -3.117   3.761  24.467  0.00  0.00    -0.358 OA
ATOM     11  C   UNL     1      -2.686   3.464  25.105  0.00  0.00    +0.154 A 
ATOM     16  C   UNL     1      -2.814   2.650  25.143  0.00  0.00    +0.054 A 
BRANCH  11  12
ATOM     12  C   UNL     1      -2.211   3.905  25.616  0.00  0.00    +0.067 C 
BRANCH  12  13
ATOM     13  C   UNL     1      -1.527   4.270  25.331  0.00  0.00    +0.008 C 
ATOM     14  C   UNL     1      -0.833   3.835  25.244  0.00  0.00    +0.000 C 
ATOM     15  C   UNL     1      -1.540   5.071  25.134  0.00  0.00    +0.000 C 
ENDBRANCH  12  13
ENDBRANCH  11  12
ENDBRANCH   7   8
BRANCH   7   6
ATOM      6  C   UNL     1      -4.348   1.451  24.612  0.00  0.00    +0.106 C 
ATOM     17  C   UNL     1      -5.098   1.219  24.864  0.00  0.00    +0.160 C 
ATOM     18  O   UNL     1      -5.354   2.003  24.827  0.00  0.00    -0.351 OA
ATOM     19  C   UNL     1      -4.603   2.234  24.576  0.00  0.00    +0.160 C 
BRANCH   6   3
ATOM      3  N   UNL     1      -4.093   0.667  24.649  0.00  0.00    -0.271 NA
BRANCH   3   2
ATOM      1  C   UNL     1      -3.957  -0.486  23.817  0.00  0.00    +0.019 C 
ATOM      2  C   UNL     1      -3.780   0.303  23.979  0.00  0.00    +0.072 C 
ENDBRANCH   3   2
BRANCH   3   4
ATOM      4  C   UNL     1      -4.150   0.248  25.357  0.00  0.00    +0.072 C 
ATOM      5  C   UNL     1      -3.789  -0.490  25.431  0.00  0.00    +0.019 C 
ENDBRANCH   3   4
ENDBRANCH   6   3
ENDBRANCH   7   6
TORSDOF 7
ENDMDL
MODEL 3
REMARK VINA RESULT:      -7.8      1.041      4.111
REMARK  Name = 
REMARK  7 active torsions:
REMARK  status: ('A' for Active; 'I' for Inactive)
REMARK    1  A    between atoms: C_2  and  N_3
REMARK    2  A    between atoms: N_3  and  C_4
REMARK    3  A    between atoms: N_3  and  C_6
REMARK    4  A    between atoms: C_6  and  C_7
REMARK    5  A    between atoms: C_7  and  C_8
REMARK    6  A    between atoms: C_11  and  C_12
REMARK    7  A    between atoms: C_12  and  C_13
REMARK                            x       y       z     vdW  Elec       q    Type
REMARK                         _______ _______ _______ _____ _____    ______ ____
ROOT
ATOM      7  C   UNL     1      -3.714  -0.690  24.522  0.00  0.00    +0.069 C 
ENDROOT
BRANCH   7   8
ATOM      8  C   UNL     1      -3.704   0.134  24.571  0.00  0.00    +0.102 A 
ATOM      9  N   UNL     1      -3.049   0.602  24.750  0.00  0.00    -0.082 NA
ATOM     10  O   UNL     1      -3.288   1.392  24.739  0.00  0.00    -0.358 OA
ATOM     11  C   UNL     1      -4.091   1.411  24.553  0.00  0.00    +0.154 A 
ATOM     16  C   UNL     1      -4.348   0.634  24.449  0.00  0.00    +0.054 A 
BRANCH  11  12
ATOM     12  C   UNL     1      -4.556   2.090  24.483  0.00  0.00    +0.067 C 
BRANCH  12  13
ATOM     13  C   UNL     1      -4.199   2.833  24.452  0.00  0.00    +0.008 C 
ATOM     14  C   UNL     1      -4.132   3.287  25.137  0.00  0.00    +0.000 C 
ATOM     15  C   UNL     1      -3.908   3.121  23.736  0.00  0.00    +0.000 C 
ENDBRANCH  12  13
ENDBRANCH  11  12
ENDBRANCH   7   8
BRANCH   7   6
ATOM      6  C   UNL     1      -3.532  -1.144  25.186  0.00  0.00    +0.106 C 
ATOM     17  C   UNL     1      -3.350  -1.598  25.850  0.00  0.00    +0.160 C 
ATOM     18  O   UNL     1      -3.657  -1.008  26.339  0.00  0.00    -0.351 OA
ATOM     19  C   UNL     1      -3.839  -0.554  25.674  0.00  0.00    +0.160 C 
BRANCH   6   3
ATOM      3  N   UNL     1      -3.225  -1.733  24.698  0.00  0.00    -0.271 NA
BRANCH   3   2
ATOM      1  C   UNL     1      -3.748  -2.938  24.135  0.00  0.00    +0.019 C 
ATOM      2  C   UNL     1      -3.712  -2.114  24.153  0.00  0.00    +0.072 C 
ENDBRANCH   3   2
BRANCH   3   4
ATOM      4  C   UNL     1      -2.428  -1.942  24.755  0.00  0.00    +0.072 C 
ATOM      5  C   UNL     1      -2.093  -2.451  24.198  0.00  0.00    +0.019 C 
ENDBRANCH   3   4
ENDBRANCH   6   3
ENDBRANCH   7   6
TORSDOF 7
ENDMDL
MODEL 4
REMARK VINA RESULT:      -7.8      2.610      3.266
REMARK  Name = 
REMARK  7 active torsions:
REMARK  status: ('A' for Active; 'I' for Inactive)
REMARK    1  A    between atoms: C_2  and  N_3
REMARK    2  A    between atoms: N_3  and  C_4
REMARK    3  A    between atoms: N_3  and  C_6
REMARK    4  A    between atoms: C_6  and  C_7
REMARK    5  A    between atoms: C_7  and  C_8
REMARK    6  A    between atoms: C_11  and  C_12
REMARK    7  A    between atoms: C_12  and  C_13
REMARK                            x       y       z     vdW  Elec       q    Type
REMARK                         _______ _______ _______ _____ _____    ______ ____
ROOT
ATOM      7  C   UNL     1      -1.159   0.376  25.476  0.00  0.00    +0.069 C 
ENDROOT
BRANCH   7   8
ATOM      8  C   UNL     1      -1.598  -0.318  25.393  0.00  0.00    +0.102 A 
ATOM      9  N   UNL     1      -1.292  -1.073  25.263  0.00  0.00    -0.082 NA
ATOM     10  O   UNL     1      -1.925  -1.600  25.215  0.00  0.00    -0.358 OA
ATOM     11  C   UNL     1      -2.622  -1.170  25.315  0.00  0.00    +0.154 A 
ATOM     16  C   UNL     1      -2.420  -0.378  25.425  0.00  0.00    +0.054 A 
BRANCH  11  12
ATOM     12  C   UNL     1      -3.388  -1.479  25.307  0.00  0.00    +0.067 C 
BRANCH  12  13
ATOM     13  C   UNL     1      -3.681  -1.835  24.623  0.00  0.00    +0.008 C 
ATOM     14  C   UNL     1      -4.108  -1.390  24.076  0.00  0.00    +0.000 C 
ATOM     15  C   UNL     1      -3.546  -2.638  24.487  0.00  0.00    +0.000 C 
ENDBRANCH  12  13
ENDBRANCH  11  12
ENDBRANCH   7   8
BRANCH   7   6
ATOM      6  C   UNL     1      -0.784   0.707  24.820  0.00  0.00    +0.106 C 
ATOM     17  C   UNL     1      -0.410   1.039  24.164  0.00  0.00    +0.160 C 
ATOM     18  O   UNL     1      -0.283   0.285  23.855  0.00  0.00    -0.351 OA
ATOM     19  C   UNL     1      -0.657  -0.046  24.511  0.00  0.00    +0.160 C 
BRANCH   6   3
ATOM      3  N   UNL     1      -0.912   1.462  25.130  0.00  0.00    -0.271 NA
BRANCH   3   2
ATOM      1  C   UNL     1      -1.675   2.669  25.116  0.00  0.00    +0.019 C 
ATOM      2  C   UNL     1      -1.395   1.996  24.730  0.00  0.00    +0.072 C 
ENDBRANCH   3   2
BRANCH   3   4
ATOM      4  C   UNL     1      -0.554   1.680  25.841  0.00  0.00    +0.072 C 
ATOM      5  C   UNL     1      -0.168   2.407  25.903  0.00  0.00    +0.019 C 
ENDBRANCH   3   4
ENDBRANCH   6   3
ENDBRANCH   7   6
TORSDOF 7
ENDMDL
