MODEL 1
REMARK VINA RESULT:     -14.8      0.000      0.000
REMARK  Name = 
REMARK  3 active torsions:
REMARK  status: ('A' for Active; 'I' for Inactive)
REMARK    1  A    between atoms: N_3  and  C_4
REMARK    2  A    between atoms: C_6  and  C_10
REMARK    3  A    between atoms: C_21  and  C_22
REMARK                            x       y       z     vdW  Elec       q    Type
REMARK                         _______ _______ _______ _____ _____    ______ ____
ROOT
ATOM      1  O   UNL     1      -2.703  -0.004  24.421  0.00  0.00    -0.250 OA
ATOM      2  C   UNL     1      -3.476  -0.148  24.168  0.00  0.00    +0.327 C 
ATOM      3  N   UNL     1      -3.951   0.478  23.918  0.00  0.00    -0.162 NA
ATOM     12  N   UNL     1      -3.772  -0.918  24.166  0.00  0.00    -0.262 N 
ATOM     13  C   UNL     1      -4.316  -1.543  24.057  0.00  0.00    +0.097 C 
ATOM     14  C   UNL     1      -3.756  -2.302  24.354  0.00  0.00    +0.043 C 
ATOM     15  C   UNL     1      -3.433  -3.020  24.563  0.00  0.00    +0.011 C 
ATOM     16  C   UNL     1      -3.234  -2.347  24.544  0.00  0.00    +0.058 C 
ATOM     17  C   UNL     1      -3.787  -1.625  24.254  0.00  0.00    +0.101 C 
ATOM     18  C   UNL     1      -2.516  -1.803  24.725  0.00  0.00    +0.041 A 
ATOM     19  C   UNL     1      -1.740  -1.837  25.002  0.00  0.00    +0.013 A 
ATOM     20  C   UNL     1      -1.295  -1.146  25.067  0.00  0.00    +0.009 A 
ATOM     21  C   UNL     1      -1.625  -0.420  24.855  0.00  0.00    +0.091 A 
ATOM     27  C   UNL     1      -2.401  -0.386  24.578  0.00  0.00    +0.264 A 
ATOM     28  O   UNL     1      -2.498   0.421  24.437  0.00  0.00    -0.267 OA
ATOM     29  N   UNL     1      -2.846  -1.077  24.512  0.00  0.00    -0.299 N 
ATOM     30  C   UNL     1      -3.012  -1.725  24.540  0.00  0.00    +0.110 C 
ENDROOT
BRANCH   3   4
ATOM      4  C   UNL     1      -3.655   1.248  23.920  0.00  0.00    +0.076 A 
ATOM      5  C   UNL     1      -3.819   1.751  24.554  0.00  0.00    +0.027 A 
ATOM      6  C   UNL     1      -3.522   2.521  24.555  0.00  0.00    +0.070 A 
ATOM      7  C   UNL     1      -3.062   2.788  23.924  0.00  0.00    +0.010 A 
ATOM      8  C   UNL     1      -2.898   2.285  23.292  0.00  0.00    +0.002 A 
ATOM      9  C   UNL     1      -3.194   1.515  23.289  0.00  0.00    +0.017 A 
BRANCH   6  10
ATOM     10  C   UNL     1      -3.686   3.025  25.189  0.00  0.00    +0.100 C 
ATOM     11  N   UNL     1      -3.851   3.527  25.821  0.00  0.00    -0.191 NA
ENDBRANCH   6  10
ENDBRANCH   3   4
BRANCH  21  22
ATOM     22  C   UNL     1      -1.179   0.271  24.920  0.00  0.00    +0.150 A 
ATOM     23  C   UNL     1      -1.070   0.714  25.608  0.00  0.00    +0.041 A 
ATOM     24  C   UNL     1      -0.588   1.356  25.424  0.00  0.00    +0.044 A 
ATOM     25  C   UNL     1      -0.399   1.311  24.621  0.00  0.00    +0.180 A 
ATOM     26  O   UNL     1      -0.764   0.640  24.311  0.00  0.00    -0.450 OA
ENDBRANCH  21  22
TORSDOF 3
ENDMDL
MODEL 2
REMARK VINA RESULT:     -14.6      0.973      2.433
REMARK  Name = 
REMARK  3 active torsions:
REMARK  status: ('A' for Active; 'I' for Inactive)
REMARK    1  A    between atoms: N_3  and  C_4
REMARK    2  A    between atoms: C_6  and  C_10
REMARK    3  A    between atoms: C_21  and  C_22
REMARK                            x       y       z     vdW  Elec       q    Type
REMARK                         _______ _______ _______ _____ _____    ______ ____
ROOT
ATOM      1  O   UNL     1      -2.338  -0.063  24.427  0.00  0.00    -0.250 OA
ATOM      2  C   UNL     1      -1.777  -0.648  24.584  0.00  0.00    +0.327 C 
ATOM      3  N   UNL     1      -0.983  -0.446  24.672  0.00  0.00    -0.162 NA
ATOM     12  N   UNL     1      -2.012  -1.437  24.654  0.00  0.00    -0.262 N 
ATOM     13  C   UNL     1      -1.948  -2.261  24.771  0.00  0.00    +0.097 C 
ATOM     14  C   UNL     1      -2.896  -2.518  24.668  0.00  0.00    +0.043 C 
ATOM     15  C   UNL     1      -3.620  -2.886  24.612  0.00  0.00    +0.011 C 
ATOM     16  C   UNL     1      -3.365  -2.234  24.564  0.00  0.00    +0.058 C 
ATOM     17  C   UNL     1      -2.444  -2.002  24.665  0.00  0.00    +0.101 C 
ATOM     18  C   UNL     1      -3.628  -1.367  24.412  0.00  0.00    +0.041 A 
ATOM     19  C   UNL     1      -4.303  -0.920  24.257  0.00  0.00    +0.013 A 
ATOM     20  C   UNL     1      -4.244  -0.103  24.158  0.00  0.00    +0.009 A 
ATOM     21  C   UNL     1      -3.509   0.267  24.216  0.00  0.00    +0.091 A 
ATOM     27  C   UNL     1      -2.833  -0.180  24.371  0.00  0.00    +0.264 A 
ATOM     28  O   UNL     1      -2.244   0.397  24.380  0.00  0.00    -0.267 OA
ATOM     29  N   UNL     1      -2.893  -0.997  24.469  0.00  0.00    -0.299 N 
ATOM     30  C   UNL     1      -3.161  -1.608  24.511  0.00  0.00    +0.110 C 
ENDROOT
BRANCH   3   4
ATOM      4  C   UNL     1      -0.748   0.343  24.602  0.00  0.00    +0.076 A 
ATOM      5  C   UNL     1      -0.667   0.810  25.278  0.00  0.00    +0.027 A 
ATOM      6  C   UNL     1      -0.433   1.598  25.208  0.00  0.00    +0.070 A 
ATOM      7  C   UNL     1      -0.279   1.919  24.462  0.00  0.00    +0.010 A 
ATOM      8  C   UNL     1      -0.360   1.451  23.788  0.00  0.00    +0.002 A 
ATOM      9  C   UNL     1      -0.594   0.663  23.857  0.00  0.00    +0.017 A 
BRANCH   6  10
ATOM     10  C   UNL     1      -0.352   2.066  25.883  0.00  0.00    +0.100 C 
ATOM     11  N   UNL     1      -0.270   2.533  26.557  0.00  0.00    -0.191 NA
ENDBRANCH   6  10
ENDBRANCH   3   4
BRANCH  21  22
ATOM     22  C   UNL     1      -3.450   1.083  24.117  0.00  0.00    +0.150 A 
ATOM     23  C   UNL     1      -3.609   1.654  24.692  0.00  0.00    +0.041 A 
ATOM     24  C   UNL     1      -3.480   2.396  24.358  0.00  0.00    +0.044 A 
ATOM     25  C   UNL     1      -3.240   2.285  23.576  0.00  0.00    +0.180 A 
ATOM     26  O   UNL     1      -3.222   1.474  23.427  0.00  0.00    -0.450 OA
ENDBRANCH  21  22
TORSDOF 3
ENDMDL
MODEL 3
REMARK VINA RESULT:     -14.5      1.729      4.610
REMARK  Name = 
REMARK  3 active torsions:
REMARK  status: ('A' for Active; 'I' for Inactive)
REMARK    1  A    between atoms: N_3  and  C_4
REMARK    2  A    between atoms: C_6  and  C_10
REMARK    3  A    between atoms: C_21  and  C_22
REMARK                            x       y       z     vdW  Elec       q    Type
REMARK                         _______ _______ _______ _____ _____    ______ ____
ROOT
ATOM      1  O   UNL     1      -3.191   2.310  24.888  0.00  0.00    -0.250 OA
ATOM      2  C   UNL     1      -2.396   2.162  24.721  0.00  0.00    +0.327 C 
ATOM      3  N   UNL     1      -2.158   1.411  24.477  0.00  0.00    -0.162 NA
ATOM     12  N   UNL     1      -1.839   2.766  24.800  0.00  0.00    -0.262 N 
ATOM     13  C   UNL     1      -1.095   3.146  24.788  0.00  0.00    +0.097 C 
ATOM     14  C   UNL     1      -1.367   4.050  25.080  0.00  0.00    +0.043 C 
ATOM     15  C   UNL     1      -1.425   4.831  25.304  0.00  0.00    +0.011 C 
ATOM     16  C   UNL     1      -1.854   4.282  25.220  0.00  0.00    +0.058 C 
ATOM     17  C   UNL     1      -1.576   3.414  24.937  0.00  0.00    +0.101 C 
ATOM     18  C   UNL     1      -2.737   4.040  25.293  0.00  0.00    +0.041 A 
ATOM     19  C   UNL     1      -3.473   4.354  25.495  0.00  0.00    +0.013 A 
ATOM     20  C   UNL     1      -4.146   3.877  25.470  0.00  0.00    +0.009 A 
ATOM     21  C   UNL     1      -4.083   3.086  25.242  0.00  0.00    +0.091 A 
ATOM     27  C   UNL     1      -3.347   2.772  25.040  0.00  0.00    +0.264 A 
ATOM     28  O   UNL     1      -3.538   1.992  24.855  0.00  0.00    -0.267 OA
ATOM     29  N   UNL     1      -2.675   3.249  25.065  0.00  0.00    -0.299 N 
ATOM     30  C   UNL     1      -2.287   3.788  25.153  0.00  0.00    +0.110 C 
ENDROOT
BRANCH   3   4
ATOM      4  C   UNL     1      -2.715   0.807  24.398  0.00  0.00    +0.076 A 
ATOM      5  C   UNL     1      -2.824   0.264  25.011  0.00  0.00    +0.027 A 
ATOM      6  C   UNL     1      -3.381  -0.339  24.931  0.00  0.00    +0.070 A 
ATOM      7  C   UNL     1      -3.829  -0.400  24.240  0.00  0.00    +0.010 A 
ATOM      8  C   UNL     1      -3.719   0.143  23.629  0.00  0.00    +0.002 A 
ATOM      9  C   UNL     1      -3.163   0.746  23.707  0.00  0.00    +0.017 A 
BRANCH   6  10
ATOM     10  C   UNL     1      -3.491  -0.882  25.544  0.00  0.00    +0.100 C 
ATOM     11  N   UNL     1      -3.599  -1.424  26.155  0.00  0.00    -0.191 NA
ENDBRANCH   6  10
ENDBRANCH   3   4
BRANCH  21  22
ATOM     22  C   UNL     1      -4.756   2.610  25.217  0.00  0.00    +0.150 A 
ATOM     23  C   UNL     1      -5.117   2.247  25.864  0.00  0.00    +0.041 A 
ATOM     24  C   UNL     1      -5.770   1.826  25.589  0.00  0.00    +0.044 A 
ATOM     25  C   UNL     1      -5.813   1.928  24.771  0.00  0.00    +0.180 A 
ATOM     26  O   UNL     1      -5.186   2.413  24.542  0.00  0.00    -0.450 OA
ENDBRANCH  21  22
TORSDOF 3
ENDMDL
MODEL 4
REMARK VINA RESULT:     -14.2      1.091      3.666
REMARK  Name = 
REMARK  3 active torsions:
REMARK  status: ('A' for Active; 'I' for Inactive)
REMARK    1  A    between atoms: N_3  and  C_4
REMARK    2  A    between atoms: C_6  and  C_10
REMARK    3  A    between atoms: C_21  and  C_22
REMARK                            x       y       z     vdW  Elec       q    Type
REMARK                         _______ _______ _______ _____ _____    ______ ____
ROOT
ATOM      1  O   UNL     1      -3.068   0.817  24.719  0.00  0.00    -0.250 OA
ATOM      2  C   UNL     1      -3.881   0.942  24.784  0.00  0.00    +0.327 C 
ATOM      3  N   UNL     1      -4.379   0.320  24.997  0.00  0.00    -0.162 NA
ATOM     12  N   UNL     1      -4.197   1.690  24.635  0.00  0.00    -0.262 N 
ATOM     13  C   UNL     1      -4.771   2.291  24.553  0.00  0.00    +0.097 C 
ATOM     14  C   UNL     1      -4.187   3.045  24.297  0.00  0.00    +0.043 C 
ATOM     15  C   UNL     1      -3.850   3.755  24.081  0.00  0.00    +0.011 C 
ATOM     16  C   UNL     1      -3.637   3.100  24.219  0.00  0.00    +0.058 C 
ATOM     17  C   UNL     1      -4.216   2.382  24.465  0.00  0.00    +0.101 C 
ATOM     18  C   UNL     1      -2.879   2.582  24.259  0.00  0.00    +0.041 A 
ATOM     19  C   UNL     1      -2.063   2.632  24.151  0.00  0.00    +0.013 A 
ATOM     20  C   UNL     1      -1.591   1.964  24.261  0.00  0.00    +0.009 A 
ATOM     21  C   UNL     1      -1.936   1.247  24.480  0.00  0.00    +0.091 A 
ATOM     27  C   UNL     1      -2.752   1.197  24.588  0.00  0.00    +0.264 A 
ATOM     28  O   UNL     1      -2.850   0.405  24.796  0.00  0.00    -0.267 OA
ATOM     29  N   UNL     1      -3.224   1.865  24.477  0.00  0.00    -0.299 N 
ATOM     30  C   UNL     1      -3.400   2.496  24.341  0.00  0.00    +0.110 C 
ENDROOT
BRANCH   3   4
ATOM      4  C   UNL     1      -4.063  -0.428  25.146  0.00  0.00    +0.076 A 
ATOM      5  C   UNL     1      -4.081  -1.008  24.559  0.00  0.00    +0.027 A 
ATOM      6  C   UNL     1      -3.766  -1.755  24.708  0.00  0.00    +0.070 A 
ATOM      7  C   UNL     1      -3.432  -1.923  25.444  0.00  0.00    +0.010 A 
ATOM      8  C   UNL     1      -3.414  -1.344  26.030  0.00  0.00    +0.002 A 
ATOM      9  C   UNL     1      -3.729  -0.596  25.882  0.00  0.00    +0.017 A 
BRANCH   6  10
ATOM     10  C   UNL     1      -3.784  -2.335  24.121  0.00  0.00    +0.100 C 
ATOM     11  N   UNL     1      -3.802  -2.915  23.535  0.00  0.00    -0.191 NA
ENDBRANCH   6  10
ENDBRANCH   3   4
BRANCH  21  22
ATOM     22  C   UNL     1      -1.463   0.580  24.590  0.00  0.00    +0.150 A 
ATOM     23  C   UNL     1      -1.069   0.375  25.285  0.00  0.00    +0.041 A 
ATOM     24  C   UNL     1      -0.664  -0.330  25.151  0.00  0.00    +0.044 A 
ATOM     25  C   UNL     1      -0.808  -0.562  24.372  0.00  0.00    +0.180 A 
ATOM     26  O   UNL     1      -1.302   0.001  24.026  0.00  0.00    -0.450 OA
ENDBRANCH  21  22
TORSDOF 3
ENDMDL
MODEL 5
REMARK VINA RESULT:     -14.2      1.539      3.138
REMARK  Name = 
REMARK  3 active torsions:
REMARK  status: ('A' for Active; 'I' for Inactive)
REMARK    1  A    between atoms: N_3  and  C_4
REMARK    2  A    between atoms: C_6  and  C_10
REMARK    3  A    between atoms: C_21  and  C_22
REMARK                            x       y       z     vdW  Elec       q    Type
REMARK                         _______ _______ _______ _____ _____    ______ ____
ROOT
ATOM      1  O   UNL     1      -2.867   1.500  24.860  0.00  0.00    -0.250 OA
ATOM      2  C   UNL     1      -3.105   2.290  24.827  0.00  0.00    +0.327 C 
ATOM      3  N   UNL     1      -2.541   2.888  24.763  0.00  0.00    -0.162 NA
ATOM     12  N   UNL     1      -3.907   2.481  24.857  0.00  0.00    -0.262 N 
ATOM     13  C   UNL     1      -4.595   2.955  24.866  0.00  0.00    +0.097 C 
ATOM     14  C   UNL     1      -5.282   2.248  24.942  0.00  0.00    +0.043 C 
ATOM     15  C   UNL     1      -5.956   1.796  25.004  0.00  0.00    +0.011 C 
ATOM     16  C   UNL     1      -5.263   1.692  24.974  0.00  0.00    +0.058 C 
ATOM     17  C   UNL     1      -4.612   2.386  24.900  0.00  0.00    +0.101 C 
ATOM     18  C   UNL     1      -4.634   1.022  24.980  0.00  0.00    +0.041 A 
ATOM     19  C   UNL     1      -4.573   0.200  25.025  0.00  0.00    +0.013 A 
ATOM     20  C   UNL     1      -3.831  -0.160  25.007  0.00  0.00    +0.009 A 
ATOM     21  C   UNL     1      -3.150   0.301  24.945  0.00  0.00    +0.091 A 
ATOM     27  C   UNL     1      -3.210   1.123  24.900  0.00  0.00    +0.264 A 
ATOM     28  O   UNL     1      -2.420   1.351  24.846  0.00  0.00    -0.267 OA
ATOM     29  N   UNL     1      -3.952   1.483  24.918  0.00  0.00    -0.299 N 
ATOM     30  C   UNL     1      -4.617   1.555  24.948  0.00  0.00    +0.110 C 
ENDROOT
BRANCH   3   4
ATOM      4  C   UNL     1      -1.738   2.697  24.732  0.00  0.00    +0.076 A 
ATOM      5  C   UNL     1      -1.285   2.706  25.422  0.00  0.00    +0.027 A 
ATOM      6  C   UNL     1      -0.483   2.515  25.391  0.00  0.00    +0.070 A 
ATOM      7  C   UNL     1      -0.134   2.314  24.670  0.00  0.00    +0.010 A 
ATOM      8  C   UNL     1      -0.587   2.305  23.981  0.00  0.00    +0.002 A 
ATOM      9  C   UNL     1      -1.389   2.496  24.011  0.00  0.00    +0.017 A 
BRANCH   6  10
ATOM     10  C   UNL     1      -0.030   2.524  26.081  0.00  0.00    +0.100 C 
ATOM     11  N   UNL     1       0.423   2.533  26.769  0.00  0.00    -0.191 NA
ENDBRANCH   6  10
ENDBRANCH   3   4
BRANCH  21  22
ATOM     22  C   UNL     1      -2.409  -0.059  24.927  0.00  0.00    +0.150 A 
ATOM     23  C   UNL     1      -1.984  -0.327  25.582  0.00  0.00    +0.041 A 
ATOM     24  C   UNL     1      -1.275  -0.649  25.313  0.00  0.00    +0.044 A 
ATOM     25  C   UNL     1      -1.260  -0.581  24.490  0.00  0.00    +0.180 A 
ATOM     26  O   UNL     1      -1.961  -0.217  24.253  0.00  0.00    -0.450 OA
ENDBRANCH  21  22
TORSDOF 3
ENDMDL
MODEL 6
REMARK VINA RESULT:     -13.6      1.367      4.086
REMARK  Name = 
REMARK  3 active torsions:
REMARK  status: ('A' for Active; 'I' for Inactive)
REMARK    1  A    between atoms: N_3  and  C_4
REMARK    2  A    between atoms: C_6  and  C_10
REMARK    3  A    between atoms: C_21  and  C_22
REMARK                            x       y       z     vdW  Elec       q    Type
REMARK                         _______ _______ _______ _____ _____    ______ ____
ROOT
ATOM      1  O   UNL     1      -2.970   1.059  24.979  0.00  0.00    -0.250 OA
ATOM      2  C   UNL     1      -2.496   1.723  25.108  0.00  0.00    +0.327 C 
ATOM      3  N   UNL     1      -1.684   1.635  25.218  0.00  0.00    -0.162 NA
ATOM     12  N   UNL     1      -2.837   2.475  25.129  0.00  0.00    -0.262 N 
ATOM     13  C   UNL     1      -2.886   3.306  25.198  0.00  0.00    +0.097 C 
ATOM     14  C   UNL     1      -3.859   3.425  25.069  0.00  0.00    +0.043 C 
ATOM     15  C   UNL     1      -4.625   3.688  24.982  0.00  0.00    +0.011 C 
ATOM     16  C   UNL     1      -4.283   3.075  24.975  0.00  0.00    +0.058 C 
ATOM     17  C   UNL     1      -3.341   2.977  25.102  0.00  0.00    +0.101 C 
ATOM     18  C   UNL     1      -4.423   2.173  24.871  0.00  0.00    +0.041 A 
ATOM     19  C   UNL     1      -5.029   1.631  24.734  0.00  0.00    +0.013 A 
ATOM     20  C   UNL     1      -4.858   0.825  24.684  0.00  0.00    +0.009 A 
ATOM     21  C   UNL     1      -4.080   0.562  24.772  0.00  0.00    +0.091 A 
ATOM     27  C   UNL     1      -3.475   1.104  24.910  0.00  0.00    +0.264 A 
ATOM     28  O   UNL     1      -2.813   0.614  24.960  0.00  0.00    -0.267 OA
ATOM     29  N   UNL     1      -3.646   1.910  24.959  0.00  0.00    -0.299 N 
ATOM     30  C   UNL     1      -3.995   2.481  24.962  0.00  0.00    +0.110 C 
ENDROOT
BRANCH   3   4
ATOM      4  C   UNL     1      -1.343   0.884  25.198  0.00  0.00    +0.076 A 
ATOM      5  C   UNL     1      -0.960   0.623  24.515  0.00  0.00    +0.027 A 
ATOM      6  C   UNL     1      -0.620  -0.129  24.495  0.00  0.00    +0.070 A 
ATOM      7  C   UNL     1      -0.663  -0.619  25.158  0.00  0.00    +0.010 A 
ATOM      8  C   UNL     1      -1.047  -0.358  25.839  0.00  0.00    +0.002 A 
ATOM      9  C   UNL     1      -1.387   0.393  25.860  0.00  0.00    +0.017 A 
BRANCH   6  10
ATOM     10  C   UNL     1      -0.236  -0.390  23.813  0.00  0.00    +0.100 C 
ATOM     11  N   UNL     1       0.148  -0.650  23.131  0.00  0.00    -0.191 NA
ENDBRANCH   6  10
ENDBRANCH   3   4
BRANCH  21  22
ATOM     22  C   UNL     1      -3.910  -0.243  24.722  0.00  0.00    +0.150 A 
ATOM     23  C   UNL     1      -3.816  -0.677  24.027  0.00  0.00    +0.041 A 
ATOM     24  C   UNL     1      -3.652  -1.458  24.232  0.00  0.00    +0.044 A 
ATOM     25  C   UNL     1      -3.645  -1.508  25.056  0.00  0.00    +0.180 A 
ATOM     26  O   UNL     1      -3.804  -0.757  25.359  0.00  0.00    -0.450 OA
ENDBRANCH  21  22
TORSDOF 3
ENDMDL
MODEL 7
REMARK VINA RESULT:     -13.6      1.933      3.911
REMARK  Name = 
REMARK  3 active torsions:
REMARK  status: ('A' for Active; 'I' for Inactive)
REMARK    1  A    between atoms: N_3  and  C_4
REMARK    2  A    between atoms: C_6  and  C_10
REMARK    3  A    between atoms: C_21  and  C_22
REMARK                            x       y       z     vdW  Elec       q    Type
REMARK                         _______ _______ _______ _____ _____    ______ ____
ROOT
ATOM      1  O   UNL     1      -2.953   2.445  24.905  0.00  0.00    -0.250 OA
ATOM      2  C   UNL     1      -3.542   1.962  24.586  0.00  0.00    +0.327 C 
ATOM      3  N   UNL     1      -3.336   1.313  24.122  0.00  0.00    -0.162 NA
ATOM     12  N   UNL     1      -4.337   2.130  24.732  0.00  0.00    -0.262 N 
ATOM     13  C   UNL     1      -5.168   2.049  24.704  0.00  0.00    +0.097 C 
ATOM     14  C   UNL     1      -5.429   2.824  25.258  0.00  0.00    +0.043 C 
ATOM     15  C   UNL     1      -5.802   3.410  25.684  0.00  0.00    +0.011 C 
ATOM     16  C   UNL     1      -5.144   3.221  25.528  0.00  0.00    +0.058 C 
ATOM     17  C   UNL     1      -4.908   2.468  24.989  0.00  0.00    +0.101 C 
ATOM     18  C   UNL     1      -4.270   3.467  25.670  0.00  0.00    +0.041 A 
ATOM     19  C   UNL     1      -3.822   4.040  26.058  0.00  0.00    +0.013 A 
ATOM     20  C   UNL     1      -2.998   4.018  26.014  0.00  0.00    +0.009 A 
ATOM     21  C   UNL     1      -2.624   3.423  25.582  0.00  0.00    +0.091 A 
ATOM     27  C   UNL     1      -3.072   2.850  25.194  0.00  0.00    +0.264 A 
ATOM     28  O   UNL     1      -2.489   2.383  24.845  0.00  0.00    -0.267 OA
ATOM     29  N   UNL     1      -3.896   2.872  25.239  0.00  0.00    -0.299 N 
ATOM     30  C   UNL     1      -4.513   3.073  25.402  0.00  0.00    +0.110 C 
ENDROOT
BRANCH   3   4
ATOM      4  C   UNL     1      -2.541   1.146  23.976  0.00  0.00    +0.076 A 
ATOM      5  C   UNL     1      -2.148   0.579  24.431  0.00  0.00    +0.027 A 
ATOM      6  C   UNL     1      -1.354   0.413  24.285  0.00  0.00    +0.070 A 
ATOM      7  C   UNL     1      -0.951   0.811  23.684  0.00  0.00    +0.010 A 
ATOM      8  C   UNL     1      -1.344   1.377  23.230  0.00  0.00    +0.002 A 
ATOM      9  C   UNL     1      -2.139   1.544  23.375  0.00  0.00    +0.017 A 
BRANCH   6  10
ATOM     10  C   UNL     1      -0.961  -0.153  24.740  0.00  0.00    +0.100 C 
ATOM     11  N   UNL     1      -0.570  -0.719  25.194  0.00  0.00    -0.191 NA
ENDBRANCH   6  10
ENDBRANCH   3   4
BRANCH  21  22
ATOM     22  C   UNL     1      -1.800   3.402  25.539  0.00  0.00    +0.150 A 
ATOM     23  C   UNL     1      -1.331   3.833  25.014  0.00  0.00    +0.041 A 
ATOM     24  C   UNL     1      -0.543   3.645  25.162  0.00  0.00    +0.044 A 
ATOM     25  C   UNL     1      -0.523   3.097  25.779  0.00  0.00    +0.180 A 
ATOM     26  O   UNL     1      -1.301   2.947  26.011  0.00  0.00    -0.450 OA
ENDBRANCH  21  22
TORSDOF 3
ENDMDL
