REMARK  Name = 
REMARK  5 active torsions:
REMARK  status: ('A' for Active; 'I' for Inactive)
REMARK    1  A    between atoms: O_2  and  C_3
REMARK    2  A    between atoms: C_6  and  C_7
REMARK    3  A    between atoms: C_7  and  N_8
REMARK    4  A    between atoms: C_13  and  C_14
REMARK    5  A    between atoms: C_16  and  C_19
REMARK                            x       y       z     vdW  Elec       q    Type
REMARK                         _______ _______ _______ _____ _____    ______ ____
ROOT
ATOM      8  N   UNL     1       0.000   0.000   0.000  0.00  0.00    -0.260 NA
ATOM      9  C   UNL     1       0.000   0.825   0.000  0.00  0.00    +0.105 C 
ATOM     10  C   UNL     1       0.715   1.238   0.000  0.00  0.00    +0.160 C 
ATOM     11  O   UNL     1       1.429   0.825   0.000  0.00  0.00    -0.350 OA
ATOM     12  C   UNL     1       1.429   0.000   0.000  0.00  0.00    +0.166 C 
ATOM     13  C   UNL     1       0.715  -0.412   0.000  0.00  0.00    +0.147 C 
ENDROOT
BRANCH  13  14
ATOM     14  C   UNL     1       0.715  -1.238   0.000  0.00  0.00    +0.156 A 
ATOM     15  N   UNL     1       1.382  -1.722   0.000  0.00  0.00    -0.228 NA
ATOM     16  C   UNL     1       1.127  -2.507   0.000  0.00  0.00    +0.102 A 
ATOM     17  C   UNL     1       0.302  -2.507   0.000  0.00  0.00    +0.119 A 
ATOM     18  N   UNL     1       0.047  -1.722   0.000  0.00  0.00    -0.226 NA
BRANCH  16  19
ATOM     19  C   UNL     1       1.612  -3.175   0.000  0.00  0.00    +0.020 A 
ATOM     20  C   UNL     1       2.432  -3.088   0.000  0.00  0.00    +0.002 A 
ATOM     21  C   UNL     1       2.917  -3.756   0.000  0.00  0.00    +0.001 A 
ATOM     22  C   UNL     1       2.582  -4.509   0.000  0.00  0.00    +0.011 A 
ATOM     23  C   UNL     1       1.761  -4.596   0.000  0.00  0.00    +0.058 A 
ATOM     24 CL   UNL     1       1.426  -5.349   0.000  0.00  0.00    -0.082 Cl
ATOM     25  C   UNL     1       1.276  -3.928   0.000  0.00  0.00    +0.013 A 
ENDBRANCH  16  19
ENDBRANCH  13  14
BRANCH   8   7
ATOM      7  C   UNL     1      -0.715  -0.412   0.000  0.00  0.00    +0.100 C 
BRANCH   7   6
ATOM      3  C   UNL     1      -2.858   0.825   0.000  0.00  0.00    +0.139 A 
ATOM      4  C   UNL     1      -2.143   1.238   0.000  0.00  0.00    +0.037 A 
ATOM      5  C   UNL     1      -1.429   0.825   0.000  0.00  0.00    +0.000 A 
ATOM      6  C   UNL     1      -1.429   0.000   0.000  0.00  0.00    -0.006 A 
ATOM     26  C   UNL     1      -2.143  -0.412   0.000  0.00  0.00    +0.000 A 
ATOM     27  C   UNL     1      -2.858   0.000   0.000  0.00  0.00    +0.037 A 
BRANCH   3   2
ATOM      1  C   UNL     1      -4.287   0.825   0.000  0.00  0.00    +0.252 C 
ATOM      2  O   UNL     1      -3.572   1.238   0.000  0.00  0.00    -0.471 OA
ENDBRANCH   3   2
ENDBRANCH   7   6
ENDBRANCH   8   7
TORSDOF 5
