MODEL 1
REMARK VINA RESULT:     -14.0      0.000      0.000
REMARK  Name = 
REMARK  5 active torsions:
REMARK  status: ('A' for Active; 'I' for Inactive)
REMARK    1  A    between atoms: C_5  and  S_8
REMARK    2  A    between atoms: S_8  and  N_11
REMARK    3  A    between atoms: C_16  and  C_17
REMARK    4  A    between atoms: N_19  and  C_20
REMARK    5  A    between atoms: C_27  and  C_29
REMARK                            x       y       z     vdW  Elec       q    Type
REMARK                         _______ _______ _______ _____ _____    ______ ____
ROOT
ATOM     11  N   UNL     1      -4.161   0.600  24.935  0.00  0.00    -0.145 NA
ATOM     12  C   UNL     1      -4.877   0.888  25.229  0.00  0.00    +0.118 C 
ATOM     13  C   UNL     1      -4.960   1.693  25.392  0.00  0.00    +0.113 C 
ATOM     14  N   UNL     1      -4.329   2.209  25.262  0.00  0.00    -0.276 N 
ATOM     15  C   UNL     1      -3.615   1.919  24.968  0.00  0.00    +0.120 C 
ATOM     16  C   UNL     1      -3.531   1.115  24.805  0.00  0.00    +0.177 C 
ATOM     27  C   UNL     1      -4.413   3.012  25.425  0.00  0.00    +0.225 C 
ATOM     28  O   UNL     1      -5.128   3.301  25.719  0.00  0.00    -0.275 OA
ENDROOT
BRANCH  27  29
ATOM     29  C   UNL     1      -3.782   3.528  25.295  0.00  0.00    +0.077 C 
ATOM     30  C   UNL     1      -3.661   3.852  24.546  0.00  0.00    +0.009 C 
ATOM     31  C   UNL     1      -3.030   4.367  24.417  0.00  0.00    +0.000 C 
ATOM     32  C   UNL     1      -2.521   4.559  25.036  0.00  0.00    +0.000 C 
ATOM     33  C   UNL     1      -2.642   4.236  25.785  0.00  0.00    +0.000 C 
ATOM     34  C   UNL     1      -3.272   3.720  25.915  0.00  0.00    +0.009 C 
ENDBRANCH  27  29
BRANCH  11   8
ATOM      8  S   UNL     1      -4.077  -0.205  24.772  0.00  0.00    +0.064 S 
ATOM      9  O   UNL     1      -3.928  -0.352  25.570  0.00  0.00    -0.153 OA
ATOM     10  O   UNL     1      -4.227  -0.059  23.974  0.00  0.00    -0.153 OA
BRANCH   8   5
ATOM      1  F   UNL     1      -3.742  -3.423  24.119  0.00  0.00    -0.204 F 
ATOM      2  C   UNL     1      -3.826  -2.617  24.282  0.00  0.00    +0.140 A 
ATOM      3  C   UNL     1      -3.613  -2.323  25.023  0.00  0.00    +0.031 A 
ATOM      4  C   UNL     1      -3.697  -1.519  25.187  0.00  0.00    +0.022 A 
ATOM      5  C   UNL     1      -3.993  -1.010  24.609  0.00  0.00    +0.122 A 
ATOM      6  C   UNL     1      -4.206  -1.304  23.869  0.00  0.00    +0.022 A 
ATOM      7  C   UNL     1      -4.122  -2.109  23.705  0.00  0.00    +0.031 A 
ENDBRANCH   8   5
ENDBRANCH  11   8
BRANCH  16  17
ATOM     17  C   UNL     1      -2.815   0.826  24.512  0.00  0.00    +0.260 C 
ATOM     18  O   UNL     1      -2.787   0.478  23.763  0.00  0.00    -0.272 OA
ATOM     19  N   UNL     1      -2.129   0.885  24.965  0.00  0.00    -0.197 NA
BRANCH  19  20
ATOM     20  C   UNL     1      -1.414   0.597  24.671  0.00  0.00    +0.173 C 
ATOM     21  C   UNL     1      -1.240   0.664  23.868  0.00  0.00    +0.033 C 
ATOM     22  C   UNL     1      -0.525   0.376  23.576  0.00  0.00    +0.026 C 
ATOM     23  C   UNL     1       0.017   0.019  24.087  0.00  0.00    +0.115 C 
ATOM     24  N   UNL     1      -0.157  -0.048  24.890  0.00  0.00    -0.204 NA
ATOM     25  C   UNL     1      -0.872   0.240  25.183  0.00  0.00    +0.261 C 
ATOM     26  O   UNL     1      -1.047   0.173  25.986  0.00  0.00    -0.271 OA
ENDBRANCH  19  20
ENDBRANCH  16  17
TORSDOF 5
ENDMDL
MODEL 2
REMARK VINA RESULT:     -12.5      2.214      5.160
REMARK  Name = 
REMARK  5 active torsions:
REMARK  status: ('A' for Active; 'I' for Inactive)
REMARK    1  A    between atoms: C_5  and  S_8
REMARK    2  A    between atoms: S_8  and  N_11
REMARK    3  A    between atoms: C_16  and  C_17
REMARK    4  A    between atoms: N_19  and  C_20
REMARK    5  A    between atoms: C_27  and  C_29
REMARK                            x       y       z     vdW  Elec       q    Type
REMARK                         _______ _______ _______ _____ _____    ______ ____
ROOT
ATOM     11  N   UNL     1      -1.145   0.881  24.821  0.00  0.00    -0.145 NA
ATOM     12  C   UNL     1      -0.507   0.364  24.737  0.00  0.00    +0.118 C 
ATOM     13  C   UNL     1      -0.638  -0.449  24.693  0.00  0.00    +0.113 C 
ATOM     14  N   UNL     1      -1.407  -0.746  24.733  0.00  0.00    -0.276 N 
ATOM     15  C   UNL     1      -2.044  -0.229  24.817  0.00  0.00    +0.120 C 
ATOM     16  C   UNL     1      -1.913   0.584  24.861  0.00  0.00    +0.177 C 
ATOM     27  C   UNL     1      -1.538  -1.558  24.688  0.00  0.00    +0.225 C 
ATOM     28  O   UNL     1      -0.900  -2.076  24.604  0.00  0.00    -0.275 OA
ENDROOT
BRANCH  27  29
ATOM     29  C   UNL     1      -2.307  -1.856  24.728  0.00  0.00    +0.077 C 
ATOM     30  C   UNL     1      -2.652  -2.010  25.462  0.00  0.00    +0.009 C 
ATOM     31  C   UNL     1      -3.421  -2.307  25.500  0.00  0.00    +0.000 C 
ATOM     32  C   UNL     1      -3.844  -2.450  24.807  0.00  0.00    +0.000 C 
ATOM     33  C   UNL     1      -3.498  -2.296  24.074  0.00  0.00    +0.000 C 
ATOM     34  C   UNL     1      -2.730  -1.999  24.034  0.00  0.00    +0.009 C 
ENDBRANCH  27  29
BRANCH  11   8
ATOM      8  S   UNL     1      -1.014   1.695  24.866  0.00  0.00    +0.064 S 
ATOM      9  O   UNL     1      -1.044   1.655  25.689  0.00  0.00    -0.153 OA
ATOM     10  O   UNL     1      -0.984   1.735  24.042  0.00  0.00    -0.153 OA
BRANCH   8   5
ATOM      1  F   UNL     1      -0.490   4.948  25.043  0.00  0.00    -0.204 F 
ATOM      2  C   UNL     1      -0.621   4.134  24.999  0.00  0.00    +0.140 A 
ATOM      3  C   UNL     1      -0.617   3.755  24.265  0.00  0.00    +0.031 A 
ATOM      4  C   UNL     1      -0.748   2.942  24.221  0.00  0.00    +0.022 A 
ATOM      5  C   UNL     1      -0.883   2.508  24.910  0.00  0.00    +0.122 A 
ATOM      6  C   UNL     1      -0.886   2.887  25.642  0.00  0.00    +0.022 A 
ATOM      7  C   UNL     1      -0.755   3.700  25.687  0.00  0.00    +0.031 A 
ENDBRANCH   8   5
ENDBRANCH  11   8
BRANCH  16  17
ATOM     17  C   UNL     1      -2.552   1.100  24.946  0.00  0.00    +0.260 C 
ATOM     18  O   UNL     1      -2.624   1.558  25.630  0.00  0.00    -0.272 OA
ATOM     19  N   UNL     1      -3.116   1.160  24.348  0.00  0.00    -0.197 NA
BRANCH  19  20
ATOM     20  C   UNL     1      -3.755   1.676  24.433  0.00  0.00    +0.173 C 
ATOM     21  C   UNL     1      -4.132   1.750  25.162  0.00  0.00    +0.033 C 
ATOM     22  C   UNL     1      -4.770   2.266  25.245  0.00  0.00    +0.026 C 
ATOM     23  C   UNL     1      -5.030   2.709  24.599  0.00  0.00    +0.115 C 
ATOM     24  N   UNL     1      -4.653   2.635  23.870  0.00  0.00    -0.204 NA
ATOM     25  C   UNL     1      -4.015   2.119  23.786  0.00  0.00    +0.261 C 
ATOM     26  O   UNL     1      -3.637   2.045  23.056  0.00  0.00    -0.271 OA
ENDBRANCH  19  20
ENDBRANCH  16  17
TORSDOF 5
ENDMDL
MODEL 3
REMARK VINA RESULT:     -12.2      1.441      3.196
REMARK  Name = 
REMARK  5 active torsions:
REMARK  status: ('A' for Active; 'I' for Inactive)
REMARK    1  A    between atoms: C_5  and  S_8
REMARK    2  A    between atoms: S_8  and  N_11
REMARK    3  A    between atoms: C_16  and  C_17
REMARK    4  A    between atoms: N_19  and  C_20
REMARK    5  A    between atoms: C_27  and  C_29
REMARK                            x       y       z     vdW  Elec       q    Type
REMARK                         _______ _______ _______ _____ _____    ______ ____
ROOT
ATOM     11  N   UNL     1      -2.338   1.568  24.664  0.00  0.00    -0.145 NA
ATOM     12  C   UNL     1      -2.233   2.365  24.851  0.00  0.00    +0.118 C 
ATOM     13  C   UNL     1      -2.881   2.825  25.073  0.00  0.00    +0.113 C 
ATOM     14  N   UNL     1      -3.634   2.488  25.109  0.00  0.00    -0.276 N 
ATOM     15  C   UNL     1      -3.737   1.691  24.921  0.00  0.00    +0.120 C 
ATOM     16  C   UNL     1      -3.089   1.232  24.699  0.00  0.00    +0.177 C 
ATOM     27  C   UNL     1      -4.281   2.947  25.331  0.00  0.00    +0.225 C 
ATOM     28  O   UNL     1      -4.177   3.744  25.518  0.00  0.00    -0.275 OA
ENDROOT
BRANCH  27  29
ATOM     29  C   UNL     1      -5.033   2.611  25.366  0.00  0.00    +0.077 C 
ATOM     30  C   UNL     1      -5.467   2.496  24.674  0.00  0.00    +0.009 C 
ATOM     31  C   UNL     1      -6.220   2.160  24.711  0.00  0.00    +0.000 C 
ATOM     32  C   UNL     1      -6.538   1.938  25.438  0.00  0.00    +0.000 C 
ATOM     33  C   UNL     1      -6.104   2.052  26.130  0.00  0.00    +0.000 C 
ATOM     34  C   UNL     1      -5.352   2.389  26.095  0.00  0.00    +0.009 C 
ENDBRANCH  27  29
BRANCH  11   8
ATOM      8  S   UNL     1      -1.689   1.108  24.441  0.00  0.00    +0.064 S 
ATOM      9  O   UNL     1      -1.870   1.237  23.647  0.00  0.00    -0.153 OA
ATOM     10  O   UNL     1      -1.508   0.979  25.236  0.00  0.00    -0.153 OA
BRANCH   8   5
ATOM      1  F   UNL     1       0.903  -0.731  23.552  0.00  0.00    -0.204 F 
ATOM      2  C   UNL     1       0.254  -0.271  23.774  0.00  0.00    +0.140 A 
ATOM      3  C   UNL     1      -0.133   0.195  23.213  0.00  0.00    +0.031 A 
ATOM      4  C   UNL     1      -0.781   0.654  23.436  0.00  0.00    +0.022 A 
ATOM      5  C   UNL     1      -1.041   0.648  24.219  0.00  0.00    +0.122 A 
ATOM      6  C   UNL     1      -0.654   0.184  24.779  0.00  0.00    +0.022 A 
ATOM      7  C   UNL     1      -0.006  -0.276  24.557  0.00  0.00    +0.031 A 
ENDBRANCH   8   5
ENDBRANCH  11   8
BRANCH  16  17
ATOM     17  C   UNL     1      -3.194   0.435  24.512  0.00  0.00    +0.260 C 
ATOM     18  O   UNL     1      -3.008   0.161  23.755  0.00  0.00    -0.272 OA
ATOM     19  N   UNL     1      -3.485  -0.088  25.079  0.00  0.00    -0.197 NA
BRANCH  19  20
ATOM     20  C   UNL     1      -3.590  -0.885  24.892  0.00  0.00    +0.173 C 
ATOM     21  C   UNL     1      -3.814  -1.104  24.130  0.00  0.00    +0.033 C 
ATOM     22  C   UNL     1      -3.919  -1.900  23.943  0.00  0.00    +0.026 C 
ATOM     23  C   UNL     1      -3.799  -2.478  24.520  0.00  0.00    +0.115 C 
ATOM     24  N   UNL     1      -3.575  -2.259  25.283  0.00  0.00    -0.204 NA
ATOM     25  C   UNL     1      -3.470  -1.463  25.469  0.00  0.00    +0.261 C 
ATOM     26  O   UNL     1      -3.245  -1.244  26.232  0.00  0.00    -0.271 OA
ENDBRANCH  19  20
ENDBRANCH  16  17
TORSDOF 5
ENDMDL
MODEL 4
REMARK VINA RESULT:     -12.1      1.414      3.249
REMARK  Name = 
REMARK  5 active torsions:
REMARK  status: ('A' for Active; 'I' for Inactive)
REMARK    1  A    between atoms: C_5  and  S_8
REMARK    2  A    between atoms: S_8  and  N_11
REMARK    3  A    between atoms: C_16  and  C_17
REMARK    4  A    between atoms: N_19  and  C_20
REMARK    5  A    between atoms: C_27  and  C_29
REMARK                            x       y       z     vdW  Elec       q    Type
REMARK                         _______ _______ _______ _____ _____    ______ ____
ROOT
ATOM     11  N   UNL     1      -1.818   0.171  24.585  0.00  0.00    -0.145 NA
ATOM     12  C   UNL     1      -1.019   0.042  24.421  0.00  0.00    +0.118 C 
ATOM     13  C   UNL     1      -0.482   0.666  24.471  0.00  0.00    +0.113 C 
ATOM     14  N   UNL     1      -0.744   1.420  24.685  0.00  0.00    -0.276 N 
ATOM     15  C   UNL     1      -1.542   1.548  24.849  0.00  0.00    +0.120 C 
ATOM     16  C   UNL     1      -2.079   0.923  24.798  0.00  0.00    +0.177 C 
ATOM     27  C   UNL     1      -0.208   2.043  24.735  0.00  0.00    +0.225 C 
ATOM     28  O   UNL     1       0.592   1.915  24.572  0.00  0.00    -0.275 OA
ENDROOT
BRANCH  27  29
ATOM     29  C   UNL     1      -0.468   2.796  24.949  0.00  0.00    +0.077 C 
ATOM     30  C   UNL     1      -0.562   2.990  25.745  0.00  0.00    +0.009 C 
ATOM     31  C   UNL     1      -0.823   3.744  25.958  0.00  0.00    +0.000 C 
ATOM     32  C   UNL     1      -0.990   4.303  25.375  0.00  0.00    +0.000 C 
ATOM     33  C   UNL     1      -0.896   4.108  24.579  0.00  0.00    +0.000 C 
ATOM     34  C   UNL     1      -0.636   3.355  24.365  0.00  0.00    +0.009 C 
ENDBRANCH  27  29
BRANCH  11   8
ATOM      8  S   UNL     1      -2.355  -0.454  24.535  0.00  0.00    +0.064 S 
ATOM      9  O   UNL     1      -2.474  -0.288  23.735  0.00  0.00    -0.153 OA
ATOM     10  O   UNL     1      -2.237  -0.620  25.334  0.00  0.00    -0.153 OA
BRANCH   8   5
ATOM      1  F   UNL     1      -4.503  -2.951  24.334  0.00  0.00    -0.204 F 
ATOM      2  C   UNL     1      -3.966  -2.326  24.384  0.00  0.00    +0.140 A 
ATOM      3  C   UNL     1      -3.906  -1.783  23.766  0.00  0.00    +0.031 A 
ATOM      4  C   UNL     1      -3.369  -1.159  23.816  0.00  0.00    +0.022 A 
ATOM      5  C   UNL     1      -2.892  -1.078  24.484  0.00  0.00    +0.122 A 
ATOM      6  C   UNL     1      -2.952  -1.621  25.102  0.00  0.00    +0.022 A 
ATOM      7  C   UNL     1      -3.489  -2.245  25.052  0.00  0.00    +0.031 A 
ENDBRANCH   8   5
ENDBRANCH  11   8
BRANCH  16  17
ATOM     17  C   UNL     1      -2.878   1.052  24.962  0.00  0.00    +0.260 C 
ATOM     18  O   UNL     1      -3.257   0.605  25.544  0.00  0.00    -0.272 OA
ATOM     19  N   UNL     1      -3.297   1.627  24.546  0.00  0.00    -0.197 NA
BRANCH  19  20
ATOM     20  C   UNL     1      -4.095   1.756  24.709  0.00  0.00    +0.173 C 
ATOM     21  C   UNL     1      -4.420   1.487  25.417  0.00  0.00    +0.033 C 
ATOM     22  C   UNL     1      -5.218   1.616  25.580  0.00  0.00    +0.026 C 
ATOM     23  C   UNL     1      -5.692   2.016  25.034  0.00  0.00    +0.115 C 
ATOM     24  N   UNL     1      -5.366   2.286  24.326  0.00  0.00    -0.204 NA
ATOM     25  C   UNL     1      -4.569   2.156  24.163  0.00  0.00    +0.261 C 
ATOM     26  O   UNL     1      -4.243   2.426  23.455  0.00  0.00    -0.271 OA
ENDBRANCH  19  20
ENDBRANCH  16  17
TORSDOF 5
ENDMDL
MODEL 5
REMARK VINA RESULT:     -11.7      2.116      4.280
REMARK  Name = 
REMARK  5 active torsions:
REMARK  status: ('A' for Active; 'I' for Inactive)
REMARK    1  A    between atoms: C_5  and  S_8
REMARK    2  A    between atoms: S_8  and  N_11
REMARK    3  A    between atoms: C_16  and  C_17
REMARK    4  A    between atoms: N_19  and  C_20
REMARK    5  A    between atoms: C_27  and  C_29
REMARK                            x       y       z     vdW  Elec       q    Type
REMARK                         _______ _______ _______ _____ _____    ______ ____
ROOT
ATOM     11  N   UNL     1      -3.388   2.502  25.016  0.00  0.00    -0.145 NA
ATOM     12  C   UNL     1      -4.178   2.491  25.254  0.00  0.00    +0.118 C 
ATOM     13  C   UNL     1      -4.599   1.781  25.252  0.00  0.00    +0.113 C 
ATOM     14  N   UNL     1      -4.230   1.083  25.011  0.00  0.00    -0.276 N 
ATOM     15  C   UNL     1      -3.441   1.095  24.773  0.00  0.00    +0.120 C 
ATOM     16  C   UNL     1      -3.020   1.805  24.775  0.00  0.00    +0.177 C 
ATOM     27  C   UNL     1      -4.651   0.374  25.009  0.00  0.00    +0.225 C 
ATOM     28  O   UNL     1      -5.441   0.362  25.247  0.00  0.00    -0.275 OA
ENDROOT
BRANCH  27  29
ATOM     29  C   UNL     1      -4.283  -0.324  24.768  0.00  0.00    +0.077 C 
ATOM     30  C   UNL     1      -4.294  -0.544  23.973  0.00  0.00    +0.009 C 
ATOM     31  C   UNL     1      -3.926  -1.243  23.734  0.00  0.00    +0.000 C 
ATOM     32  C   UNL     1      -3.546  -1.720  24.288  0.00  0.00    +0.000 C 
ATOM     33  C   UNL     1      -3.534  -1.500  25.083  0.00  0.00    +0.000 C 
ATOM     34  C   UNL     1      -3.902  -0.802  25.324  0.00  0.00    +0.009 C 
ENDBRANCH  27  29
BRANCH  11   8
ATOM      8  S   UNL     1      -2.967   3.212  25.018  0.00  0.00    +0.064 S 
ATOM      9  O   UNL     1      -2.817   3.121  25.824  0.00  0.00    -0.153 OA
ATOM     10  O   UNL     1      -3.117   3.304  24.212  0.00  0.00    -0.153 OA
BRANCH   8   5
ATOM      1  F   UNL     1      -1.283   6.050  25.027  0.00  0.00    -0.204 F 
ATOM      2  C   UNL     1      -1.705   5.340  25.025  0.00  0.00    +0.140 A 
ATOM      3  C   UNL     1      -1.804   4.918  25.727  0.00  0.00    +0.031 A 
ATOM      4  C   UNL     1      -2.225   4.208  25.724  0.00  0.00    +0.022 A 
ATOM      5  C   UNL     1      -2.546   3.922  25.020  0.00  0.00    +0.122 A 
ATOM      6  C   UNL     1      -2.446   4.344  24.319  0.00  0.00    +0.022 A 
ATOM      7  C   UNL     1      -2.025   5.053  24.322  0.00  0.00    +0.031 A 
ENDBRANCH   8   5
ENDBRANCH  11   8
BRANCH  16  17
ATOM     17  C   UNL     1      -2.230   1.816  24.537  0.00  0.00    +0.260 C 
ATOM     18  O   UNL     1      -2.013   2.216  23.847  0.00  0.00    -0.272 OA
ATOM     19  N   UNL     1      -1.657   1.428  24.986  0.00  0.00    -0.197 NA
BRANCH  19  20
ATOM     20  C   UNL     1      -0.867   1.440  24.747  0.00  0.00    +0.173 C 
ATOM     21  C   UNL     1      -0.677   1.391  23.947  0.00  0.00    +0.033 C 
ATOM     22  C   UNL     1       0.112   1.403  23.709  0.00  0.00    +0.026 C 
ATOM     23  C   UNL     1       0.712   1.462  24.273  0.00  0.00    +0.115 C 
ATOM     24  N   UNL     1       0.522   1.510  25.074  0.00  0.00    -0.204 NA
ATOM     25  C   UNL     1      -0.267   1.499  25.311  0.00  0.00    +0.261 C 
ATOM     26  O   UNL     1      -0.458   1.548  26.113  0.00  0.00    -0.271 OA
ENDBRANCH  19  20
ENDBRANCH  16  17
TORSDOF 5
ENDMDL
MODEL 6
REMARK VINA RESULT:     -11.2      1.975      4.318
REMARK  Name = 
REMARK  5 active torsions:
REMARK  status: ('A' for Active; 'I' for Inactive)
REMARK    1  A    between atoms: C_5  and  S_8
REMARK    2  A    between atoms: S_8  and  N_11
REMARK    3  A    between atoms: C_16  and  C_17
REMARK    4  A    between atoms: N_19  and  C_20
REMARK    5  A    between atoms: C_27  and  C_29
REMARK                            x       y       z     vdW  Elec       q    Type
REMARK                         _______ _______ _______ _____ _____    ______ ____
ROOT
ATOM     11  N   UNL     1      -3.887   0.779  24.399  0.00  0.00    -0.145 NA
ATOM     12  C   UNL     1      -4.537   0.337  24.147  0.00  0.00    +0.118 C 
ATOM     13  C   UNL     1      -4.491  -0.486  24.123  0.00  0.00    +0.113 C 
ATOM     14  N   UNL     1      -3.795  -0.867  24.350  0.00  0.00    -0.276 N 
ATOM     15  C   UNL     1      -3.146  -0.425  24.601  0.00  0.00    +0.120 C 
ATOM     16  C   UNL     1      -3.192   0.399  24.626  0.00  0.00    +0.177 C 
ATOM     27  C   UNL     1      -3.748  -1.690  24.325  0.00  0.00    +0.225 C 
ATOM     28  O   UNL     1      -4.398  -2.133  24.074  0.00  0.00    -0.275 OA
ENDROOT
BRANCH  27  29
ATOM     29  C   UNL     1      -3.053  -2.071  24.552  0.00  0.00    +0.077 C 
ATOM     30  C   UNL     1      -2.476  -2.248  23.989  0.00  0.00    +0.009 C 
ATOM     31  C   UNL     1      -1.781  -2.629  24.217  0.00  0.00    +0.000 C 
ATOM     32  C   UNL     1      -1.662  -2.834  25.007  0.00  0.00    +0.000 C 
ATOM     33  C   UNL     1      -2.239  -2.658  25.570  0.00  0.00    +0.000 C 
ATOM     34  C   UNL     1      -2.935  -2.276  25.343  0.00  0.00    +0.009 C 
ENDBRANCH  27  29
BRANCH  11   8
ATOM      8  S   UNL     1      -3.934   1.603  24.424  0.00  0.00    +0.064 S 
ATOM      9  O   UNL     1      -3.711   1.640  23.630  0.00  0.00    -0.153 OA
ATOM     10  O   UNL     1      -4.157   1.567  25.217  0.00  0.00    -0.153 OA
BRANCH   8   5
ATOM      1  F   UNL     1      -4.119   4.897  24.522  0.00  0.00    -0.204 F 
ATOM      2  C   UNL     1      -4.073   4.072  24.497  0.00  0.00    +0.140 A 
ATOM      3  C   UNL     1      -3.841   3.693  23.802  0.00  0.00    +0.031 A 
ATOM      4  C   UNL     1      -3.795   2.870  23.777  0.00  0.00    +0.022 A 
ATOM      5  C   UNL     1      -3.980   2.427  24.448  0.00  0.00    +0.122 A 
ATOM      6  C   UNL     1      -4.211   2.806  25.143  0.00  0.00    +0.022 A 
ATOM      7  C   UNL     1      -4.258   3.629  25.167  0.00  0.00    +0.031 A 
ENDBRANCH   8   5
ENDBRANCH  11   8
BRANCH  16  17
ATOM     17  C   UNL     1      -2.542   0.841  24.877  0.00  0.00    +0.260 C 
ATOM     18  O   UNL     1      -2.605   1.323  25.545  0.00  0.00    -0.272 OA
ATOM     19  N   UNL     1      -1.831   0.801  24.463  0.00  0.00    -0.197 NA
BRANCH  19  20
ATOM     20  C   UNL     1      -1.181   1.243  24.714  0.00  0.00    +0.173 C 
ATOM     21  C   UNL     1      -1.087   1.421  25.514  0.00  0.00    +0.033 C 
ATOM     22  C   UNL     1      -0.437   1.862  25.765  0.00  0.00    +0.026 C 
ATOM     23  C   UNL     1       0.119   2.127  25.215  0.00  0.00    +0.115 C 
ATOM     24  N   UNL     1       0.025   1.950  24.415  0.00  0.00    -0.204 NA
ATOM     25  C   UNL     1      -0.624   1.508  24.165  0.00  0.00    +0.261 C 
ATOM     26  O   UNL     1      -0.719   1.330  23.364  0.00  0.00    -0.271 OA
ENDBRANCH  19  20
ENDBRANCH  16  17
TORSDOF 5
ENDMDL
