MODEL 1
REMARK VINA RESULT:      -9.7      0.000      0.000
REMARK  Name = 
REMARK  6 active torsions:
REMARK  status: ('A' for Active; 'I' for Inactive)
REMARK    1  A    between atoms: C_3  and  C_4
REMARK    2  A    between atoms: C_4  and  N_5
REMARK    3  A    between atoms: C_6  and  C_8
REMARK    4  A    between atoms: C_14  and  C_15
REMARK    5  A    between atoms: C_15  and  C_16
REMARK    6  A    between atoms: N_18  and  C_19
REMARK                            x       y       z     vdW  Elec       q    Type
REMARK                         _______ _______ _______ _____ _____    ______ ____
ROOT
ATOM      1  O   UNL     1      -5.777   3.496  25.715  0.00  0.00    -0.218 OA
ATOM      2  C   UNL     1      -5.300   2.874  25.456  0.00  0.00    +0.213 C 
ATOM      3  C   UNL     1      -4.476   2.852  25.485  0.00  0.00    +0.170 C 
ATOM     13  O   UNL     1      -4.230   2.130  25.169  0.00  0.00    -0.351 OA
ATOM     14  C   UNL     1      -4.902   1.707  24.946  0.00  0.00    +0.157 C 
ATOM     22  C   UNL     1      -5.564   2.167  25.124  0.00  0.00    +0.212 C 
ATOM     23  O   UNL     1      -6.351   1.957  24.992  0.00  0.00    -0.218 OA
ENDROOT
BRANCH   3   4
ATOM      4  C   UNL     1      -3.984   3.446  25.776  0.00  0.00    +0.148 C 
BRANCH   4   5
ATOM      5  N   UNL     1      -3.238   3.565  25.443  0.00  0.00    -0.196 NA
ATOM      6  C   UNL     1      -2.705   4.083  25.800  0.00  0.00    +0.300 C 
ATOM      7  O   UNL     1      -2.917   4.482  26.491  0.00  0.00    -0.265 OA
BRANCH   6   8
ATOM      8  C   UNL     1      -1.959   4.201  25.467  0.00  0.00    +0.200 A 
ATOM      9  C   UNL     1      -1.656   4.920  25.199  0.00  0.00    +0.046 A 
ATOM     10  C   UNL     1      -0.896   4.784  24.910  0.00  0.00    +0.044 A 
ATOM     11  C   UNL     1      -0.729   3.982  24.998  0.00  0.00    +0.180 A 
ATOM     12  O   UNL     1      -1.386   3.621  25.343  0.00  0.00    -0.446 OA
ENDBRANCH   6   8
ENDBRANCH   4   5
ENDBRANCH   3   4
BRANCH  14  15
ATOM     15  C   UNL     1      -4.911   0.955  24.606  0.00  0.00    +0.119 C 
BRANCH  15  16
ATOM     16  C   UNL     1      -4.283   0.436  24.733  0.00  0.00    +0.244 C 
ATOM     17  O   UNL     1      -3.562   0.561  24.353  0.00  0.00    -0.273 OA
ATOM     18  N   UNL     1      -4.377  -0.208  25.241  0.00  0.00    -0.207 NA
BRANCH  18  19
ATOM     19  C   UNL     1      -3.749  -0.727  25.368  0.00  0.00    +0.095 C 
ATOM     20  C   UNL     1      -3.135  -1.193  25.072  0.00  0.00    +0.023 C 
ATOM     21  C   UNL     1      -3.273  -1.161  25.885  0.00  0.00    +0.023 C 
ENDBRANCH  18  19
ENDBRANCH  15  16
ENDBRANCH  14  15
TORSDOF 6
ENDMDL
MODEL 2
REMARK VINA RESULT:      -9.6      0.792      4.161
REMARK  Name = 
REMARK  6 active torsions:
REMARK  status: ('A' for Active; 'I' for Inactive)
REMARK    1  A    between atoms: C_3  and  C_4
REMARK    2  A    between atoms: C_4  and  N_5
REMARK    3  A    between atoms: C_6  and  C_8
REMARK    4  A    between atoms: C_14  and  C_15
REMARK    5  A    between atoms: C_15  and  C_16
REMARK    6  A    between atoms: N_18  and  C_19
REMARK                            x       y       z     vdW  Elec       q    Type
REMARK                         _______ _______ _______ _____ _____    ______ ____
ROOT
ATOM      1  O   UNL     1      -6.229   1.970  25.092  0.00  0.00    -0.218 OA
ATOM      2  C   UNL     1      -5.465   2.261  25.204  0.00  0.00    +0.213 C 
ATOM      3  C   UNL     1      -4.764   1.860  25.034  0.00  0.00    +0.170 C 
ATOM     13  O   UNL     1      -4.134   2.356  25.231  0.00  0.00    -0.351 OA
ATOM     14  C   UNL     1      -4.445   3.062  25.521  0.00  0.00    +0.157 C 
ATOM     22  C   UNL     1      -5.268   3.004  25.505  0.00  0.00    +0.212 C 
ATOM     23  O   UNL     1      -5.801   3.585  25.747  0.00  0.00    -0.218 OA
ENDROOT
BRANCH   3   4
ATOM      4  C   UNL     1      -4.703   1.099  24.724  0.00  0.00    +0.148 C 
BRANCH   4   5
ATOM      5  N   UNL     1      -4.136   0.577  25.018  0.00  0.00    -0.196 NA
ATOM      6  C   UNL     1      -4.028  -0.158  24.662  0.00  0.00    +0.300 C 
ATOM      7  O   UNL     1      -4.487  -0.373  24.011  0.00  0.00    -0.265 OA
BRANCH   6   8
ATOM      8  C   UNL     1      -3.460  -0.680  24.957  0.00  0.00    +0.200 A 
ATOM      9  C   UNL     1      -3.609  -1.354  25.409  0.00  0.00    +0.046 A 
ATOM     10  C   UNL     1      -2.885  -1.709  25.582  0.00  0.00    +0.044 A 
ATOM     11  C   UNL     1      -2.289  -1.255  25.239  0.00  0.00    +0.180 A 
ATOM     12  O   UNL     1      -2.644  -0.618  24.852  0.00  0.00    -0.446 OA
ENDBRANCH   6   8
ENDBRANCH   4   5
ENDBRANCH   3   4
BRANCH  14  15
ATOM     15  C   UNL     1      -4.011   3.713  25.783  0.00  0.00    +0.119 C 
BRANCH  15  16
ATOM     16  C   UNL     1      -3.292   3.901  25.425  0.00  0.00    +0.244 C 
ATOM     17  O   UNL     1      -3.266   4.078  24.620  0.00  0.00    -0.273 OA
ATOM     18  N   UNL     1      -2.599   3.911  25.873  0.00  0.00    -0.207 NA
BRANCH  18  19
ATOM     19  C   UNL     1      -1.880   4.099  25.515  0.00  0.00    +0.095 C 
ATOM     20  C   UNL     1      -1.414   4.619  25.075  0.00  0.00    +0.023 C 
ATOM     21  C   UNL     1      -1.098   3.903  25.335  0.00  0.00    +0.023 C 
ENDBRANCH  18  19
ENDBRANCH  15  16
ENDBRANCH  14  15
TORSDOF 6
ENDMDL
MODEL 3
REMARK VINA RESULT:      -9.1      1.970      3.714
REMARK  Name = 
REMARK  6 active torsions:
REMARK  status: ('A' for Active; 'I' for Inactive)
REMARK    1  A    between atoms: C_3  and  C_4
REMARK    2  A    between atoms: C_4  and  N_5
REMARK    3  A    between atoms: C_6  and  C_8
REMARK    4  A    between atoms: C_14  and  C_15
REMARK    5  A    between atoms: C_15  and  C_16
REMARK    6  A    between atoms: N_18  and  C_19
REMARK                            x       y       z     vdW  Elec       q    Type
REMARK                         _______ _______ _______ _____ _____    ______ ____
ROOT
ATOM      1  O   UNL     1      -0.905   2.047  23.853  0.00  0.00    -0.218 OA
ATOM      2  C   UNL     1      -1.296   1.378  24.136  0.00  0.00    +0.213 C 
ATOM      3  C   UNL     1      -2.110   1.304  24.249  0.00  0.00    +0.170 C 
ATOM     13  O   UNL     1      -2.259   0.546  24.538  0.00  0.00    -0.351 OA
ATOM     14  C   UNL     1      -1.538   0.151  24.604  0.00  0.00    +0.157 C 
ATOM     22  C   UNL     1      -0.942   0.665  24.355  0.00  0.00    +0.212 C 
ATOM     23  O   UNL     1      -0.135   0.497  24.329  0.00  0.00    -0.218 OA
ENDROOT
BRANCH   3   4
ATOM      4  C   UNL     1      -2.675   1.886  24.101  0.00  0.00    +0.148 C 
BRANCH   4   5
ATOM      5  N   UNL     1      -3.353   1.932  24.569  0.00  0.00    -0.196 NA
ATOM      6  C   UNL     1      -3.961   2.449  24.364  0.00  0.00    +0.300 C 
ATOM      7  O   UNL     1      -3.892   2.922  23.691  0.00  0.00    -0.265 OA
BRANCH   6   8
ATOM      8  C   UNL     1      -4.639   2.495  24.833  0.00  0.00    +0.200 A 
ATOM      9  C   UNL     1      -5.306   2.013  24.769  0.00  0.00    +0.046 A 
ATOM     10  C   UNL     1      -5.847   2.251  25.344  0.00  0.00    +0.044 A 
ATOM     11  C   UNL     1      -5.516   2.879  25.763  0.00  0.00    +0.180 A 
ATOM     12  O   UNL     1      -4.768   3.030  25.447  0.00  0.00    -0.446 OA
ENDBRANCH   6   8
ENDBRANCH   4   5
ENDBRANCH   3   4
BRANCH  14  15
ATOM     15  C   UNL     1      -1.430  -0.622  24.870  0.00  0.00    +0.119 C 
BRANCH  15  16
ATOM     16  C   UNL     1      -2.083  -1.104  25.017  0.00  0.00    +0.244 C 
ATOM     17  O   UNL     1      -2.531  -0.995  25.700  0.00  0.00    -0.273 OA
ATOM     18  N   UNL     1      -2.288  -1.695  24.478  0.00  0.00    -0.207 NA
BRANCH  18  19
ATOM     19  C   UNL     1      -2.941  -2.177  24.625  0.00  0.00    +0.095 C 
ATOM     20  C   UNL     1      -3.426  -2.583  25.155  0.00  0.00    +0.023 C 
ATOM     21  C   UNL     1      -3.590  -2.606  24.347  0.00  0.00    +0.023 C 
ENDBRANCH  18  19
ENDBRANCH  15  16
ENDBRANCH  14  15
TORSDOF 6
ENDMDL
MODEL 4
REMARK VINA RESULT:      -8.8      1.925      4.837
REMARK  Name = 
REMARK  6 active torsions:
REMARK  status: ('A' for Active; 'I' for Inactive)
REMARK    1  A    between atoms: C_3  and  C_4
REMARK    2  A    between atoms: C_4  and  N_5
REMARK    3  A    between atoms: C_6  and  C_8
REMARK    4  A    between atoms: C_14  and  C_15
REMARK    5  A    between atoms: C_15  and  C_16
REMARK    6  A    between atoms: N_18  and  C_19
REMARK                            x       y       z     vdW  Elec       q    Type
REMARK                         _______ _______ _______ _____ _____    ______ ____
ROOT
ATOM      1  O   UNL     1      -0.297   1.458  24.238  0.00  0.00    -0.218 OA
ATOM      2  C   UNL     1      -1.116   1.557  24.278  0.00  0.00    +0.213 C 
ATOM      3  C   UNL     1      -1.663   0.983  24.505  0.00  0.00    +0.170 C 
ATOM     13  O   UNL     1      -2.416   1.320  24.465  0.00  0.00    -0.351 OA
ATOM     14  C   UNL     1      -2.334   2.101  24.213  0.00  0.00    +0.157 C 
ATOM     22  C   UNL     1      -1.530   2.248  24.098  0.00  0.00    +0.212 C 
ATOM     23  O   UNL     1      -1.198   2.960  23.847  0.00  0.00    -0.218 OA
ENDROOT
BRANCH   3   4
ATOM      4  C   UNL     1      -1.490   0.210  24.731  0.00  0.00    +0.148 C 
BRANCH   4   5
ATOM      5  N   UNL     1      -2.056  -0.384  24.642  0.00  0.00    -0.196 NA
ATOM      6  C   UNL     1      -1.911  -1.140  24.935  0.00  0.00    +0.300 C 
ATOM      7  O   UNL     1      -1.199  -1.305  25.319  0.00  0.00    -0.265 OA
BRANCH   6   8
ATOM      8  C   UNL     1      -2.478  -1.733  24.845  0.00  0.00    +0.200 A 
ATOM      9  C   UNL     1      -3.139  -1.849  25.325  0.00  0.00    +0.046 A 
ATOM     10  C   UNL     1      -3.552  -2.502  25.035  0.00  0.00    +0.044 A 
ATOM     11  C   UNL     1      -3.146  -2.789  24.377  0.00  0.00    +0.180 A 
ATOM     12  O   UNL     1      -2.482  -2.314  24.259  0.00  0.00    -0.446 OA
ENDBRANCH   6   8
ENDBRANCH   4   5
ENDBRANCH   3   4
BRANCH  14  15
ATOM     15  C   UNL     1      -2.946   2.641  24.098  0.00  0.00    +0.119 C 
BRANCH  15  16
ATOM     16  C   UNL     1      -3.616   2.615  24.579  0.00  0.00    +0.244 C 
ATOM     17  O   UNL     1      -3.555   2.801  25.379  0.00  0.00    -0.273 OA
ATOM     18  N   UNL     1      -4.346   2.404  24.258  0.00  0.00    -0.207 NA
BRANCH  18  19
ATOM     19  C   UNL     1      -5.016   2.378  24.739  0.00  0.00    +0.095 C 
ATOM     20  C   UNL     1      -5.483   2.710  25.332  0.00  0.00    +0.023 C 
ATOM     21  C   UNL     1      -5.710   2.000  24.978  0.00  0.00    +0.023 C 
ENDBRANCH  18  19
ENDBRANCH  15  16
ENDBRANCH  14  15
TORSDOF 6
ENDMDL
