MODEL 1
REMARK VINA RESULT:      -8.5      0.000      0.000
REMARK  Name = 
REMARK  10 active torsions:
REMARK  status: ('A' for Active; 'I' for Inactive)
REMARK    1  A    between atoms: O_2  and  C_3
REMARK    2  A    between atoms: C_3  and  C_5
REMARK    3  A    between atoms: C_10  and  C_11
REMARK    4  A    between atoms: C_11  and  C_12
REMARK    5  A    between atoms: C_14  and  C_15
REMARK    6  A    between atoms: C_18  and  C_19
REMARK    7  A    between atoms: C_19  and  N_20
REMARK    8  A    between atoms: N_20  and  C_21
REMARK    9  A    between atoms: C_21  and  C_22
REMARK   10  A    between atoms: C_25  and  N_26
REMARK                            x       y       z     vdW  Elec       q    Type
REMARK                         _______ _______ _______ _____ _____    ______ ____
ROOT
ATOM     12  C   UNL     1      -0.774   2.281  24.971  0.00  0.00    +0.026 C 
ATOM     13  C   UNL     1      -1.023   1.495  24.934  0.00  0.00    +0.005 C 
ATOM     14  C   UNL     1      -0.586   0.945  24.501  0.00  0.00    +0.006 C 
ATOM     18  C   UNL     1       0.099   1.180  24.106  0.00  0.00    +0.039 C 
ATOM     32  C   UNL     1       0.347   1.966  24.144  0.00  0.00    -0.033 C 
ATOM     33  C   UNL     1      -0.089   2.517  24.576  0.00  0.00    -0.048 C 
ATOM     34  C   UNL     1       0.159   3.303  24.614  0.00  0.00    +0.026 C 
ENDROOT
BRANCH  14  15
ATOM     15  C   UNL     1      -0.834   0.159  24.463  0.00  0.00    +0.000 C 
ATOM     16  C   UNL     1      -0.607  -0.374  25.050  0.00  0.00    +0.000 C 
ATOM     17  C   UNL     1      -1.310  -0.094  23.838  0.00  0.00    +0.000 C 
ENDBRANCH  14  15
BRANCH  12  11
ATOM     11  C   UNL     1      -1.210   2.832  25.404  0.00  0.00    +0.070 C 
BRANCH  11  10
ATOM      5  C   UNL     1      -4.741   2.985  25.095  0.00  0.00    +0.077 A 
ATOM      6  C   UNL     1      -4.130   2.651  25.536  0.00  0.00    +0.027 A 
ATOM      7  C   UNL     1      -3.344   2.820  25.348  0.00  0.00    +0.100 A 
ATOM      8  C   UNL     1      -3.171   3.325  24.719  0.00  0.00    +0.100 A 
ATOM      9  N   UNL     1      -2.351   3.390  24.663  0.00  0.00    -0.229 NA
ATOM     10  C   UNL     1      -2.017   2.927  25.258  0.00  0.00    +0.139 A 
ATOM     35  N   UNL     1      -2.631   2.575  25.681  0.00  0.00    -0.229 NA
ATOM     36  C   UNL     1      -3.783   3.660  24.277  0.00  0.00    +0.021 A 
ATOM     37  C   UNL     1      -4.567   3.489  24.466  0.00  0.00    +0.008 A 
BRANCH   5   3
ATOM      3  C   UNL     1      -5.525   2.816  25.283  0.00  0.00    +0.341 C 
ATOM      4  O   UNL     1      -5.960   3.339  25.750  0.00  0.00    -0.245 OA
BRANCH   3   2
ATOM      1  C   UNL     1      -6.624   1.902  25.273  0.00  0.00    +0.256 C 
ATOM      2  O   UNL     1      -5.877   2.123  25.004  0.00  0.00    -0.441 OA
ENDBRANCH   3   2
ENDBRANCH   5   3
ENDBRANCH  11  10
ENDBRANCH  12  11
BRANCH  18  19
ATOM     19  C   UNL     1       0.536   0.631  23.673  0.00  0.00    +0.093 C 
BRANCH  19  20
ATOM     20  N   UNL     1       1.315   0.797  23.461  0.00  0.00    -0.213 NA
BRANCH  20  21
ATOM     21  C   UNL     1       1.700   0.328  22.902  0.00  0.00    +0.115 C 
BRANCH  21  22
ATOM     22  C   UNL     1       2.523   0.273  22.905  0.00  0.00    -0.005 A 
ATOM     23  C   UNL     1       2.982   0.929  22.706  0.00  0.00    -0.002 A 
ATOM     24  C   UNL     1       3.804   0.874  22.710  0.00  0.00    +0.016 A 
ATOM     25  C   UNL     1       4.169   0.162  22.913  0.00  0.00    +0.073 A 
ATOM     30  C   UNL     1       3.711  -0.494  23.112  0.00  0.00    +0.016 A 
ATOM     31  C   UNL     1       2.887  -0.439  23.108  0.00  0.00    -0.002 A 
BRANCH  25  26
ATOM     26  N   UNL     1       4.993   0.107  22.917  0.00  0.00    -0.179 NA
ATOM     27  C   UNL     1       5.412   0.237  23.615  0.00  0.00    +0.246 C 
ATOM     28  C   UNL     1       6.235   0.182  23.618  0.00  0.00    +0.097 C 
ATOM     29  O   UNL     1       5.007   0.424  24.310  0.00  0.00    -0.273 OA
ENDBRANCH  25  26
ENDBRANCH  21  22
ENDBRANCH  20  21
ENDBRANCH  19  20
ENDBRANCH  18  19
TORSDOF 10
ENDMDL
MODEL 2
REMARK VINA RESULT:      -8.5      1.251      2.078
REMARK  Name = 
REMARK  10 active torsions:
REMARK  status: ('A' for Active; 'I' for Inactive)
REMARK    1  A    between atoms: O_2  and  C_3
REMARK    2  A    between atoms: C_3  and  C_5
REMARK    3  A    between atoms: C_10  and  C_11
REMARK    4  A    between atoms: C_11  and  C_12
REMARK    5  A    between atoms: C_14  and  C_15
REMARK    6  A    between atoms: C_18  and  C_19
REMARK    7  A    between atoms: C_19  and  N_20
REMARK    8  A    between atoms: N_20  and  C_21
REMARK    9  A    between atoms: C_21  and  C_22
REMARK   10  A    between atoms: C_25  and  N_26
REMARK                            x       y       z     vdW  Elec       q    Type
REMARK                         _______ _______ _______ _____ _____    ______ ____
ROOT
ATOM     12  C   UNL     1      -1.179  -0.185  24.786  0.00  0.00    +0.026 C 
ATOM     13  C   UNL     1      -1.027   0.623  24.715  0.00  0.00    +0.005 C 
ATOM     14  C   UNL     1      -0.390   0.885  24.260  0.00  0.00    +0.006 C 
ATOM     18  C   UNL     1       0.094   0.340  23.877  0.00  0.00    +0.039 C 
ATOM     32  C   UNL     1      -0.057  -0.468  23.947  0.00  0.00    -0.033 C 
ATOM     33  C   UNL     1      -0.693  -0.731  24.402  0.00  0.00    -0.048 C 
ATOM     34  C   UNL     1      -0.845  -1.539  24.472  0.00  0.00    +0.026 C 
ENDROOT
BRANCH  14  15
ATOM     15  C   UNL     1      -0.239   1.693  24.189  0.00  0.00    +0.000 C 
ATOM     16  C   UNL     1      -0.557   2.119  23.559  0.00  0.00    +0.000 C 
ATOM     17  C   UNL     1       0.231   2.075  24.750  0.00  0.00    +0.000 C 
ENDBRANCH  14  15
BRANCH  12  11
ATOM     11  C   UNL     1      -1.815  -0.447  25.240  0.00  0.00    +0.070 C 
BRANCH  11  10
ATOM      5  C   UNL     1      -4.910   1.273  25.022  0.00  0.00    +0.077 A 
ATOM      6  C   UNL     1      -4.159   1.303  25.361  0.00  0.00    +0.027 A 
ATOM      7  C   UNL     1      -3.613   0.704  25.210  0.00  0.00    +0.100 A 
ATOM      8  C   UNL     1      -3.819   0.073  24.719  0.00  0.00    +0.100 A 
ATOM      9  N   UNL     1      -3.171  -0.434  24.671  0.00  0.00    -0.229 NA
ATOM     10  C   UNL     1      -2.564  -0.118  25.131  0.00  0.00    +0.139 A 
ATOM     35  N   UNL     1      -2.838   0.585  25.464  0.00  0.00    -0.229 NA
ATOM     36  C   UNL     1      -4.570   0.043  24.380  0.00  0.00    +0.021 A 
ATOM     37  C   UNL     1      -5.115   0.643  24.531  0.00  0.00    +0.008 A 
BRANCH   5   3
ATOM      3  C   UNL     1      -5.455   1.873  25.173  0.00  0.00    +0.341 C 
ATOM      4  O   UNL     1      -6.253   1.758  24.999  0.00  0.00    -0.245 OA
BRANCH   3   2
ATOM      1  C   UNL     1      -5.749   3.186  25.654  0.00  0.00    +0.256 C 
ATOM      2  O   UNL     1      -5.203   2.588  25.498  0.00  0.00    -0.441 OA
ENDBRANCH   3   2
ENDBRANCH   5   3
ENDBRANCH  11  10
ENDBRANCH  12  11
BRANCH  18  19
ATOM     19  C   UNL     1       0.731   0.601  23.422  0.00  0.00    +0.093 C 
BRANCH  19  20
ATOM     20  N   UNL     1       1.373   0.102  23.285  0.00  0.00    -0.213 NA
BRANCH  20  21
ATOM     21  C   UNL     1       1.872   0.238  22.641  0.00  0.00    +0.115 C 
BRANCH  21  22
ATOM     22  C   UNL     1       2.690   0.209  22.740  0.00  0.00    -0.005 A 
ATOM     23  C   UNL     1       3.144   0.889  22.628  0.00  0.00    -0.002 A 
ATOM     24  C   UNL     1       3.962   0.861  22.726  0.00  0.00    +0.016 A 
ATOM     25  C   UNL     1       4.327   0.152  22.937  0.00  0.00    +0.073 A 
ATOM     30  C   UNL     1       3.875  -0.529  23.049  0.00  0.00    +0.016 A 
ATOM     31  C   UNL     1       3.056  -0.500  22.950  0.00  0.00    -0.002 A 
BRANCH  25  26
ATOM     26  N   UNL     1       5.147   0.123  23.035  0.00  0.00    -0.179 NA
ATOM     27  C   UNL     1       5.478   0.267  23.777  0.00  0.00    +0.246 C 
ATOM     28  C   UNL     1       6.296   0.239  23.875  0.00  0.00    +0.097 C 
ATOM     29  O   UNL     1       4.991   0.440  24.420  0.00  0.00    -0.273 OA
ENDBRANCH  25  26
ENDBRANCH  21  22
ENDBRANCH  20  21
ENDBRANCH  19  20
ENDBRANCH  18  19
TORSDOF 10
ENDMDL
MODEL 3
REMARK VINA RESULT:      -7.2      2.143      7.293
REMARK  Name = 
REMARK  10 active torsions:
REMARK  status: ('A' for Active; 'I' for Inactive)
REMARK    1  A    between atoms: O_2  and  C_3
REMARK    2  A    between atoms: C_3  and  C_5
REMARK    3  A    between atoms: C_10  and  C_11
REMARK    4  A    between atoms: C_11  and  C_12
REMARK    5  A    between atoms: C_14  and  C_15
REMARK    6  A    between atoms: C_18  and  C_19
REMARK    7  A    between atoms: C_19  and  N_20
REMARK    8  A    between atoms: N_20  and  C_21
REMARK    9  A    between atoms: C_21  and  C_22
REMARK   10  A    between atoms: C_25  and  N_26
REMARK                            x       y       z     vdW  Elec       q    Type
REMARK                         _______ _______ _______ _____ _____    ______ ____
ROOT
ATOM     12  C   UNL     1      -1.875  -1.171  25.182  0.00  0.00    +0.026 C 
ATOM     13  C   UNL     1      -2.343  -1.449  24.562  0.00  0.00    +0.005 C 
ATOM     14  C   UNL     1      -3.150  -1.276  24.546  0.00  0.00    +0.006 C 
ATOM     18  C   UNL     1      -3.488  -0.826  25.148  0.00  0.00    +0.039 C 
ATOM     32  C   UNL     1      -3.020  -0.548  25.768  0.00  0.00    -0.033 C 
ATOM     33  C   UNL     1      -2.214  -0.720  25.785  0.00  0.00    -0.048 C 
ATOM     34  C   UNL     1      -1.745  -0.442  26.405  0.00  0.00    +0.026 C 
ENDROOT
BRANCH  14  15
ATOM     15  C   UNL     1      -3.618  -1.554  23.926  0.00  0.00    +0.000 C 
ATOM     16  C   UNL     1      -3.698  -1.109  23.237  0.00  0.00    +0.000 C 
ATOM     17  C   UNL     1      -4.008  -2.279  23.996  0.00  0.00    +0.000 C 
ENDBRANCH  14  15
BRANCH  12  11
ATOM     11  C   UNL     1      -1.068  -1.342  25.200  0.00  0.00    +0.070 C 
BRANCH  11  10
ATOM      5  C   UNL     1       1.290   0.019  22.927  0.00  0.00    +0.077 A 
ATOM      6  C   UNL     1       0.982  -0.690  23.215  0.00  0.00    +0.027 A 
ATOM      7  C   UNL     1       0.391  -0.679  23.791  0.00  0.00    +0.100 A 
ATOM      8  C   UNL     1       0.108   0.040  24.078  0.00  0.00    +0.100 A 
ATOM      9  N   UNL     1      -0.473  -0.120  24.640  0.00  0.00    -0.229 NA
ATOM     10  C   UNL     1      -0.549  -0.939  24.701  0.00  0.00    +0.139 A 
ATOM     35  N   UNL     1      -0.015  -1.284  24.176  0.00  0.00    -0.229 NA
ATOM     36  C   UNL     1       0.416   0.750  23.790  0.00  0.00    +0.021 A 
ATOM     37  C   UNL     1       1.007   0.739  23.214  0.00  0.00    +0.008 A 
BRANCH   5   3
ATOM      3  C   UNL     1       1.881   0.008  22.352  0.00  0.00    +0.341 C 
ATOM      4  O   UNL     1       1.708  -0.251  21.588  0.00  0.00    -0.245 OA
BRANCH   3   2
ATOM      1  C   UNL     1       3.243   0.219  21.973  0.00  0.00    +0.256 C 
ATOM      2  O   UNL     1       2.645   0.256  22.540  0.00  0.00    -0.441 OA
ENDBRANCH   3   2
ENDBRANCH   5   3
ENDBRANCH  11  10
ENDBRANCH  12  11
BRANCH  18  19
ATOM     19  C   UNL     1      -4.295  -0.654  25.132  0.00  0.00    +0.093 C 
BRANCH  19  20
ATOM     20  N   UNL     1      -4.576   0.039  25.479  0.00  0.00    -0.213 NA
BRANCH  20  21
ATOM     21  C   UNL     1      -5.289   0.369  25.225  0.00  0.00    +0.115 C 
BRANCH  21  22
ATOM     22  C   UNL     1      -5.413   1.181  25.287  0.00  0.00    -0.005 A 
ATOM     23  C   UNL     1      -5.229   1.676  24.652  0.00  0.00    -0.002 A 
ATOM     24  C   UNL     1      -5.353   2.489  24.714  0.00  0.00    +0.016 A 
ATOM     25  C   UNL     1      -5.661   2.808  25.409  0.00  0.00    +0.073 A 
ATOM     30  C   UNL     1      -5.845   2.314  26.044  0.00  0.00    +0.016 A 
ATOM     31  C   UNL     1      -5.721   1.500  25.982  0.00  0.00    -0.002 A 
BRANCH  25  26
ATOM     26  N   UNL     1      -5.786   3.622  25.471  0.00  0.00    -0.179 NA
ATOM     27  C   UNL     1      -5.147   4.128  25.599  0.00  0.00    +0.246 C 
ATOM     28  C   UNL     1      -5.272   4.941  25.661  0.00  0.00    +0.097 C 
ATOM     29  O   UNL     1      -4.384   3.821  25.667  0.00  0.00    -0.273 OA
ENDBRANCH  25  26
ENDBRANCH  21  22
ENDBRANCH  20  21
ENDBRANCH  19  20
ENDBRANCH  18  19
TORSDOF 10
ENDMDL
MODEL 4
REMARK VINA RESULT:      -7.1      2.831      6.278
REMARK  Name = 
REMARK  10 active torsions:
REMARK  status: ('A' for Active; 'I' for Inactive)
REMARK    1  A    between atoms: O_2  and  C_3
REMARK    2  A    between atoms: C_3  and  C_5
REMARK    3  A    between atoms: C_10  and  C_11
REMARK    4  A    between atoms: C_11  and  C_12
REMARK    5  A    between atoms: C_14  and  C_15
REMARK    6  A    between atoms: C_18  and  C_19
REMARK    7  A    between atoms: C_19  and  N_20
REMARK    8  A    between atoms: N_20  and  C_21
REMARK    9  A    between atoms: C_21  and  C_22
REMARK   10  A    between atoms: C_25  and  N_26
REMARK                            x       y       z     vdW  Elec       q    Type
REMARK                         _______ _______ _______ _____ _____    ______ ____
ROOT
ATOM     12  C   UNL     1      -0.256   1.267  24.293  0.00  0.00    +0.026 C 
ATOM     13  C   UNL     1      -0.068   1.446  25.076  0.00  0.00    +0.005 C 
ATOM     14  C   UNL     1      -0.264   2.185  25.388  0.00  0.00    +0.006 C 
ATOM     18  C   UNL     1      -0.648   2.743  24.918  0.00  0.00    +0.039 C 
ATOM     32  C   UNL     1      -0.836   2.563  24.135  0.00  0.00    -0.033 C 
ATOM     33  C   UNL     1      -0.641   1.825  23.822  0.00  0.00    -0.048 C 
ATOM     34  C   UNL     1      -0.829   1.646  23.039  0.00  0.00    +0.026 C 
ENDROOT
BRANCH  14  15
ATOM     15  C   UNL     1      -0.075   2.365  26.171  0.00  0.00    +0.000 C 
ATOM     16  C   UNL     1       0.572   2.847  26.339  0.00  0.00    +0.000 C 
ATOM     17  C   UNL     1      -0.535   2.061  26.786  0.00  0.00    +0.000 C 
ENDBRANCH  14  15
BRANCH  12  11
ATOM     11  C   UNL     1      -0.061   0.529  23.980  0.00  0.00    +0.070 C 
BRANCH  11  10
ATOM      5  C   UNL     1      -2.267  -2.142  24.741  0.00  0.00    +0.077 A 
ATOM      6  C   UNL     1      -2.232  -1.387  24.413  0.00  0.00    +0.027 A 
ATOM      7  C   UNL     1      -1.511  -0.986  24.374  0.00  0.00    +0.100 A 
ATOM      8  C   UNL     1      -0.825  -1.343  24.662  0.00  0.00    +0.100 A 
ATOM      9  N   UNL     1      -0.199  -0.819  24.550  0.00  0.00    -0.229 NA
ATOM     10  C   UNL     1      -0.497  -0.138  24.192  0.00  0.00    +0.139 A 
ATOM     35  N   UNL     1      -1.308  -0.242  24.083  0.00  0.00    -0.229 NA
ATOM     36  C   UNL     1      -0.860  -2.100  24.991  0.00  0.00    +0.021 A 
ATOM     37  C   UNL     1      -1.581  -2.499  25.030  0.00  0.00    +0.008 A 
BRANCH   5   3
ATOM      3  C   UNL     1      -2.986  -2.542  24.781  0.00  0.00    +0.341 C 
ATOM      4  O   UNL     1      -3.358  -2.652  25.509  0.00  0.00    -0.245 OA
BRANCH   3   2
ATOM      1  C   UNL     1      -4.150  -2.960  24.064  0.00  0.00    +0.256 C 
ATOM      2  O   UNL     1      -3.336  -2.833  24.092  0.00  0.00    -0.441 OA
ENDBRANCH   3   2
ENDBRANCH   5   3
ENDBRANCH  11  10
ENDBRANCH  12  11
BRANCH  18  19
ATOM     19  C   UNL     1      -0.844   3.481  25.230  0.00  0.00    +0.093 C 
BRANCH  19  20
ATOM     20  N   UNL     1      -1.470   3.912  24.910  0.00  0.00    -0.213 NA
BRANCH  20  21
ATOM     21  C   UNL     1      -1.954   4.364  25.401  0.00  0.00    +0.115 C 
BRANCH  21  22
ATOM     22  C   UNL     1      -2.762   4.207  25.444  0.00  0.00    -0.005 A 
ATOM     23  C   UNL     1      -3.126   4.108  26.178  0.00  0.00    -0.002 A 
ATOM     24  C   UNL     1      -3.934   3.951  26.220  0.00  0.00    +0.016 A 
ATOM     25  C   UNL     1      -4.380   3.892  25.529  0.00  0.00    +0.073 A 
ATOM     30  C   UNL     1      -4.017   3.990  24.794  0.00  0.00    +0.016 A 
ATOM     31  C   UNL     1      -3.208   4.148  24.752  0.00  0.00    -0.002 A 
BRANCH  25  26
ATOM     26  N   UNL     1      -5.189   3.734  25.571  0.00  0.00    -0.179 NA
ATOM     27  C   UNL     1      -5.458   2.954  25.573  0.00  0.00    +0.246 C 
ATOM     28  C   UNL     1      -6.266   2.797  25.616  0.00  0.00    +0.097 C 
ATOM     29  O   UNL     1      -4.917   2.332  25.534  0.00  0.00    -0.273 OA
ENDBRANCH  25  26
ENDBRANCH  21  22
ENDBRANCH  20  21
ENDBRANCH  19  20
ENDBRANCH  18  19
TORSDOF 10
ENDMDL
MODEL 5
REMARK VINA RESULT:      -6.8      2.787      3.962
REMARK  Name = 
REMARK  10 active torsions:
REMARK  status: ('A' for Active; 'I' for Inactive)
REMARK    1  A    between atoms: O_2  and  C_3
REMARK    2  A    between atoms: C_3  and  C_5
REMARK    3  A    between atoms: C_10  and  C_11
REMARK    4  A    between atoms: C_11  and  C_12
REMARK    5  A    between atoms: C_14  and  C_15
REMARK    6  A    between atoms: C_18  and  C_19
REMARK    7  A    between atoms: C_19  and  N_20
REMARK    8  A    between atoms: N_20  and  C_21
REMARK    9  A    between atoms: C_21  and  C_22
REMARK   10  A    between atoms: C_25  and  N_26
REMARK                            x       y       z     vdW  Elec       q    Type
REMARK                         _______ _______ _______ _____ _____    ______ ____
ROOT
ATOM     12  C   UNL     1      -1.944   2.674  23.838  0.00  0.00    +0.026 C 
ATOM     13  C   UNL     1      -1.474   2.756  24.512  0.00  0.00    +0.005 C 
ATOM     14  C   UNL     1      -0.873   2.212  24.662  0.00  0.00    +0.006 C 
ATOM     18  C   UNL     1      -0.740   1.587  24.140  0.00  0.00    +0.039 C 
ATOM     32  C   UNL     1      -1.209   1.506  23.467  0.00  0.00    -0.033 C 
ATOM     33  C   UNL     1      -1.811   2.049  23.315  0.00  0.00    -0.048 C 
ATOM     34  C   UNL     1      -2.281   1.968  22.641  0.00  0.00    +0.026 C 
ENDROOT
BRANCH  14  15
ATOM     15  C   UNL     1      -0.403   2.293  25.336  0.00  0.00    +0.000 C 
ATOM     16  C   UNL     1       0.371   2.568  25.269  0.00  0.00    +0.000 C 
ATOM     17  C   UNL     1      -0.708   2.098  26.078  0.00  0.00    +0.000 C 
ENDBRANCH  14  15
BRANCH  12  11
ATOM     11  C   UNL     1      -2.546   3.218  23.686  0.00  0.00    +0.070 C 
BRANCH  11  10
ATOM      5  C   UNL     1      -5.550   2.760  25.517  0.00  0.00    +0.077 A 
ATOM      6  C   UNL     1      -5.002   2.373  25.037  0.00  0.00    +0.027 A 
ATOM      7  C   UNL     1      -4.352   2.784  24.738  0.00  0.00    +0.100 A 
ATOM      8  C   UNL     1      -4.250   3.582  24.918  0.00  0.00    +0.100 A 
ATOM      9  N   UNL     1      -3.562   3.842  24.546  0.00  0.00    -0.229 NA
ATOM     10  C   UNL     1      -3.237   3.204  24.136  0.00  0.00    +0.139 A 
ATOM     35  N   UNL     1      -3.726   2.551  24.255  0.00  0.00    -0.229 NA
ATOM     36  C   UNL     1      -4.798   3.970  25.398  0.00  0.00    +0.021 A 
ATOM     37  C   UNL     1      -5.448   3.559  25.697  0.00  0.00    +0.008 A 
BRANCH   5   3
ATOM      3  C   UNL     1      -6.199   2.350  25.816  0.00  0.00    +0.341 C 
ATOM      4  O   UNL     1      -6.760   2.034  25.301  0.00  0.00    -0.245 OA
BRANCH   3   2
ATOM      1  C   UNL     1      -6.720   1.618  26.927  0.00  0.00    +0.256 C 
ATOM      2  O   UNL     1      -6.288   2.254  26.631  0.00  0.00    -0.441 OA
ENDBRANCH   3   2
ENDBRANCH   5   3
ENDBRANCH  11  10
ENDBRANCH  12  11
BRANCH  18  19
ATOM     19  C   UNL     1      -0.138   1.043  24.291  0.00  0.00    +0.093 C 
BRANCH  19  20
ATOM     20  N   UNL     1      -0.177   0.285  23.970  0.00  0.00    -0.213 NA
BRANCH  20  21
ATOM     21  C   UNL     1       0.002  -0.371  24.437  0.00  0.00    +0.115 C 
BRANCH  21  22
ATOM     22  C   UNL     1      -0.535  -0.993  24.498  0.00  0.00    -0.005 A 
ATOM     23  C   UNL     1      -0.769  -1.406  23.823  0.00  0.00    -0.002 A 
ATOM     24  C   UNL     1      -1.306  -2.028  23.884  0.00  0.00    +0.016 A 
ATOM     25  C   UNL     1      -1.611  -2.239  24.622  0.00  0.00    +0.073 A 
ATOM     30  C   UNL     1      -1.378  -1.827  25.298  0.00  0.00    +0.016 A 
ATOM     31  C   UNL     1      -0.840  -1.204  25.236  0.00  0.00    -0.002 A 
BRANCH  25  26
ATOM     26  N   UNL     1      -2.149  -2.862  24.683  0.00  0.00    -0.179 NA
ATOM     27  C   UNL     1      -2.958  -2.716  24.618  0.00  0.00    +0.246 C 
ATOM     28  C   UNL     1      -3.495  -3.338  24.680  0.00  0.00    +0.097 C 
ATOM     29  O   UNL     1      -3.230  -1.947  24.490  0.00  0.00    -0.273 OA
ENDBRANCH  25  26
ENDBRANCH  21  22
ENDBRANCH  20  21
ENDBRANCH  19  20
ENDBRANCH  18  19
TORSDOF 10
ENDMDL
MODEL 6
REMARK VINA RESULT:      -6.6      1.178      7.727
REMARK  Name = 
REMARK  10 active torsions:
REMARK  status: ('A' for Active; 'I' for Inactive)
REMARK    1  A    between atoms: O_2  and  C_3
REMARK    2  A    between atoms: C_3  and  C_5
REMARK    3  A    between atoms: C_10  and  C_11
REMARK    4  A    between atoms: C_11  and  C_12
REMARK    5  A    between atoms: C_14  and  C_15
REMARK    6  A    between atoms: C_18  and  C_19
REMARK    7  A    between atoms: C_19  and  N_20
REMARK    8  A    between atoms: N_20  and  C_21
REMARK    9  A    between atoms: C_21  and  C_22
REMARK   10  A    between atoms: C_25  and  N_26
REMARK                            x       y       z     vdW  Elec       q    Type
REMARK                         _______ _______ _______ _____ _____    ______ ____
ROOT
ATOM     12  C   UNL     1       0.554   0.068  23.284  0.00  0.00    +0.026 C 
ATOM     13  C   UNL     1       0.631   0.849  23.539  0.00  0.00    +0.005 C 
ATOM     14  C   UNL     1       0.086   1.164  24.072  0.00  0.00    +0.006 C 
ATOM     18  C   UNL     1      -0.535   0.700  24.350  0.00  0.00    +0.039 C 
ATOM     32  C   UNL     1      -0.613  -0.081  24.095  0.00  0.00    -0.033 C 
ATOM     33  C   UNL     1      -0.068  -0.397  23.562  0.00  0.00    -0.048 C 
ATOM     34  C   UNL     1      -0.146  -1.178  23.307  0.00  0.00    +0.026 C 
ENDROOT
BRANCH  14  15
ATOM     15  C   UNL     1       0.163   1.945  24.327  0.00  0.00    +0.000 C 
ATOM     16  C   UNL     1      -0.090   2.564  23.844  0.00  0.00    +0.000 C 
ATOM     17  C   UNL     1       0.495   2.108  25.065  0.00  0.00    +0.000 C 
ENDBRANCH  14  15
BRANCH  12  11
ATOM     11  C   UNL     1       1.098  -0.248  22.751  0.00  0.00    +0.070 C 
BRANCH  11  10
ATOM      5  C   UNL     1       4.562   0.314  23.269  0.00  0.00    +0.077 A 
ATOM      6  C   UNL     1       3.928  -0.159  23.498  0.00  0.00    +0.027 A 
ATOM      7  C   UNL     1       3.180  -0.035  23.172  0.00  0.00    +0.100 A 
ATOM      8  C   UNL     1       3.068   0.563  22.615  0.00  0.00    +0.100 A 
ATOM      9  N   UNL     1       2.275   0.556  22.389  0.00  0.00    -0.229 NA
ATOM     10  C   UNL     1       1.896  -0.046  22.807  0.00  0.00    +0.139 A 
ATOM     35  N   UNL     1       2.456  -0.411  23.290  0.00  0.00    -0.229 NA
ATOM     36  C   UNL     1       3.703   1.037  22.384  0.00  0.00    +0.021 A 
ATOM     37  C   UNL     1       4.450   0.912  22.712  0.00  0.00    +0.008 A 
BRANCH   5   3
ATOM      3  C   UNL     1       5.309   0.190  23.595  0.00  0.00    +0.341 C 
ATOM      4  O   UNL     1       5.468   0.438  24.366  0.00  0.00    -0.245 OA
BRANCH   3   2
ATOM      1  C   UNL     1       6.610  -0.394  23.507  0.00  0.00    +0.256 C 
ATOM      2  O   UNL     1       5.897  -0.182  23.152  0.00  0.00    -0.441 OA
ENDBRANCH   3   2
ENDBRANCH   5   3
ENDBRANCH  11  10
ENDBRANCH  12  11
BRANCH  18  19
ATOM     19  C   UNL     1      -1.081   1.015  24.883  0.00  0.00    +0.093 C 
BRANCH  19  20
ATOM     20  N   UNL     1      -1.882   0.836  24.809  0.00  0.00    -0.213 NA
BRANCH  20  21
ATOM     21  C   UNL     1      -2.416   1.081  25.389  0.00  0.00    +0.115 C 
BRANCH  21  22
ATOM     22  C   UNL     1      -3.204   1.218  25.192  0.00  0.00    -0.005 A 
ATOM     23  C   UNL     1      -3.738   0.590  25.162  0.00  0.00    -0.002 A 
ATOM     24  C   UNL     1      -4.527   0.727  24.966  0.00  0.00    +0.016 A 
ATOM     25  C   UNL     1      -4.783   1.493  24.799  0.00  0.00    +0.073 A 
ATOM     30  C   UNL     1      -4.250   2.122  24.828  0.00  0.00    +0.016 A 
ATOM     31  C   UNL     1      -3.460   1.985  25.025  0.00  0.00    -0.002 A 
BRANCH  25  26
ATOM     26  N   UNL     1      -5.573   1.631  24.602  0.00  0.00    -0.179 NA
ATOM     27  C   UNL     1      -6.102   1.896  25.177  0.00  0.00    +0.246 C 
ATOM     28  C   UNL     1      -6.890   2.033  24.980  0.00  0.00    +0.097 C 
ATOM     29  O   UNL     1      -5.840   2.023  25.949  0.00  0.00    -0.273 OA
ENDBRANCH  25  26
ENDBRANCH  21  22
ENDBRANCH  20  21
ENDBRANCH  19  20
ENDBRANCH  18  19
TORSDOF 10
ENDMDL
