MODEL 1
REMARK VINA RESULT:     -12.4      0.000      0.000
REMARK  Name = 
REMARK  5 active torsions:
REMARK  status: ('A' for Active; 'I' for Inactive)
REMARK    1  A    between atoms: C_2  and  N_4
REMARK    2  A    between atoms: C_10  and  C_11
REMARK    3  A    between atoms: C_11  and  C_12
REMARK    4  A    between atoms: C_15  and  C_16
REMARK    5  A    between atoms: C_16  and  C_17
REMARK                            x       y       z     vdW  Elec       q    Type
REMARK                         _______ _______ _______ _____ _____    ______ ____
ROOT
ATOM      4  N   UNL     1      -1.864   2.832  24.832  0.00  0.00    -0.190 NA
ATOM      5  C   UNL     1      -2.101   2.048  24.734  0.00  0.00    +0.323 C 
ATOM      6  O   UNL     1      -1.543   1.467  24.555  0.00  0.00    -0.251 OA
ATOM      7  N   UNL     1      -2.897   1.846  24.815  0.00  0.00    -0.263 N 
ATOM      8  C   UNL     1      -3.454   2.426  24.993  0.00  0.00    +0.095 C 
ATOM      9  C   UNL     1      -4.250   2.224  25.074  0.00  0.00    +0.022 C 
ATOM     10  C   UNL     1      -4.487   1.440  24.976  0.00  0.00    +0.015 C 
ATOM     15  C   UNL     1      -3.930   0.860  24.798  0.00  0.00    +0.026 C 
ATOM     28  C   UNL     1      -3.135   1.062  24.717  0.00  0.00    +0.095 C 
ENDROOT
BRANCH   4   2
ATOM      1  C   UNL     1      -0.598   3.136  25.422  0.00  0.00    +0.023 C 
ATOM      2  C   UNL     1      -1.067   3.035  24.751  0.00  0.00    +0.097 C 
ATOM      3  C   UNL     1      -0.741   3.135  24.000  0.00  0.00    +0.023 C 
ENDBRANCH   4   2
BRANCH  10  11
ATOM     11  C   UNL     1      -5.284   1.238  25.057  0.00  0.00    +0.114 C 
BRANCH  11  12
ATOM     12  C   UNL     1      -5.841   1.819  25.234  0.00  0.00    +0.365 C 
ATOM     13  O   UNL     1      -6.269   2.179  24.627  0.00  0.00    -0.246 OA
ATOM     14  O   UNL     1      -5.971   2.039  26.019  0.00  0.00    -0.246 OA
ENDBRANCH  11  12
ENDBRANCH  10  11
BRANCH  15  16
ATOM     16  C   UNL     1      -4.168   0.075  24.700  0.00  0.00    +0.047 C 
BRANCH  16  17
ATOM     17  C   UNL     1      -3.807  -0.523  25.138  0.00  0.00    +0.053 C 
ATOM     18  N   UNL     1      -3.458  -0.348  25.865  0.00  0.00    -0.274 NA
ATOM     19  C   UNL     1      -3.096  -0.948  26.303  0.00  0.00    +0.130 C 
ATOM     20  C   UNL     1      -3.085  -1.720  26.014  0.00  0.00    +0.053 C 
ATOM     21  C   UNL     1      -3.434  -1.895  25.287  0.00  0.00    -0.019 A 
ATOM     22  C   UNL     1      -3.796  -1.296  24.849  0.00  0.00    +0.009 A 
ATOM     23  C   UNL     1      -4.145  -1.470  24.122  0.00  0.00    -0.003 A 
ATOM     24  C   UNL     1      -4.133  -2.243  23.834  0.00  0.00    -0.022 A 
ATOM     25  C   UNL     1      -4.483  -2.418  23.107  0.00  0.00    +0.031 C 
ATOM     26  C   UNL     1      -3.772  -2.842  24.273  0.00  0.00    -0.005 A 
ATOM     27  C   UNL     1      -3.423  -2.668  24.999  0.00  0.00    -0.004 A 
ENDBRANCH  16  17
ENDBRANCH  15  16
TORSDOF 5
ENDMDL
MODEL 2
REMARK VINA RESULT:     -11.5      0.968      4.184
REMARK  Name = 
REMARK  5 active torsions:
REMARK  status: ('A' for Active; 'I' for Inactive)
REMARK    1  A    between atoms: C_2  and  N_4
REMARK    2  A    between atoms: C_10  and  C_11
REMARK    3  A    between atoms: C_11  and  C_12
REMARK    4  A    between atoms: C_15  and  C_16
REMARK    5  A    between atoms: C_16  and  C_17
REMARK                            x       y       z     vdW  Elec       q    Type
REMARK                         _______ _______ _______ _____ _____    ______ ____
ROOT
ATOM      4  N   UNL     1      -3.971  -1.568  24.781  0.00  0.00    -0.190 NA
ATOM      5  C   UNL     1      -3.504  -0.889  24.760  0.00  0.00    +0.323 C 
ATOM      6  O   UNL     1      -2.685  -0.953  24.682  0.00  0.00    -0.251 OA
ATOM      7  N   UNL     1      -3.856  -0.144  24.818  0.00  0.00    -0.263 N 
ATOM      8  C   UNL     1      -4.674  -0.080  24.896  0.00  0.00    +0.095 C 
ATOM      9  C   UNL     1      -5.027   0.663  24.954  0.00  0.00    +0.022 C 
ATOM     10  C   UNL     1      -4.559   1.343  24.933  0.00  0.00    +0.015 C 
ATOM     15  C   UNL     1      -3.742   1.279  24.854  0.00  0.00    +0.026 C 
ATOM     28  C   UNL     1      -3.389   0.535  24.797  0.00  0.00    +0.095 C 
ENDROOT
BRANCH   4   2
ATOM      1  C   UNL     1      -3.621  -2.714  24.004  0.00  0.00    +0.023 C 
ATOM      2  C   UNL     1      -3.619  -2.312  24.724  0.00  0.00    +0.097 C 
ATOM      3  C   UNL     1      -3.265  -2.654  25.386  0.00  0.00    +0.023 C 
ENDBRANCH   4   2
BRANCH  10  11
ATOM     11  C   UNL     1      -4.912   2.087  24.990  0.00  0.00    +0.114 C 
BRANCH  11  12
ATOM     12  C   UNL     1      -5.677   2.160  25.291  0.00  0.00    +0.365 C 
ATOM     13  O   UNL     1      -6.327   2.062  24.792  0.00  0.00    -0.246 OA
ATOM     14  O   UNL     1      -5.790   2.330  26.090  0.00  0.00    -0.246 OA
ENDBRANCH  11  12
ENDBRANCH  10  11
BRANCH  15  16
ATOM     16  C   UNL     1      -3.274   1.959  24.833  0.00  0.00    +0.047 C 
BRANCH  16  17
ATOM     17  C   UNL     1      -2.714   2.057  24.235  0.00  0.00    +0.053 C 
ATOM     18  N   UNL     1      -2.905   1.864  23.456  0.00  0.00    -0.274 NA
ATOM     19  C   UNL     1      -2.344   1.961  22.858  0.00  0.00    +0.130 C 
ATOM     20  C   UNL     1      -1.593   2.251  23.040  0.00  0.00    +0.053 C 
ATOM     21  C   UNL     1      -1.402   2.444  23.820  0.00  0.00    -0.019 A 
ATOM     22  C   UNL     1      -1.963   2.346  24.418  0.00  0.00    +0.009 A 
ATOM     23  C   UNL     1      -1.773   2.539  25.196  0.00  0.00    -0.003 A 
ATOM     24  C   UNL     1      -1.023   2.828  25.378  0.00  0.00    -0.022 A 
ATOM     25  C   UNL     1      -0.832   3.021  26.158  0.00  0.00    +0.031 C 
ATOM     26  C   UNL     1      -0.461   2.926  24.780  0.00  0.00    -0.005 A 
ATOM     27  C   UNL     1      -0.652   2.733  24.001  0.00  0.00    -0.004 A 
ENDBRANCH  16  17
ENDBRANCH  15  16
TORSDOF 5
ENDMDL
MODEL 3
REMARK VINA RESULT:     -11.2      1.412      2.848
REMARK  Name = 
REMARK  5 active torsions:
REMARK  status: ('A' for Active; 'I' for Inactive)
REMARK    1  A    between atoms: C_2  and  N_4
REMARK    2  A    between atoms: C_10  and  C_11
REMARK    3  A    between atoms: C_11  and  C_12
REMARK    4  A    between atoms: C_15  and  C_16
REMARK    5  A    between atoms: C_16  and  C_17
REMARK                            x       y       z     vdW  Elec       q    Type
REMARK                         _______ _______ _______ _____ _____    ______ ____
ROOT
ATOM      4  N   UNL     1      -5.067   2.992  25.143  0.00  0.00    -0.190 NA
ATOM      5  C   UNL     1      -4.867   2.196  25.067  0.00  0.00    +0.323 C 
ATOM      6  O   UNL     1      -5.245   1.629  25.531  0.00  0.00    -0.251 OA
ATOM      7  N   UNL     1      -4.287   1.967  24.526  0.00  0.00    -0.263 N 
ATOM      8  C   UNL     1      -3.909   2.534  24.062  0.00  0.00    +0.095 C 
ATOM      9  C   UNL     1      -3.330   2.305  23.521  0.00  0.00    +0.022 C 
ATOM     10  C   UNL     1      -3.129   1.509  23.445  0.00  0.00    +0.015 C 
ATOM     15  C   UNL     1      -3.507   0.942  23.909  0.00  0.00    +0.026 C 
ATOM     28  C   UNL     1      -4.086   1.171  24.450  0.00  0.00    +0.095 C 
ENDROOT
BRANCH   4   2
ATOM      1  C   UNL     1      -5.841   4.019  25.767  0.00  0.00    +0.023 C 
ATOM      2  C   UNL     1      -5.647   3.222  25.684  0.00  0.00    +0.097 C 
ATOM      3  C   UNL     1      -6.033   2.653  26.141  0.00  0.00    +0.023 C 
ENDBRANCH   4   2
BRANCH  10  11
ATOM     11  C   UNL     1      -2.549   1.280  22.904  0.00  0.00    +0.114 C 
BRANCH  11  12
ATOM     12  C   UNL     1      -2.183   1.845  22.427  0.00  0.00    +0.365 C 
ATOM     13  O   UNL     1      -1.506   2.234  22.696  0.00  0.00    -0.246 OA
ATOM     14  O   UNL     1      -2.493   2.020  21.683  0.00  0.00    -0.246 OA
ENDBRANCH  11  12
ENDBRANCH  10  11
BRANCH  15  16
ATOM     16  C   UNL     1      -3.305   0.145  23.833  0.00  0.00    +0.047 C 
BRANCH  16  17
ATOM     17  C   UNL     1      -3.052  -0.281  24.492  0.00  0.00    +0.053 C 
ATOM     18  N   UNL     1      -2.583   0.085  25.064  0.00  0.00    -0.274 NA
ATOM     19  C   UNL     1      -2.330  -0.342  25.724  0.00  0.00    +0.130 C 
ATOM     20  C   UNL     1      -2.545  -1.134  25.810  0.00  0.00    +0.053 C 
ATOM     21  C   UNL     1      -3.014  -1.500  25.238  0.00  0.00    -0.019 A 
ATOM     22  C   UNL     1      -3.267  -1.073  24.578  0.00  0.00    +0.009 A 
ATOM     23  C   UNL     1      -3.735  -1.438  24.006  0.00  0.00    -0.003 A 
ATOM     24  C   UNL     1      -3.951  -2.230  24.093  0.00  0.00    -0.022 A 
ATOM     25  C   UNL     1      -4.419  -2.596  23.521  0.00  0.00    +0.031 C 
ATOM     26  C   UNL     1      -3.697  -2.657  24.753  0.00  0.00    -0.005 A 
ATOM     27  C   UNL     1      -3.229  -2.291  25.325  0.00  0.00    -0.004 A 
ENDBRANCH  16  17
ENDBRANCH  15  16
TORSDOF 5
ENDMDL
MODEL 4
REMARK VINA RESULT:     -11.0      1.730      4.966
REMARK  Name = 
REMARK  5 active torsions:
REMARK  status: ('A' for Active; 'I' for Inactive)
REMARK    1  A    between atoms: C_2  and  N_4
REMARK    2  A    between atoms: C_10  and  C_11
REMARK    3  A    between atoms: C_11  and  C_12
REMARK    4  A    between atoms: C_15  and  C_16
REMARK    5  A    between atoms: C_16  and  C_17
REMARK                            x       y       z     vdW  Elec       q    Type
REMARK                         _______ _______ _______ _____ _____    ______ ____
ROOT
ATOM      4  N   UNL     1      -2.574  -1.448  24.742  0.00  0.00    -0.190 NA
ATOM      5  C   UNL     1      -2.775  -0.652  24.821  0.00  0.00    +0.323 C 
ATOM      6  O   UNL     1      -3.543  -0.440  25.036  0.00  0.00    -0.251 OA
ATOM      7  N   UNL     1      -2.208  -0.068  24.684  0.00  0.00    -0.263 N 
ATOM      8  C   UNL     1      -1.441  -0.280  24.469  0.00  0.00    +0.095 C 
ATOM      9  C   UNL     1      -0.874   0.303  24.333  0.00  0.00    +0.022 C 
ATOM     10  C   UNL     1      -1.076   1.099  24.412  0.00  0.00    +0.015 C 
ATOM     15  C   UNL     1      -1.843   1.311  24.626  0.00  0.00    +0.026 C 
ATOM     28  C   UNL     1      -2.410   0.728  24.763  0.00  0.00    +0.095 C 
ENDROOT
BRANCH   4   2
ATOM      1  C   UNL     1      -3.249  -2.331  25.640  0.00  0.00    +0.023 C 
ATOM      2  C   UNL     1      -3.141  -2.033  24.878  0.00  0.00    +0.097 C 
ATOM      3  C   UNL     1      -3.598  -2.318  24.254  0.00  0.00    +0.023 C 
ENDBRANCH   4   2
BRANCH  10  11
ATOM     11  C   UNL     1      -0.509   1.684  24.275  0.00  0.00    +0.114 C 
BRANCH  11  12
ATOM     12  C   UNL     1       0.293   1.505  24.349  0.00  0.00    +0.365 C 
ATOM     13  O   UNL     1       0.691   1.133  23.729  0.00  0.00    -0.246 OA
ATOM     14  O   UNL     1       0.696   1.699  25.042  0.00  0.00    -0.246 OA
ENDBRANCH  11  12
ENDBRANCH  10  11
BRANCH  15  16
ATOM     16  C   UNL     1      -2.044   2.108  24.705  0.00  0.00    +0.047 C 
BRANCH  16  17
ATOM     17  C   UNL     1      -2.698   2.410  24.302  0.00  0.00    +0.053 C 
ATOM     18  N   UNL     1      -2.874   2.140  23.543  0.00  0.00    -0.274 NA
ATOM     19  C   UNL     1      -3.529   2.443  23.139  0.00  0.00    +0.130 C 
ATOM     20  C   UNL     1      -4.005   3.015  23.496  0.00  0.00    +0.053 C 
ATOM     21  C   UNL     1      -3.828   3.284  24.256  0.00  0.00    -0.019 A 
ATOM     22  C   UNL     1      -3.174   2.982  24.659  0.00  0.00    +0.009 A 
ATOM     23  C   UNL     1      -2.997   3.251  25.418  0.00  0.00    -0.003 A 
ATOM     24  C   UNL     1      -3.473   3.822  25.775  0.00  0.00    -0.022 A 
ATOM     25  C   UNL     1      -3.296   4.092  26.534  0.00  0.00    +0.031 C 
ATOM     26  C   UNL     1      -4.127   4.125  25.371  0.00  0.00    -0.005 A 
ATOM     27  C   UNL     1      -4.304   3.856  24.612  0.00  0.00    -0.004 A 
ENDBRANCH  16  17
ENDBRANCH  15  16
TORSDOF 5
ENDMDL
MODEL 5
REMARK VINA RESULT:     -10.2      2.311      3.647
REMARK  Name = 
REMARK  5 active torsions:
REMARK  status: ('A' for Active; 'I' for Inactive)
REMARK    1  A    between atoms: C_2  and  N_4
REMARK    2  A    between atoms: C_10  and  C_11
REMARK    3  A    between atoms: C_11  and  C_12
REMARK    4  A    between atoms: C_15  and  C_16
REMARK    5  A    between atoms: C_16  and  C_17
REMARK                            x       y       z     vdW  Elec       q    Type
REMARK                         _______ _______ _______ _____ _____    ______ ____
ROOT
ATOM      4  N   UNL     1       1.275   0.507  23.151  0.00  0.00    -0.190 NA
ATOM      5  C   UNL     1       0.544   0.263  23.446  0.00  0.00    +0.323 C 
ATOM      6  O   UNL     1       0.217  -0.453  23.198  0.00  0.00    -0.251 OA
ATOM      7  N   UNL     1       0.140   0.736  23.989  0.00  0.00    -0.263 N 
ATOM      8  C   UNL     1       0.466   1.451  24.236  0.00  0.00    +0.095 C 
ATOM      9  C   UNL     1       0.063   1.924  24.778  0.00  0.00    +0.022 C 
ATOM     10  C   UNL     1      -0.668   1.679  25.073  0.00  0.00    +0.015 C 
ATOM     15  C   UNL     1      -0.994   0.964  24.826  0.00  0.00    +0.026 C 
ATOM     28  C   UNL     1      -0.591   0.492  24.283  0.00  0.00    +0.095 C 
ENDROOT
BRANCH   4   2
ATOM      1  C   UNL     1       2.469  -0.161  22.740  0.00  0.00    +0.023 C 
ATOM      2  C   UNL     1       1.679   0.035  22.608  0.00  0.00    +0.097 C 
ATOM      3  C   UNL     1       1.292  -0.242  21.933  0.00  0.00    +0.023 C 
ENDBRANCH   4   2
BRANCH  10  11
ATOM     11  C   UNL     1      -1.072   2.152  25.616  0.00  0.00    +0.114 C 
BRANCH  11  12
ATOM     12  C   UNL     1      -0.686   2.782  25.982  0.00  0.00    +0.365 C 
ATOM     13  O   UNL     1      -0.767   3.546  25.681  0.00  0.00    -0.246 OA
ATOM     14  O   UNL     1      -0.219   2.648  26.649  0.00  0.00    -0.246 OA
ENDBRANCH  11  12
ENDBRANCH  10  11
BRANCH  15  16
ATOM     16  C   UNL     1      -1.726   0.720  25.121  0.00  0.00    +0.047 C 
BRANCH  16  17
ATOM     17  C   UNL     1      -2.358   0.597  24.606  0.00  0.00    +0.053 C 
ATOM     18  N   UNL     1      -2.462   1.093  23.955  0.00  0.00    -0.274 NA
ATOM     19  C   UNL     1      -3.095   0.970  23.439  0.00  0.00    +0.130 C 
ATOM     20  C   UNL     1      -3.624   0.351  23.576  0.00  0.00    +0.053 C 
ATOM     21  C   UNL     1      -3.520  -0.145  24.228  0.00  0.00    -0.019 A 
ATOM     22  C   UNL     1      -2.887  -0.022  24.743  0.00  0.00    +0.009 A 
ATOM     23  C   UNL     1      -2.783  -0.517  25.394  0.00  0.00    -0.003 A 
ATOM     24  C   UNL     1      -3.311  -1.135  25.531  0.00  0.00    -0.022 A 
ATOM     25  C   UNL     1      -3.208  -1.631  26.182  0.00  0.00    +0.031 C 
ATOM     26  C   UNL     1      -3.945  -1.258  25.015  0.00  0.00    -0.005 A 
ATOM     27  C   UNL     1      -4.048  -0.763  24.364  0.00  0.00    -0.004 A 
ENDBRANCH  16  17
ENDBRANCH  15  16
TORSDOF 5
ENDMDL
MODEL 6
REMARK VINA RESULT:     -10.1      2.173      4.181
REMARK  Name = 
REMARK  5 active torsions:
REMARK  status: ('A' for Active; 'I' for Inactive)
REMARK    1  A    between atoms: C_2  and  N_4
REMARK    2  A    between atoms: C_10  and  C_11
REMARK    3  A    between atoms: C_11  and  C_12
REMARK    4  A    between atoms: C_15  and  C_16
REMARK    5  A    between atoms: C_16  and  C_17
REMARK                            x       y       z     vdW  Elec       q    Type
REMARK                         _______ _______ _______ _____ _____    ______ ____
ROOT
ATOM      4  N   UNL     1       0.058  -0.109  23.703  0.00  0.00    -0.190 NA
ATOM      5  C   UNL     1      -0.484   0.482  23.895  0.00  0.00    +0.323 C 
ATOM      6  O   UNL     1      -0.312   1.271  23.725  0.00  0.00    -0.251 OA
ATOM      7  N   UNL     1      -1.198   0.284  24.258  0.00  0.00    -0.263 N 
ATOM      8  C   UNL     1      -1.370  -0.504  24.428  0.00  0.00    +0.095 C 
ATOM      9  C   UNL     1      -2.083  -0.702  24.791  0.00  0.00    +0.022 C 
ATOM     10  C   UNL     1      -2.625  -0.111  24.983  0.00  0.00    +0.015 C 
ATOM     15  C   UNL     1      -2.454   0.677  24.813  0.00  0.00    +0.026 C 
ATOM     28  C   UNL     1      -1.740   0.875  24.451  0.00  0.00    +0.095 C 
ENDROOT
BRANCH   4   2
ATOM      1  C   UNL     1       0.973  -0.248  22.614  0.00  0.00    +0.023 C 
ATOM      2  C   UNL     1       0.773   0.089  23.339  0.00  0.00    +0.097 C 
ATOM      3  C   UNL     1       1.286   0.624  23.702  0.00  0.00    +0.023 C 
ENDBRANCH   4   2
BRANCH  10  11
ATOM     11  C   UNL     1      -3.340  -0.309  25.347  0.00  0.00    +0.114 C 
BRANCH  11  12
ATOM     12  C   UNL     1      -3.481  -1.087  25.582  0.00  0.00    +0.365 C 
ATOM     13  O   UNL     1      -3.293  -1.326  26.350  0.00  0.00    -0.246 OA
ATOM     14  O   UNL     1      -3.810  -1.625  25.050  0.00  0.00    -0.246 OA
ENDBRANCH  11  12
ENDBRANCH  10  11
BRANCH  15  16
ATOM     16  C   UNL     1      -2.997   1.268  25.006  0.00  0.00    +0.047 C 
BRANCH  16  17
ATOM     17  C   UNL     1      -3.244   1.805  24.430  0.00  0.00    +0.053 C 
ATOM     18  N   UNL     1      -3.399   1.543  23.663  0.00  0.00    -0.274 NA
ATOM     19  C   UNL     1      -3.647   2.080  23.086  0.00  0.00    +0.130 C 
ATOM     20  C   UNL     1      -3.740   2.878  23.279  0.00  0.00    +0.053 C 
ATOM     21  C   UNL     1      -3.585   3.139  24.046  0.00  0.00    -0.019 A 
ATOM     22  C   UNL     1      -3.337   2.602  24.623  0.00  0.00    +0.009 A 
ATOM     23  C   UNL     1      -3.183   2.863  25.389  0.00  0.00    -0.003 A 
ATOM     24  C   UNL     1      -3.276   3.659  25.581  0.00  0.00    -0.022 A 
ATOM     25  C   UNL     1      -3.121   3.920  26.348  0.00  0.00    +0.031 C 
ATOM     26  C   UNL     1      -3.524   4.196  25.004  0.00  0.00    -0.005 A 
ATOM     27  C   UNL     1      -3.678   3.935  24.237  0.00  0.00    -0.004 A 
ENDBRANCH  16  17
ENDBRANCH  15  16
TORSDOF 5
ENDMDL
MODEL 7
REMARK VINA RESULT:     -10.1      1.543      4.485
REMARK  Name = 
REMARK  5 active torsions:
REMARK  status: ('A' for Active; 'I' for Inactive)
REMARK    1  A    between atoms: C_2  and  N_4
REMARK    2  A    between atoms: C_10  and  C_11
REMARK    3  A    between atoms: C_11  and  C_12
REMARK    4  A    between atoms: C_15  and  C_16
REMARK    5  A    between atoms: C_16  and  C_17
REMARK                            x       y       z     vdW  Elec       q    Type
REMARK                         _______ _______ _______ _____ _____    ______ ____
ROOT
ATOM      4  N   UNL     1      -5.469   1.206  25.244  0.00  0.00    -0.190 NA
ATOM      5  C   UNL     1      -4.666   1.393  25.208  0.00  0.00    +0.323 C 
ATOM      6  O   UNL     1      -4.422   2.178  25.268  0.00  0.00    -0.251 OA
ATOM      7  N   UNL     1      -4.107   0.793  25.111  0.00  0.00    -0.263 N 
ATOM      8  C   UNL     1      -4.351   0.008  25.051  0.00  0.00    +0.095 C 
ATOM      9  C   UNL     1      -3.793  -0.592  24.954  0.00  0.00    +0.022 C 
ATOM     10  C   UNL     1      -2.990  -0.404  24.918  0.00  0.00    +0.015 C 
ATOM     15  C   UNL     1      -2.747   0.380  24.978  0.00  0.00    +0.026 C 
ATOM     28  C   UNL     1      -3.305   0.980  25.075  0.00  0.00    +0.095 C 
ENDROOT
BRANCH   4   2
ATOM      1  C   UNL     1      -6.482   2.053  24.698  0.00  0.00    +0.023 C 
ATOM      2  C   UNL     1      -6.028   1.806  25.341  0.00  0.00    +0.097 C 
ATOM      3  C   UNL     1      -6.132   2.157  26.080  0.00  0.00    +0.023 C 
ENDBRANCH   4   2
BRANCH  10  11
ATOM     11  C   UNL     1      -2.431  -1.004  24.821  0.00  0.00    +0.114 C 
BRANCH  11  12
ATOM     12  C   UNL     1      -2.669  -1.794  24.824  0.00  0.00    +0.365 C 
ATOM     13  O   UNL     1      -2.823  -2.180  24.111  0.00  0.00    -0.246 OA
ATOM     14  O   UNL     1      -2.752  -2.197  25.539  0.00  0.00    -0.246 OA
ENDBRANCH  11  12
ENDBRANCH  10  11
BRANCH  15  16
ATOM     16  C   UNL     1      -1.943   0.567  24.942  0.00  0.00    +0.047 C 
BRANCH  16  17
ATOM     17  C   UNL     1      -1.682   1.169  24.441  0.00  0.00    +0.053 C 
ATOM     18  N   UNL     1      -1.958   1.208  23.665  0.00  0.00    -0.274 NA
ATOM     19  C   UNL     1      -1.697   1.811  23.164  0.00  0.00    +0.130 C 
ATOM     20  C   UNL     1      -1.159   2.372  23.441  0.00  0.00    +0.053 C 
ATOM     21  C   UNL     1      -0.882   2.332  24.217  0.00  0.00    -0.019 A 
ATOM     22  C   UNL     1      -1.144   1.730  24.718  0.00  0.00    +0.009 A 
ATOM     23  C   UNL     1      -0.867   1.690  25.494  0.00  0.00    -0.003 A 
ATOM     24  C   UNL     1      -0.330   2.251  25.769  0.00  0.00    -0.022 A 
ATOM     25  C   UNL     1      -0.053   2.211  26.546  0.00  0.00    +0.031 C 
ATOM     26  C   UNL     1      -0.068   2.853  25.268  0.00  0.00    -0.005 A 
ATOM     27  C   UNL     1      -0.344   2.893  24.493  0.00  0.00    -0.004 A 
ENDBRANCH  16  17
ENDBRANCH  15  16
TORSDOF 5
ENDMDL
MODEL 8
REMARK VINA RESULT:     -10.1      2.045      3.446
REMARK  Name = 
REMARK  5 active torsions:
REMARK  status: ('A' for Active; 'I' for Inactive)
REMARK    1  A    between atoms: C_2  and  N_4
REMARK    2  A    between atoms: C_10  and  C_11
REMARK    3  A    between atoms: C_11  and  C_12
REMARK    4  A    between atoms: C_15  and  C_16
REMARK    5  A    between atoms: C_16  and  C_17
REMARK                            x       y       z     vdW  Elec       q    Type
REMARK                         _______ _______ _______ _____ _____    ______ ____
ROOT
ATOM      4  N   UNL     1      -0.801   3.319  24.886  0.00  0.00    -0.190 NA
ATOM      5  C   UNL     1      -1.230   2.614  24.876  0.00  0.00    +0.323 C 
ATOM      6  O   UNL     1      -1.996   2.592  25.179  0.00  0.00    -0.251 OA
ATOM      7  N   UNL     1      -0.890   1.931  24.561  0.00  0.00    -0.263 N 
ATOM      8  C   UNL     1      -0.125   1.953  24.257  0.00  0.00    +0.095 C 
ATOM      9  C   UNL     1       0.215   1.270  23.943  0.00  0.00    +0.022 C 
ATOM     10  C   UNL     1      -0.213   0.565  23.932  0.00  0.00    +0.015 C 
ATOM     15  C   UNL     1      -0.979   0.543  24.235  0.00  0.00    +0.026 C 
ATOM     28  C   UNL     1      -1.319   1.226  24.550  0.00  0.00    +0.095 C 
ENDROOT
BRANCH   4   2
ATOM      1  C   UNL     1      -0.997   4.734  24.848  0.00  0.00    +0.023 C 
ATOM      2  C   UNL     1      -1.141   4.003  25.201  0.00  0.00    +0.097 C 
ATOM      3  C   UNL     1      -1.624   3.954  25.868  0.00  0.00    +0.023 C 
ENDBRANCH   4   2
BRANCH  10  11
ATOM     11  C   UNL     1       0.126  -0.118  23.617  0.00  0.00    +0.114 C 
BRANCH  11  12
ATOM     12  C   UNL     1       0.785  -0.063  23.124  0.00  0.00    +0.365 C 
ATOM     13  O   UNL     1       1.543  -0.050  23.450  0.00  0.00    -0.246 OA
ATOM     14  O   UNL     1       0.685  -0.019  22.306  0.00  0.00    -0.246 OA
ENDBRANCH  11  12
ENDBRANCH  10  11
BRANCH  15  16
ATOM     16  C   UNL     1      -1.407  -0.163  24.225  0.00  0.00    +0.047 C 
BRANCH  16  17
ATOM     17  C   UNL     1      -1.698  -0.480  24.929  0.00  0.00    +0.053 C 
ATOM     18  N   UNL     1      -1.239  -0.450  25.614  0.00  0.00    -0.274 NA
ATOM     19  C   UNL     1      -1.530  -0.768  26.319  0.00  0.00    +0.130 C 
ATOM     20  C   UNL     1      -2.278  -1.115  26.337  0.00  0.00    +0.053 C 
ATOM     21  C   UNL     1      -2.737  -1.145  25.652  0.00  0.00    -0.019 A 
ATOM     22  C   UNL     1      -2.446  -0.827  24.947  0.00  0.00    +0.009 A 
ATOM     23  C   UNL     1      -2.904  -0.856  24.262  0.00  0.00    -0.003 A 
ATOM     24  C   UNL     1      -3.652  -1.203  24.280  0.00  0.00    -0.022 A 
ATOM     25  C   UNL     1      -4.111  -1.233  23.595  0.00  0.00    +0.031 C 
ATOM     26  C   UNL     1      -3.943  -1.521  24.985  0.00  0.00    -0.005 A 
ATOM     27  C   UNL     1      -3.485  -1.491  25.670  0.00  0.00    -0.004 A 
ENDBRANCH  16  17
ENDBRANCH  15  16
TORSDOF 5
ENDMDL
