MODEL 1
REMARK VINA RESULT:      -9.5      0.000      0.000
REMARK  Name = 
REMARK  7 active torsions:
REMARK  status: ('A' for Active; 'I' for Inactive)
REMARK    1  A    between atoms: N_2  and  C_3
REMARK    2  A    between atoms: C_3  and  C_4
REMARK    3  A    between atoms: C_3  and  C_7
REMARK    4  A    between atoms: N_9  and  C_10
REMARK    5  A    between atoms: C_12  and  C_18
REMARK    6  A    between atoms: N_20  and  C_21
REMARK    7  A    between atoms: C_21  and  C_23
REMARK                            x       y       z     vdW  Elec       q    Type
REMARK                         _______ _______ _______ _____ _____    ______ ____
ROOT
ATOM     10  C   UNL     1      -3.567   2.101  24.527  0.00  0.00    +0.150 C 
ATOM     11  C   UNL     1      -3.472   1.298  24.366  0.00  0.00    -0.002 C 
ATOM     12  C   UNL     1      -4.111   0.782  24.452  0.00  0.00    +0.033 C 
ATOM     13  C   UNL     1      -4.843   1.070  24.699  0.00  0.00    +0.066 C 
ATOM     14  C   UNL     1      -4.937   1.874  24.860  0.00  0.00    +0.189 C 
ATOM     15  O   UNL     1      -5.670   2.162  25.107  0.00  0.00    -0.220 OA
ATOM     16  C   UNL     1      -4.299   2.389  24.774  0.00  0.00    +0.206 C 
ATOM     17  O   UNL     1      -4.393   3.193  24.935  0.00  0.00    -0.218 OA
ENDROOT
BRANCH  10   9
ATOM      7  C   UNL     1      -2.234   2.488  24.868  0.00  0.00    +0.258 C 
ATOM      8  O   UNL     1      -2.179   1.846  25.380  0.00  0.00    -0.272 OA
ATOM      9  N   UNL     1      -2.928   2.617  24.441  0.00  0.00    -0.199 NA
BRANCH   7   3
ATOM      3  C   UNL     1      -1.595   3.004  24.782  0.00  0.00    +0.150 C 
BRANCH   3   4
ATOM      4  C   UNL     1      -1.347   3.463  25.420  0.00  0.00    +0.025 C 
ATOM      5  C   UNL     1      -0.998   3.104  26.075  0.00  0.00    +0.002 C 
ATOM      6  C   UNL     1      -1.447   4.282  25.403  0.00  0.00    +0.002 C 
ENDBRANCH   3   4
BRANCH   3   2
ATOM      1  C   UNL     1      -0.412   2.841  23.997  0.00  0.00    +0.108 C 
ATOM      2  N   UNL     1      -1.206   3.060  24.057  0.00  0.00    -0.209 NA
ENDBRANCH   3   2
ENDBRANCH   7   3
ENDBRANCH  10   9
BRANCH  12  18
ATOM     18  C   UNL     1      -4.016  -0.021  24.291  0.00  0.00    +0.261 C 
ATOM     19  O   UNL     1      -3.965  -0.283  23.510  0.00  0.00    -0.269 OA
ATOM     20  N   UNL     1      -3.972  -0.563  24.912  0.00  0.00    -0.194 NA
BRANCH  20  21
ATOM     21  C   UNL     1      -3.877  -1.367  24.751  0.00  0.00    +0.175 C 
ATOM     22  C   UNL     1      -4.150  -1.681  24.038  0.00  0.00    +0.033 C 
BRANCH  21  23
ATOM     23  C   UNL     1      -3.510  -1.858  25.304  0.00  0.00    +0.281 C 
ATOM     24  N   UNL     1      -3.199  -2.584  25.068  0.00  0.00    -0.086 NA
ATOM     25  O   UNL     1      -3.453  -1.621  26.092  0.00  0.00    -0.270 OA
ENDBRANCH  21  23
ENDBRANCH  20  21
ENDBRANCH  12  18
TORSDOF 7
ENDMDL
MODEL 2
REMARK VINA RESULT:      -9.2      1.677      2.598
REMARK  Name = 
REMARK  7 active torsions:
REMARK  status: ('A' for Active; 'I' for Inactive)
REMARK    1  A    between atoms: N_2  and  C_3
REMARK    2  A    between atoms: C_3  and  C_4
REMARK    3  A    between atoms: C_3  and  C_7
REMARK    4  A    between atoms: N_9  and  C_10
REMARK    5  A    between atoms: C_12  and  C_18
REMARK    6  A    between atoms: N_20  and  C_21
REMARK    7  A    between atoms: C_21  and  C_23
REMARK                            x       y       z     vdW  Elec       q    Type
REMARK                         _______ _______ _______ _____ _____    ______ ____
ROOT
ATOM     10  C   UNL     1      -1.708   1.485  24.331  0.00  0.00    +0.150 C 
ATOM     11  C   UNL     1      -2.171   0.881  24.650  0.00  0.00    -0.002 C 
ATOM     12  C   UNL     1      -1.863   0.118  24.716  0.00  0.00    +0.033 C 
ATOM     13  C   UNL     1      -1.095  -0.040  24.464  0.00  0.00    +0.066 C 
ATOM     14  C   UNL     1      -0.632   0.565  24.145  0.00  0.00    +0.189 C 
ATOM     15  O   UNL     1       0.137   0.407  23.892  0.00  0.00    -0.220 OA
ATOM     16  C   UNL     1      -0.940   1.328  24.079  0.00  0.00    +0.206 C 
ATOM     17  O   UNL     1      -0.478   1.933  23.760  0.00  0.00    -0.218 OA
ENDROOT
BRANCH  10   9
ATOM      7  C   UNL     1      -2.241   2.662  24.943  0.00  0.00    +0.258 C 
ATOM      8  O   UNL     1      -2.159   2.313  25.685  0.00  0.00    -0.272 OA
ATOM      9  N   UNL     1      -2.016   2.249  24.265  0.00  0.00    -0.199 NA
BRANCH   7   3
ATOM      3  C   UNL     1      -2.549   3.425  24.877  0.00  0.00    +0.150 C 
BRANCH   3   4
ATOM      4  C   UNL     1      -2.327   4.008  25.417  0.00  0.00    +0.025 C 
ATOM      5  C   UNL     1      -1.741   4.552  25.219  0.00  0.00    +0.002 C 
ATOM      6  C   UNL     1      -2.693   4.045  26.156  0.00  0.00    +0.002 C 
ENDBRANCH   3   4
BRANCH   3   2
ATOM      1  C   UNL     1      -3.854   3.823  24.451  0.00  0.00    +0.108 C 
ATOM      2  N   UNL     1      -3.078   3.605  24.270  0.00  0.00    -0.209 NA
ENDBRANCH   3   2
ENDBRANCH   7   3
ENDBRANCH  10   9
BRANCH  12  18
ATOM     18  C   UNL     1      -2.325  -0.486  25.035  0.00  0.00    +0.261 C 
ATOM     19  O   UNL     1      -2.220  -0.717  25.820  0.00  0.00    -0.269 OA
ATOM     20  N   UNL     1      -2.893  -0.860  24.567  0.00  0.00    -0.194 NA
BRANCH  20  21
ATOM     21  C   UNL     1      -3.356  -1.465  24.885  0.00  0.00    +0.175 C 
ATOM     22  C   UNL     1      -3.463  -1.516  25.702  0.00  0.00    +0.033 C 
BRANCH  21  23
ATOM     23  C   UNL     1      -3.712  -2.019  24.387  0.00  0.00    +0.281 C 
ATOM     24  N   UNL     1      -4.330  -1.789  23.891  0.00  0.00    -0.086 NA
ATOM     25  O   UNL     1      -3.450  -2.800  24.384  0.00  0.00    -0.270 OA
ENDBRANCH  21  23
ENDBRANCH  20  21
ENDBRANCH  12  18
TORSDOF 7
ENDMDL
MODEL 3
REMARK VINA RESULT:      -9.1      1.201      4.135
REMARK  Name = 
REMARK  7 active torsions:
REMARK  status: ('A' for Active; 'I' for Inactive)
REMARK    1  A    between atoms: N_2  and  C_3
REMARK    2  A    between atoms: C_3  and  C_4
REMARK    3  A    between atoms: C_3  and  C_7
REMARK    4  A    between atoms: N_9  and  C_10
REMARK    5  A    between atoms: C_12  and  C_18
REMARK    6  A    between atoms: N_20  and  C_21
REMARK    7  A    between atoms: C_21  and  C_23
REMARK                            x       y       z     vdW  Elec       q    Type
REMARK                         _______ _______ _______ _____ _____    ______ ____
ROOT
ATOM     10  C   UNL     1      -4.384   1.486  24.871  0.00  0.00    +0.150 C 
ATOM     11  C   UNL     1      -3.731   1.981  24.774  0.00  0.00    -0.002 C 
ATOM     12  C   UNL     1      -3.769   2.767  25.026  0.00  0.00    +0.033 C 
ATOM     13  C   UNL     1      -4.458   3.055  25.374  0.00  0.00    +0.066 C 
ATOM     14  C   UNL     1      -5.111   2.559  25.470  0.00  0.00    +0.189 C 
ATOM     15  O   UNL     1      -5.801   2.848  25.818  0.00  0.00    -0.220 OA
ATOM     16  C   UNL     1      -5.073   1.774  25.219  0.00  0.00    +0.206 C 
ATOM     17  O   UNL     1      -5.726   1.278  25.315  0.00  0.00    -0.218 OA
ENDROOT
BRANCH  10   9
ATOM      7  C   UNL     1      -3.763   0.200  24.919  0.00  0.00    +0.258 C 
ATOM      8  O   UNL     1      -3.219   0.482  25.469  0.00  0.00    -0.272 OA
ATOM      9  N   UNL     1      -4.346   0.700  24.619  0.00  0.00    -0.199 NA
BRANCH   7   3
ATOM      3  C   UNL     1      -3.725  -0.586  24.667  0.00  0.00    +0.150 C 
BRANCH   3   4
ATOM      4  C   UNL     1      -3.243  -1.124  25.065  0.00  0.00    +0.025 C 
ATOM      5  C   UNL     1      -2.491  -1.295  24.776  0.00  0.00    +0.002 C 
ATOM      6  C   UNL     1      -3.515  -1.491  25.752  0.00  0.00    +0.002 C 
ENDBRANCH   3   4
BRANCH   3   2
ATOM      1  C   UNL     1      -4.251  -1.637  23.853  0.00  0.00    +0.108 C 
ATOM      2  N   UNL     1      -4.170  -0.832  24.017  0.00  0.00    -0.209 NA
ENDBRANCH   3   2
ENDBRANCH   7   3
ENDBRANCH  10   9
BRANCH  12  18
ATOM     18  C   UNL     1      -3.117   3.262  24.930  0.00  0.00    +0.261 C 
ATOM     19  O   UNL     1      -3.078   3.772  24.283  0.00  0.00    -0.269 OA
ATOM     20  N   UNL     1      -2.503   3.246  25.481  0.00  0.00    -0.194 NA
BRANCH  20  21
ATOM     21  C   UNL     1      -1.850   3.741  25.384  0.00  0.00    +0.175 C 
ATOM     22  C   UNL     1      -1.955   4.517  25.123  0.00  0.00    +0.033 C 
BRANCH  21  23
ATOM     23  C   UNL     1      -1.091   3.461  25.550  0.00  0.00    +0.281 C 
ATOM     24  N   UNL     1      -0.472   3.615  25.028  0.00  0.00    -0.086 NA
ATOM     25  O   UNL     1      -0.953   3.027  26.237  0.00  0.00    -0.270 OA
ENDBRANCH  21  23
ENDBRANCH  20  21
ENDBRANCH  12  18
TORSDOF 7
ENDMDL
MODEL 4
REMARK VINA RESULT:      -9.0      1.488      4.344
REMARK  Name = 
REMARK  7 active torsions:
REMARK  status: ('A' for Active; 'I' for Inactive)
REMARK    1  A    between atoms: N_2  and  C_3
REMARK    2  A    between atoms: C_3  and  C_4
REMARK    3  A    between atoms: C_3  and  C_7
REMARK    4  A    between atoms: N_9  and  C_10
REMARK    5  A    between atoms: C_12  and  C_18
REMARK    6  A    between atoms: N_20  and  C_21
REMARK    7  A    between atoms: C_21  and  C_23
REMARK                            x       y       z     vdW  Elec       q    Type
REMARK                         _______ _______ _______ _____ _____    ______ ____
ROOT
ATOM     10  C   UNL     1      -1.979   0.611  24.758  0.00  0.00    +0.150 C 
ATOM     11  C   UNL     1      -2.609   1.110  24.572  0.00  0.00    -0.002 C 
ATOM     12  C   UNL     1      -2.584   1.905  24.793  0.00  0.00    +0.033 C 
ATOM     13  C   UNL     1      -1.930   2.200  25.199  0.00  0.00    +0.066 C 
ATOM     14  C   UNL     1      -1.300   1.700  25.385  0.00  0.00    +0.189 C 
ATOM     15  O   UNL     1      -0.645   1.995  25.791  0.00  0.00    -0.220 OA
ATOM     16  C   UNL     1      -1.325   0.906  25.164  0.00  0.00    +0.206 C 
ATOM     17  O   UNL     1      -0.695   0.406  25.350  0.00  0.00    -0.218 OA
ENDROOT
BRANCH  10   9
ATOM      7  C   UNL     1      -2.578  -0.682  24.858  0.00  0.00    +0.258 C 
ATOM      8  O   UNL     1      -3.126  -0.387  25.398  0.00  0.00    -0.272 OA
ATOM      9  N   UNL     1      -2.004  -0.184  24.537  0.00  0.00    -0.199 NA
BRANCH   7   3
ATOM      3  C   UNL     1      -2.603  -1.478  24.637  0.00  0.00    +0.150 C 
BRANCH   3   4
ATOM      4  C   UNL     1      -3.297  -1.912  24.736  0.00  0.00    +0.025 C 
ATOM      5  C   UNL     1      -3.447  -2.293  25.452  0.00  0.00    +0.002 C 
ATOM      6  C   UNL     1      -3.842  -1.965  24.118  0.00  0.00    +0.002 C 
ENDBRANCH   3   4
BRANCH   3   2
ATOM      1  C   UNL     1      -1.807  -2.646  24.427  0.00  0.00    +0.108 C 
ATOM      2  N   UNL     1      -1.933  -1.837  24.317  0.00  0.00    -0.209 NA
ENDBRANCH   3   2
ENDBRANCH   7   3
ENDBRANCH  10   9
BRANCH  12  18
ATOM     18  C   UNL     1      -3.214   2.404  24.607  0.00  0.00    +0.261 C 
ATOM     19  O   UNL     1      -3.231   2.795  23.881  0.00  0.00    -0.269 OA
ATOM     20  N   UNL     1      -3.827   2.512  25.149  0.00  0.00    -0.194 NA
BRANCH  20  21
ATOM     21  C   UNL     1      -4.457   3.012  24.963  0.00  0.00    +0.175 C 
ATOM     22  C   UNL     1      -4.359   3.611  24.404  0.00  0.00    +0.033 C 
BRANCH  21  23
ATOM     23  C   UNL     1      -5.187   2.912  25.337  0.00  0.00    +0.281 C 
ATOM     24  N   UNL     1      -5.332   3.279  26.061  0.00  0.00    -0.086 NA
ATOM     25  O   UNL     1      -5.769   2.445  24.987  0.00  0.00    -0.270 OA
ENDBRANCH  21  23
ENDBRANCH  20  21
ENDBRANCH  12  18
TORSDOF 7
ENDMDL
MODEL 5
REMARK VINA RESULT:      -8.8      1.958      3.313
REMARK  Name = 
REMARK  7 active torsions:
REMARK  status: ('A' for Active; 'I' for Inactive)
REMARK    1  A    between atoms: N_2  and  C_3
REMARK    2  A    between atoms: C_3  and  C_4
REMARK    3  A    between atoms: C_3  and  C_7
REMARK    4  A    between atoms: N_9  and  C_10
REMARK    5  A    between atoms: C_12  and  C_18
REMARK    6  A    between atoms: N_20  and  C_21
REMARK    7  A    between atoms: C_21  and  C_23
REMARK                            x       y       z     vdW  Elec       q    Type
REMARK                         _______ _______ _______ _____ _____    ______ ____
ROOT
ATOM     10  C   UNL     1      -1.692   2.497  25.120  0.00  0.00    +0.150 C 
ATOM     11  C   UNL     1      -1.482   1.789  24.753  0.00  0.00    -0.002 C 
ATOM     12  C   UNL     1      -0.800   1.388  24.991  0.00  0.00    +0.033 C 
ATOM     13  C   UNL     1      -0.332   1.695  25.595  0.00  0.00    +0.066 C 
ATOM     14  C   UNL     1      -0.543   2.403  25.963  0.00  0.00    +0.189 C 
ATOM     15  O   UNL     1      -0.073   2.710  26.568  0.00  0.00    -0.220 OA
ATOM     16  C   UNL     1      -1.223   2.804  25.724  0.00  0.00    +0.206 C 
ATOM     17  O   UNL     1      -1.435   3.512  26.092  0.00  0.00    -0.218 OA
ENDROOT
BRANCH  10   9
ATOM      7  C   UNL     1      -3.100   2.507  24.873  0.00  0.00    +0.258 C 
ATOM      8  O   UNL     1      -3.145   1.717  25.101  0.00  0.00    -0.272 OA
ATOM      9  N   UNL     1      -2.373   2.898  24.882  0.00  0.00    -0.199 NA
BRANCH   7   3
ATOM      3  C   UNL     1      -3.781   2.908  24.634  0.00  0.00    +0.150 C 
BRANCH   3   4
ATOM      4  C   UNL     1      -4.474   2.843  25.076  0.00  0.00    +0.025 C 
ATOM      5  C   UNL     1      -4.727   3.474  25.542  0.00  0.00    +0.002 C 
ATOM      6  C   UNL     1      -4.914   2.145  25.052  0.00  0.00    +0.002 C 
ENDBRANCH   3   4
BRANCH   3   2
ATOM      1  C   UNL     1      -4.108   3.095  23.256  0.00  0.00    +0.108 C 
ATOM      2  N   UNL     1      -3.767   3.375  23.954  0.00  0.00    -0.209 NA
ENDBRANCH   3   2
ENDBRANCH   7   3
ENDBRANCH  10   9
BRANCH  12  18
ATOM     18  C   UNL     1      -0.590   0.680  24.623  0.00  0.00    +0.261 C 
ATOM     19  O   UNL     1      -0.200   0.692  23.896  0.00  0.00    -0.269 OA
ATOM     20  N   UNL     1      -0.769  -0.039  24.984  0.00  0.00    -0.194 NA
BRANCH  20  21
ATOM     21  C   UNL     1      -0.558  -0.748  24.616  0.00  0.00    +0.175 C 
ATOM     22  C   UNL     1      -0.112  -0.737  23.923  0.00  0.00    +0.033 C 
BRANCH  21  23
ATOM     23  C   UNL     1      -0.794  -1.469  24.943  0.00  0.00    +0.281 C 
ATOM     24  N   UNL     1      -1.484  -1.835  24.678  0.00  0.00    -0.086 NA
ATOM     25  O   UNL     1      -0.341  -1.821  25.535  0.00  0.00    -0.270 OA
ENDBRANCH  21  23
ENDBRANCH  20  21
ENDBRANCH  12  18
TORSDOF 7
ENDMDL
