MODEL 1
REMARK VINA RESULT:     -13.9      0.000      0.000
REMARK  Name = 
REMARK  6 active torsions:
REMARK  status: ('A' for Active; 'I' for Inactive)
REMARK    1  A    between atoms: C_1  and  N_2
REMARK    2  A    between atoms: C_1  and  C_25
REMARK    3  A    between atoms: C_6  and  C_7
REMARK    4  A    between atoms: C_9  and  C_12
REMARK    5  A    between atoms: C_15  and  O_16
REMARK    6  A    between atoms: O_16  and  C_17
REMARK                            x       y       z     vdW  Elec       q    Type
REMARK                         _______ _______ _______ _____ _____    ______ ____
ROOT
ATOM      7  C   UNL     1      -1.162   2.860  24.780  0.00  0.00    +0.251 A 
ATOM      8  N   UNL     1      -1.457   2.131  25.024  0.00  0.00    -0.190 NA
ATOM      9  C   UNL     1      -0.974   1.540  24.708  0.00  0.00    +0.205 A 
ATOM     10  N   UNL     1      -0.380   1.907  24.268  0.00  0.00    -0.056 NA
ATOM     11  O   UNL     1      -0.495   2.723  24.312  0.00  0.00    -0.336 OA
ENDROOT
BRANCH   9  12
ATOM     12  C   UNL     1      -1.068   0.728  24.813  0.00  0.00    +0.058 A 
ATOM     13  C   UNL     1      -1.182   0.420  25.571  0.00  0.00    +0.010 A 
ATOM     14  C   UNL     1      -1.276  -0.392  25.676  0.00  0.00    +0.058 A 
ATOM     15  C   UNL     1      -1.257  -0.898  25.025  0.00  0.00    +0.225 A 
ATOM     23  N   UNL     1      -1.143  -0.590  24.267  0.00  0.00    -0.210 NA
ATOM     24  C   UNL     1      -1.049   0.222  24.162  0.00  0.00    +0.105 A 
BRANCH  15  16
ATOM     16  O   UNL     1      -1.351  -1.710  25.130  0.00  0.00    -0.464 OA
BRANCH  16  17
ATOM     17  C   UNL     1      -2.077  -2.066  24.964  0.00  0.00    +0.168 C 
ATOM     18  C   UNL     1      -2.160  -2.536  24.290  0.00  0.00    +0.044 C 
ATOM     19  C   UNL     1      -2.886  -2.892  24.123  0.00  0.00    +0.004 C 
ATOM     20  C   UNL     1      -3.526  -2.778  24.630  0.00  0.00    +0.000 C 
ATOM     21  C   UNL     1      -3.443  -2.309  25.303  0.00  0.00    +0.004 C 
ATOM     22  C   UNL     1      -2.718  -1.953  25.469  0.00  0.00    +0.044 C 
ENDBRANCH  16  17
ENDBRANCH  15  16
ENDBRANCH   9  12
BRANCH   7   6
ATOM      2  N   UNL     1      -2.275   3.805  24.953  0.00  0.00    -0.263 NA
ATOM      3  C   UNL     1      -2.338   4.596  25.182  0.00  0.00    +0.073 C 
ATOM      4  C   UNL     1      -1.579   4.878  25.338  0.00  0.00    +0.019 C 
ATOM      5  C   UNL     1      -1.046   4.262  25.206  0.00  0.00    +0.027 C 
ATOM      6  C   UNL     1      -1.476   3.599  24.969  0.00  0.00    +0.138 C 
BRANCH   2   1
ATOM      1  C   UNL     1      -2.900   3.308  24.746  0.00  0.00    +0.101 C 
BRANCH   1  25
ATOM     25  C   UNL     1      -3.650   3.434  25.065  0.00  0.00    +0.014 A 
ATOM     26  C   UNL     1      -3.893   4.102  25.485  0.00  0.00    +0.096 A 
ATOM     27  N   UNL     1      -4.682   3.995  25.699  0.00  0.00    -0.244 NA
ATOM     28  C   UNL     1      -4.927   3.262  25.412  0.00  0.00    +0.081 A 
ATOM     29  C   UNL     1      -4.289   2.915  25.020  0.00  0.00    +0.016 A 
ATOM     30  C   UNL     1      -4.374   2.171  24.673  0.00  0.00    +0.001 A 
ATOM     31  C   UNL     1      -5.095   1.774  24.718  0.00  0.00    +0.000 A 
ATOM     32  C   UNL     1      -5.733   2.121  25.110  0.00  0.00    +0.002 A 
ATOM     33  C   UNL     1      -5.649   2.864  25.457  0.00  0.00    +0.019 A 
ENDBRANCH   1  25
ENDBRANCH   2   1
ENDBRANCH   7   6
TORSDOF 6
ENDMDL
MODEL 2
REMARK VINA RESULT:     -12.7      1.257      4.816
REMARK  Name = 
REMARK  6 active torsions:
REMARK  status: ('A' for Active; 'I' for Inactive)
REMARK    1  A    between atoms: C_1  and  N_2
REMARK    2  A    between atoms: C_1  and  C_25
REMARK    3  A    between atoms: C_6  and  C_7
REMARK    4  A    between atoms: C_9  and  C_12
REMARK    5  A    between atoms: C_15  and  O_16
REMARK    6  A    between atoms: O_16  and  C_17
REMARK                            x       y       z     vdW  Elec       q    Type
REMARK                         _______ _______ _______ _____ _____    ______ ____
ROOT
ATOM      7  C   UNL     1      -0.500   1.168  24.088  0.00  0.00    +0.251 A 
ATOM      8  N   UNL     1      -1.316   1.286  24.081  0.00  0.00    -0.190 NA
ATOM      9  C   UNL     1      -1.467   2.050  24.357  0.00  0.00    +0.205 A 
ATOM     10  N   UNL     1      -0.743   2.403  24.534  0.00  0.00    -0.056 NA
ATOM     11  O   UNL     1      -0.145   1.859  24.368  0.00  0.00    -0.336 OA
ENDROOT
BRANCH   9  12
ATOM     12  C   UNL     1      -2.210   2.398  24.440  0.00  0.00    +0.058 A 
ATOM     13  C   UNL     1      -2.731   2.417  23.801  0.00  0.00    +0.010 A 
ATOM     14  C   UNL     1      -3.474   2.765  23.884  0.00  0.00    +0.058 A 
ATOM     15  C   UNL     1      -3.696   3.094  24.607  0.00  0.00    +0.225 A 
ATOM     23  N   UNL     1      -3.175   3.075  25.247  0.00  0.00    -0.210 NA
ATOM     24  C   UNL     1      -2.432   2.727  25.163  0.00  0.00    +0.105 A 
BRANCH  15  16
ATOM     16  O   UNL     1      -4.439   3.442  24.691  0.00  0.00    -0.464 OA
BRANCH  16  17
ATOM     17  C   UNL     1      -5.057   3.018  25.038  0.00  0.00    +0.168 C 
ATOM     18  C   UNL     1      -5.307   3.205  25.802  0.00  0.00    +0.044 C 
ATOM     19  C   UNL     1      -5.924   2.781  26.149  0.00  0.00    +0.004 C 
ATOM     20  C   UNL     1      -6.291   2.172  25.732  0.00  0.00    +0.000 C 
ATOM     21  C   UNL     1      -6.041   1.984  24.969  0.00  0.00    +0.004 C 
ATOM     22  C   UNL     1      -5.424   2.408  24.622  0.00  0.00    +0.044 C 
ENDBRANCH  16  17
ENDBRANCH  15  16
ENDBRANCH   9  12
BRANCH   7   6
ATOM      2  N   UNL     1      -0.278  -0.285  24.109  0.00  0.00    -0.263 NA
ATOM      3  C   UNL     1       0.251  -0.799  23.738  0.00  0.00    +0.073 C 
ATOM      4  C   UNL     1       0.748  -0.351  23.257  0.00  0.00    +0.019 C 
ATOM      5  C   UNL     1       0.527   0.441  23.330  0.00  0.00    +0.027 C 
ATOM      6  C   UNL     1      -0.107   0.481  23.856  0.00  0.00    +0.138 C 
BRANCH   2   1
ATOM      1  C   UNL     1      -0.873  -0.499  24.639  0.00  0.00    +0.101 C 
BRANCH   1  25
ATOM     25  C   UNL     1      -1.237  -1.236  24.574  0.00  0.00    +0.014 A 
ATOM     26  C   UNL     1      -0.916  -1.906  24.214  0.00  0.00    +0.096 A 
ATOM     27  N   UNL     1      -1.466  -2.517  24.276  0.00  0.00    -0.244 NA
ATOM     28  C   UNL     1      -2.127  -2.226  24.673  0.00  0.00    +0.081 A 
ATOM     29  C   UNL     1      -1.985  -1.434  24.858  0.00  0.00    +0.016 A 
ATOM     30  C   UNL     1      -2.557  -0.996  25.261  0.00  0.00    +0.001 A 
ATOM     31  C   UNL     1      -3.270  -1.349  25.479  0.00  0.00    +0.000 A 
ATOM     32  C   UNL     1      -3.411  -2.140  25.294  0.00  0.00    +0.002 A 
ATOM     33  C   UNL     1      -2.841  -2.579  24.892  0.00  0.00    +0.019 A 
ENDBRANCH   1  25
ENDBRANCH   2   1
ENDBRANCH   7   6
TORSDOF 6
ENDMDL
MODEL 3
REMARK VINA RESULT:     -12.4      2.794      4.626
REMARK  Name = 
REMARK  6 active torsions:
REMARK  status: ('A' for Active; 'I' for Inactive)
REMARK    1  A    between atoms: C_1  and  N_2
REMARK    2  A    between atoms: C_1  and  C_25
REMARK    3  A    between atoms: C_6  and  C_7
REMARK    4  A    between atoms: C_9  and  C_12
REMARK    5  A    between atoms: C_15  and  O_16
REMARK    6  A    between atoms: O_16  and  C_17
REMARK                            x       y       z     vdW  Elec       q    Type
REMARK                         _______ _______ _______ _____ _____    ______ ____
ROOT
ATOM      7  C   UNL     1      -1.474   1.164  24.640  0.00  0.00    +0.251 A 
ATOM      8  N   UNL     1      -0.995   1.031  23.982  0.00  0.00    -0.190 NA
ATOM      9  C   UNL     1      -0.237   0.846  24.251  0.00  0.00    +0.205 A 
ATOM     10  N   UNL     1      -0.248   0.865  25.076  0.00  0.00    -0.056 NA
ATOM     11  O   UNL     1      -1.012   1.062  25.317  0.00  0.00    -0.336 OA
ENDROOT
BRANCH   9  12
ATOM     12  C   UNL     1       0.417   0.672  23.779  0.00  0.00    +0.058 A 
ATOM     13  C   UNL     1       0.482  -0.069  23.421  0.00  0.00    +0.010 A 
ATOM     14  C   UNL     1       1.135  -0.243  22.949  0.00  0.00    +0.058 A 
ATOM     15  C   UNL     1       1.724   0.323  22.835  0.00  0.00    +0.225 A 
ATOM     23  N   UNL     1       1.659   1.064  23.193  0.00  0.00    -0.210 NA
ATOM     24  C   UNL     1       1.006   1.238  23.665  0.00  0.00    +0.105 A 
BRANCH  15  16
ATOM     16  O   UNL     1       2.377   0.149  22.363  0.00  0.00    -0.464 OA
BRANCH  16  17
ATOM     17  C   UNL     1       3.138   0.183  22.682  0.00  0.00    +0.168 C 
ATOM     18  C   UNL     1       3.599   0.860  22.578  0.00  0.00    +0.044 C 
ATOM     19  C   UNL     1       4.359   0.894  22.898  0.00  0.00    +0.004 C 
ATOM     20  C   UNL     1       4.657   0.252  23.320  0.00  0.00    +0.000 C 
ATOM     21  C   UNL     1       4.197  -0.425  23.424  0.00  0.00    +0.004 C 
ATOM     22  C   UNL     1       3.437  -0.458  23.105  0.00  0.00    +0.044 C 
ENDBRANCH  16  17
ENDBRANCH  15  16
ENDBRANCH   9  12
BRANCH   7   6
ATOM      2  N   UNL     1      -2.906   0.845  24.721  0.00  0.00    -0.263 NA
ATOM      3  C   UNL     1      -3.605   1.282  24.667  0.00  0.00    +0.073 C 
ATOM      4  C   UNL     1      -3.404   2.071  24.538  0.00  0.00    +0.019 C 
ATOM      5  C   UNL     1      -2.581   2.122  24.512  0.00  0.00    +0.027 C 
ATOM      6  C   UNL     1      -2.274   1.366  24.625  0.00  0.00    +0.138 C 
BRANCH   2   1
ATOM      1  C   UNL     1      -2.851   0.032  24.848  0.00  0.00    +0.101 C 
BRANCH   1  25
ATOM     25  C   UNL     1      -3.436  -0.472  24.558  0.00  0.00    +0.014 A 
ATOM     26  C   UNL     1      -4.165  -0.241  24.248  0.00  0.00    +0.096 A 
ATOM     27  N   UNL     1      -4.574  -0.922  24.025  0.00  0.00    -0.244 NA
ATOM     28  C   UNL     1      -4.098  -1.573  24.196  0.00  0.00    +0.081 A 
ATOM     29  C   UNL     1      -3.394  -1.295  24.526  0.00  0.00    +0.016 A 
ATOM     30  C   UNL     1      -2.807  -1.828  24.753  0.00  0.00    +0.001 A 
ATOM     31  C   UNL     1      -2.923  -2.638  24.652  0.00  0.00    +0.000 A 
ATOM     32  C   UNL     1      -3.627  -2.916  24.323  0.00  0.00    +0.002 A 
ATOM     33  C   UNL     1      -4.214  -2.384  24.095  0.00  0.00    +0.019 A 
ENDBRANCH   1  25
ENDBRANCH   2   1
ENDBRANCH   7   6
TORSDOF 6
ENDMDL
MODEL 4
REMARK VINA RESULT:     -12.3      1.684      3.175
REMARK  Name = 
REMARK  6 active torsions:
REMARK  status: ('A' for Active; 'I' for Inactive)
REMARK    1  A    between atoms: C_1  and  N_2
REMARK    2  A    between atoms: C_1  and  C_25
REMARK    3  A    between atoms: C_6  and  C_7
REMARK    4  A    between atoms: C_9  and  C_12
REMARK    5  A    between atoms: C_15  and  O_16
REMARK    6  A    between atoms: O_16  and  C_17
REMARK                            x       y       z     vdW  Elec       q    Type
REMARK                         _______ _______ _______ _____ _____    ______ ____
ROOT
ATOM      7  C   UNL     1      -4.977   2.105  24.993  0.00  0.00    +0.251 A 
ATOM      8  N   UNL     1      -4.496   1.486  25.249  0.00  0.00    -0.190 NA
ATOM      9  C   UNL     1      -4.692   0.813  24.814  0.00  0.00    +0.205 A 
ATOM     10  N   UNL     1      -5.294   1.016  24.289  0.00  0.00    -0.056 NA
ATOM     11  O   UNL     1      -5.471   1.815  24.399  0.00  0.00    -0.336 OA
ENDROOT
BRANCH   9  12
ATOM     12  C   UNL     1      -4.346   0.068  24.891  0.00  0.00    +0.058 A 
ATOM     13  C   UNL     1      -4.323  -0.445  24.244  0.00  0.00    +0.010 A 
ATOM     14  C   UNL     1      -3.977  -1.189  24.321  0.00  0.00    +0.058 A 
ATOM     15  C   UNL     1      -3.655  -1.422  25.043  0.00  0.00    +0.225 A 
ATOM     23  N   UNL     1      -3.679  -0.910  25.690  0.00  0.00    -0.210 NA
ATOM     24  C   UNL     1      -4.024  -0.165  25.613  0.00  0.00    +0.105 A 
BRANCH  15  16
ATOM     16  O   UNL     1      -3.309  -2.167  25.120  0.00  0.00    -0.464 OA
BRANCH  16  17
ATOM     17  C   UNL     1      -2.515  -2.275  24.924  0.00  0.00    +0.168 C 
ATOM     18  C   UNL     1      -2.311  -2.683  24.236  0.00  0.00    +0.044 C 
ATOM     19  C   UNL     1      -1.517  -2.792  24.041  0.00  0.00    +0.004 C 
ATOM     20  C   UNL     1      -0.927  -2.492  24.533  0.00  0.00    +0.000 C 
ATOM     21  C   UNL     1      -1.130  -2.085  25.221  0.00  0.00    +0.004 C 
ATOM     22  C   UNL     1      -1.925  -1.976  25.416  0.00  0.00    +0.044 C 
ENDBRANCH  16  17
ENDBRANCH  15  16
ENDBRANCH   9  12
BRANCH   7   6
ATOM      2  N   UNL     1      -4.329   3.399  25.248  0.00  0.00    -0.263 NA
ATOM      3  C   UNL     1      -4.563   4.110  25.598  0.00  0.00    +0.073 C 
ATOM      4  C   UNL     1      -5.345   4.028  25.844  0.00  0.00    +0.019 C 
ATOM      5  C   UNL     1      -5.595   3.266  25.648  0.00  0.00    +0.027 C 
ATOM      6  C   UNL     1      -4.967   2.879  25.280  0.00  0.00    +0.138 C 
BRANCH   2   1
ATOM      1  C   UNL     1      -3.587   3.239  24.925  0.00  0.00    +0.101 C 
BRANCH   1  25
ATOM     25  C   UNL     1      -2.933   3.689  25.148  0.00  0.00    +0.014 A 
ATOM     26  C   UNL     1      -2.943   4.341  25.654  0.00  0.00    +0.096 A 
ATOM     27  N   UNL     1      -2.170   4.621  25.723  0.00  0.00    -0.244 NA
ATOM     28  C   UNL     1      -1.683   4.143  25.261  0.00  0.00    +0.081 A 
ATOM     29  C   UNL     1      -2.154   3.567  24.905  0.00  0.00    +0.016 A 
ATOM     30  C   UNL     1      -1.813   3.005  24.407  0.00  0.00    +0.001 A 
ATOM     31  C   UNL     1      -1.001   3.020  24.263  0.00  0.00    +0.000 A 
ATOM     32  C   UNL     1      -0.530   3.596  24.619  0.00  0.00    +0.002 A 
ATOM     33  C   UNL     1      -0.870   4.158  25.118  0.00  0.00    +0.019 A 
ENDBRANCH   1  25
ENDBRANCH   2   1
ENDBRANCH   7   6
TORSDOF 6
ENDMDL
MODEL 5
REMARK VINA RESULT:     -12.2      2.761      4.415
REMARK  Name = 
REMARK  6 active torsions:
REMARK  status: ('A' for Active; 'I' for Inactive)
REMARK    1  A    between atoms: C_1  and  N_2
REMARK    2  A    between atoms: C_1  and  C_25
REMARK    3  A    between atoms: C_6  and  C_7
REMARK    4  A    between atoms: C_9  and  C_12
REMARK    5  A    between atoms: C_15  and  O_16
REMARK    6  A    between atoms: O_16  and  C_17
REMARK                            x       y       z     vdW  Elec       q    Type
REMARK                         _______ _______ _______ _____ _____    ______ ____
ROOT
ATOM      7  C   UNL     1      -1.425   0.646  24.360  0.00  0.00    +0.251 A 
ATOM      8  N   UNL     1      -0.863   0.757  23.768  0.00  0.00    -0.190 NA
ATOM      9  C   UNL     1      -0.172   0.366  23.995  0.00  0.00    +0.205 A 
ATOM     10  N   UNL     1      -0.309   0.014  24.728  0.00  0.00    -0.056 NA
ATOM     11  O   UNL     1      -1.083   0.187  24.955  0.00  0.00    -0.336 OA
ENDROOT
BRANCH   9  12
ATOM     12  C   UNL     1       0.531   0.333  23.564  0.00  0.00    +0.058 A 
ATOM     13  C   UNL     1       0.694  -0.322  23.090  0.00  0.00    +0.010 A 
ATOM     14  C   UNL     1       1.397  -0.355  22.660  0.00  0.00    +0.058 A 
ATOM     15  C   UNL     1       1.936   0.267  22.703  0.00  0.00    +0.225 A 
ATOM     23  N   UNL     1       1.773   0.923  23.177  0.00  0.00    -0.210 NA
ATOM     24  C   UNL     1       1.070   0.956  23.607  0.00  0.00    +0.105 A 
BRANCH  15  16
ATOM     16  O   UNL     1       2.639   0.234  22.273  0.00  0.00    -0.464 OA
BRANCH  16  17
ATOM     17  C   UNL     1       3.364   0.212  22.667  0.00  0.00    +0.168 C 
ATOM     18  C   UNL     1       3.836   0.888  22.700  0.00  0.00    +0.044 C 
ATOM     19  C   UNL     1       4.561   0.866  23.094  0.00  0.00    +0.004 C 
ATOM     20  C   UNL     1       4.812   0.168  23.455  0.00  0.00    +0.000 C 
ATOM     21  C   UNL     1       4.341  -0.508  23.422  0.00  0.00    +0.004 C 
ATOM     22  C   UNL     1       3.616  -0.485  23.027  0.00  0.00    +0.044 C 
ENDBRANCH  16  17
ENDBRANCH  15  16
ENDBRANCH   9  12
BRANCH   7   6
ATOM      2  N   UNL     1      -2.437   1.666  24.673  0.00  0.00    -0.263 NA
ATOM      3  C   UNL     1      -3.251   1.736  24.553  0.00  0.00    +0.073 C 
ATOM      4  C   UNL     1      -3.511   1.056  24.167  0.00  0.00    +0.019 C 
ATOM      5  C   UNL     1      -2.859   0.565  24.048  0.00  0.00    +0.027 C 
ATOM      6  C   UNL     1      -2.196   0.942  24.360  0.00  0.00    +0.138 C 
BRANCH   2   1
ATOM      1  C   UNL     1      -1.951   2.223  25.040  0.00  0.00    +0.101 C 
BRANCH   1  25
ATOM     25  C   UNL     1      -2.239   2.977  25.205  0.00  0.00    +0.014 A 
ATOM     26  C   UNL     1      -3.001   3.159  25.466  0.00  0.00    +0.096 A 
ATOM     27  N   UNL     1      -3.049   3.977  25.561  0.00  0.00    -0.244 NA
ATOM     28  C   UNL     1      -2.318   4.301  25.359  0.00  0.00    +0.081 A 
ATOM     29  C   UNL     1      -1.818   3.683  25.139  0.00  0.00    +0.016 A 
ATOM     30  C   UNL     1      -1.042   3.843  24.907  0.00  0.00    +0.001 A 
ATOM     31  C   UNL     1      -0.768   4.620  24.894  0.00  0.00    +0.000 A 
ATOM     32  C   UNL     1      -1.268   5.238  25.114  0.00  0.00    +0.002 A 
ATOM     33  C   UNL     1      -2.043   5.079  25.346  0.00  0.00    +0.019 A 
ENDBRANCH   1  25
ENDBRANCH   2   1
ENDBRANCH   7   6
TORSDOF 6
ENDMDL
MODEL 6
REMARK VINA RESULT:     -12.1      2.513      4.196
REMARK  Name = 
REMARK  6 active torsions:
REMARK  status: ('A' for Active; 'I' for Inactive)
REMARK    1  A    between atoms: C_1  and  N_2
REMARK    2  A    between atoms: C_1  and  C_25
REMARK    3  A    between atoms: C_6  and  C_7
REMARK    4  A    between atoms: C_9  and  C_12
REMARK    5  A    between atoms: C_15  and  O_16
REMARK    6  A    between atoms: O_16  and  C_17
REMARK                            x       y       z     vdW  Elec       q    Type
REMARK                         _______ _______ _______ _____ _____    ______ ____
ROOT
ATOM      7  C   UNL     1      -1.799  -0.213  25.098  0.00  0.00    +0.251 A 
ATOM      8  N   UNL     1      -1.353  -0.316  24.413  0.00  0.00    -0.190 NA
ATOM      9  C   UNL     1      -0.613   0.028  24.536  0.00  0.00    +0.205 A 
ATOM     10  N   UNL     1      -0.602   0.343  25.298  0.00  0.00    -0.056 NA
ATOM     11  O   UNL     1      -1.335   0.194  25.646  0.00  0.00    -0.336 OA
ENDROOT
BRANCH   9  12
ATOM     12  C   UNL     1       0.007   0.051  23.993  0.00  0.00    +0.058 A 
ATOM     13  C   UNL     1       0.296   0.778  23.727  0.00  0.00    +0.010 A 
ATOM     14  C   UNL     1       0.916   0.802  23.184  0.00  0.00    +0.058 A 
ATOM     15  C   UNL     1       1.248   0.100  22.906  0.00  0.00    +0.225 A 
ATOM     23  N   UNL     1       0.960  -0.626  23.172  0.00  0.00    -0.210 NA
ATOM     24  C   UNL     1       0.340  -0.650  23.715  0.00  0.00    +0.105 A 
BRANCH  15  16
ATOM     16  O   UNL     1       1.868   0.124  22.363  0.00  0.00    -0.464 OA
BRANCH  16  17
ATOM     17  C   UNL     1       2.647   0.192  22.628  0.00  0.00    +0.168 C 
ATOM     18  C   UNL     1       3.048  -0.475  22.905  0.00  0.00    +0.044 C 
ATOM     19  C   UNL     1       3.826  -0.406  23.170  0.00  0.00    +0.004 C 
ATOM     20  C   UNL     1       4.203   0.327  23.159  0.00  0.00    +0.000 C 
ATOM     21  C   UNL     1       3.802   0.993  22.883  0.00  0.00    +0.004 C 
ATOM     22  C   UNL     1       3.024   0.925  22.618  0.00  0.00    +0.044 C 
ENDBRANCH  16  17
ENDBRANCH  15  16
ENDBRANCH   9  12
BRANCH   7   6
ATOM      2  N   UNL     1      -3.258  -0.027  25.091  0.00  0.00    -0.263 NA
ATOM      3  C   UNL     1      -3.907  -0.502  25.279  0.00  0.00    +0.073 C 
ATOM      4  C   UNL     1      -3.624  -1.238  25.520  0.00  0.00    +0.019 C 
ATOM      5  C   UNL     1      -2.800  -1.219  25.482  0.00  0.00    +0.027 C 
ATOM      6  C   UNL     1      -2.574  -0.471  25.217  0.00  0.00    +0.138 C 
BRANCH   2   1
ATOM      1  C   UNL     1      -3.288   0.753  24.825  0.00  0.00    +0.101 C 
BRANCH   1  25
ATOM     25  C   UNL     1      -3.991   1.181  24.881  0.00  0.00    +0.014 A 
ATOM     26  C   UNL     1      -4.751   0.863  24.915  0.00  0.00    +0.096 A 
ATOM     27  N   UNL     1      -5.287   1.487  24.967  0.00  0.00    -0.244 NA
ATOM     28  C   UNL     1      -4.858   2.191  24.965  0.00  0.00    +0.081 A 
ATOM     29  C   UNL     1      -4.057   2.002  24.912  0.00  0.00    +0.016 A 
ATOM     30  C   UNL     1      -3.492   2.603  24.898  0.00  0.00    +0.001 A 
ATOM     31  C   UNL     1      -3.727   3.392  24.938  0.00  0.00    +0.000 A 
ATOM     32  C   UNL     1      -4.528   3.582  24.992  0.00  0.00    +0.002 A 
ATOM     33  C   UNL     1      -5.094   2.982  25.005  0.00  0.00    +0.019 A 
ENDBRANCH   1  25
ENDBRANCH   2   1
ENDBRANCH   7   6
TORSDOF 6
ENDMDL
MODEL 7
REMARK VINA RESULT:     -11.8      1.673      3.291
REMARK  Name = 
REMARK  6 active torsions:
REMARK  status: ('A' for Active; 'I' for Inactive)
REMARK    1  A    between atoms: C_1  and  N_2
REMARK    2  A    between atoms: C_1  and  C_25
REMARK    3  A    between atoms: C_6  and  C_7
REMARK    4  A    between atoms: C_9  and  C_12
REMARK    5  A    between atoms: C_15  and  O_16
REMARK    6  A    between atoms: O_16  and  C_17
REMARK                            x       y       z     vdW  Elec       q    Type
REMARK                         _______ _______ _______ _____ _____    ______ ____
ROOT
ATOM      7  C   UNL     1      -3.514   3.069  24.875  0.00  0.00    +0.251 A 
ATOM      8  N   UNL     1      -3.517   2.258  25.023  0.00  0.00    -0.190 NA
ATOM      9  C   UNL     1      -3.993   1.896  24.454  0.00  0.00    +0.205 A 
ATOM     10  N   UNL     1      -4.285   2.485  23.955  0.00  0.00    -0.056 NA
ATOM     11  O   UNL     1      -3.989   3.210  24.215  0.00  0.00    -0.336 OA
ENDROOT
BRANCH   9  12
ATOM     12  C   UNL     1      -4.150   1.089  24.394  0.00  0.00    +0.058 A 
ATOM     13  C   UNL     1      -4.666   0.728  24.929  0.00  0.00    +0.010 A 
ATOM     14  C   UNL     1      -4.823  -0.079  24.869  0.00  0.00    +0.058 A 
ATOM     15  C   UNL     1      -4.465  -0.527  24.276  0.00  0.00    +0.225 A 
ATOM     23  N   UNL     1      -3.950  -0.166  23.742  0.00  0.00    -0.210 NA
ATOM     24  C   UNL     1      -3.793   0.641  23.801  0.00  0.00    +0.105 A 
BRANCH  15  16
ATOM     16  O   UNL     1      -4.622  -1.334  24.217  0.00  0.00    -0.464 OA
BRANCH  16  17
ATOM     17  C   UNL     1      -4.045  -1.884  24.433  0.00  0.00    +0.168 C 
ATOM     18  C   UNL     1      -3.761  -1.899  25.208  0.00  0.00    +0.044 C 
ATOM     19  C   UNL     1      -3.185  -2.449  25.424  0.00  0.00    +0.004 C 
ATOM     20  C   UNL     1      -2.893  -2.981  24.866  0.00  0.00    +0.000 C 
ATOM     21  C   UNL     1      -3.177  -2.966  24.092  0.00  0.00    +0.004 C 
ATOM     22  C   UNL     1      -3.754  -2.416  23.876  0.00  0.00    +0.044 C 
ENDBRANCH  16  17
ENDBRANCH  15  16
ENDBRANCH   9  12
BRANCH   7   6
ATOM      2  N   UNL     1      -2.300   3.798  25.270  0.00  0.00    -0.263 NA
ATOM      3  C   UNL     1      -2.134   4.410  25.798  0.00  0.00    +0.073 C 
ATOM      4  C   UNL     1      -2.838   4.630  26.165  0.00  0.00    +0.019 C 
ATOM      5  C   UNL     1      -3.441   4.154  25.864  0.00  0.00    +0.027 C 
ATOM      6  C   UNL     1      -3.109   3.640  25.311  0.00  0.00    +0.138 C 
BRANCH   2   1
ATOM      1  C   UNL     1      -1.754   3.412  24.786  0.00  0.00    +0.101 C 
BRANCH   1  25
ATOM     25  C   UNL     1      -1.056   3.114  25.108  0.00  0.00    +0.014 A 
ATOM     26  C   UNL     1      -0.751   3.291  25.854  0.00  0.00    +0.096 A 
ATOM     27  N   UNL     1      -0.047   2.873  25.947  0.00  0.00    -0.244 NA
ATOM     28  C   UNL     1       0.084   2.438  25.259  0.00  0.00    +0.081 A 
ATOM     29  C   UNL     1      -0.540   2.587  24.740  0.00  0.00    +0.016 A 
ATOM     30  C   UNL     1      -0.556   2.222  24.000  0.00  0.00    +0.001 A 
ATOM     31  C   UNL     1       0.051   1.710  23.779  0.00  0.00    +0.000 A 
ATOM     32  C   UNL     1       0.674   1.561  24.298  0.00  0.00    +0.002 A 
ATOM     33  C   UNL     1       0.692   1.924  25.038  0.00  0.00    +0.019 A 
ENDBRANCH   1  25
ENDBRANCH   2   1
ENDBRANCH   7   6
TORSDOF 6
ENDMDL
MODEL 8
REMARK VINA RESULT:     -11.8      1.798      5.102
REMARK  Name = 
REMARK  6 active torsions:
REMARK  status: ('A' for Active; 'I' for Inactive)
REMARK    1  A    between atoms: C_1  and  N_2
REMARK    2  A    between atoms: C_1  and  C_25
REMARK    3  A    between atoms: C_6  and  C_7
REMARK    4  A    between atoms: C_9  and  C_12
REMARK    5  A    between atoms: C_15  and  O_16
REMARK    6  A    between atoms: O_16  and  C_17
REMARK                            x       y       z     vdW  Elec       q    Type
REMARK                         _______ _______ _______ _____ _____    ______ ____
ROOT
ATOM      7  C   UNL     1      -0.385  -0.590  24.520  0.00  0.00    +0.251 A 
ATOM      8  N   UNL     1      -0.544   0.106  24.933  0.00  0.00    -0.190 NA
ATOM      9  C   UNL     1      -0.190   0.731  24.527  0.00  0.00    +0.205 A 
ATOM     10  N   UNL     1       0.188   0.421  23.863  0.00  0.00    -0.056 NA
ATOM     11  O   UNL     1       0.068  -0.396  23.858  0.00  0.00    -0.336 OA
ENDROOT
BRANCH   9  12
ATOM     12  C   UNL     1      -0.210   1.526  24.746  0.00  0.00    +0.058 A 
ATOM     13  C   UNL     1      -0.212   1.734  25.545  0.00  0.00    +0.010 A 
ATOM     14  C   UNL     1      -0.232   2.528  25.764  0.00  0.00    +0.058 A 
ATOM     15  C   UNL     1      -0.251   3.116  25.186  0.00  0.00    +0.225 A 
ATOM     23  N   UNL     1      -0.250   2.908  24.387  0.00  0.00    -0.210 NA
ATOM     24  C   UNL     1      -0.229   2.113  24.168  0.00  0.00    +0.105 A 
BRANCH  15  16
ATOM     16  O   UNL     1      -0.272   3.910  25.405  0.00  0.00    -0.464 OA
BRANCH  16  17
ATOM     17  C   UNL     1      -0.975   4.337  25.344  0.00  0.00    +0.168 C 
ATOM     18  C   UNL     1      -1.650   4.079  25.743  0.00  0.00    +0.044 C 
ATOM     19  C   UNL     1      -2.354   4.506  25.681  0.00  0.00    +0.004 C 
ATOM     20  C   UNL     1      -2.382   5.190  25.222  0.00  0.00    +0.000 C 
ATOM     21  C   UNL     1      -1.708   5.448  24.823  0.00  0.00    +0.004 C 
ATOM     22  C   UNL     1      -1.004   5.021  24.884  0.00  0.00    +0.044 C 
ENDBRANCH  16  17
ENDBRANCH  15  16
ENDBRANCH   9  12
BRANCH   7   6
ATOM      2  N   UNL     1      -1.365  -1.685  24.550  0.00  0.00    -0.263 NA
ATOM      3  C   UNL     1      -1.378  -2.447  24.868  0.00  0.00    +0.073 C 
ATOM      4  C   UNL     1      -0.656  -2.580  25.244  0.00  0.00    +0.019 C 
ATOM      5  C   UNL     1      -0.197  -1.900  25.159  0.00  0.00    +0.027 C 
ATOM      6  C   UNL     1      -0.635  -1.348  24.731  0.00  0.00    +0.138 C 
BRANCH   2   1
ATOM      1  C   UNL     1      -1.975  -1.326  24.127  0.00  0.00    +0.101 C 
BRANCH   1  25
ATOM     25  C   UNL     1      -2.751  -1.588  24.219  0.00  0.00    +0.014 A 
ATOM     26  C   UNL     1      -2.991  -2.374  24.303  0.00  0.00    +0.096 A 
ATOM     27  N   UNL     1      -3.812  -2.383  24.379  0.00  0.00    -0.244 NA
ATOM     28  C   UNL     1      -4.080  -1.604  24.340  0.00  0.00    +0.081 A 
ATOM     29  C   UNL     1      -3.424  -1.113  24.242  0.00  0.00    +0.016 A 
ATOM     30  C   UNL     1      -3.526  -0.296  24.185  0.00  0.00    +0.001 A 
ATOM     31  C   UNL     1      -4.282   0.030  24.228  0.00  0.00    +0.000 A 
ATOM     32  C   UNL     1      -4.938  -0.461  24.326  0.00  0.00    +0.002 A 
ATOM     33  C   UNL     1      -4.837  -1.278  24.383  0.00  0.00    +0.019 A 
ENDBRANCH   1  25
ENDBRANCH   2   1
ENDBRANCH   7   6
TORSDOF 6
ENDMDL
