REMARK  Name = 
REMARK  2 active torsions:
REMARK  status: ('A' for Active; 'I' for Inactive)
REMARK    1  A    between atoms: C_2  and  C_18
REMARK    2  A    between atoms: N_3  and  C_4
REMARK                            x       y       z     vdW  Elec       q    Type
REMARK                         _______ _______ _______ _____ _____    ______ ____
ROOT
ATOM      4  C   UNL     1      -0.929  -0.373   0.000  0.00  0.00    +0.130 A 
ATOM      5  C   UNL     1      -0.298   0.158   0.000  0.00  0.00    +0.023 A 
ATOM      6  C   UNL     1       0.478  -0.123   0.000  0.00  0.00    +0.014 A 
ATOM      7  C   UNL     1       0.622  -0.936   0.000  0.00  0.00    +0.041 A 
ATOM      8  C   UNL     1       1.582  -0.925   0.000  0.00  0.00    +0.056 C 
ATOM      9  C   UNL     1       1.629  -1.912   0.000  0.00  0.00    +0.094 C 
ATOM     10  N   UNL     1       0.813  -2.091   0.000  0.00  0.00    -0.218 NA
ATOM     11  C   UNL     1       1.225  -1.510   0.000  0.00  0.00    +0.091 C 
ATOM     12  C   UNL     1       1.163  -0.557   0.000  0.00  0.00    +0.041 C 
ATOM     13  C   UNL     1       1.713  -0.121   0.000  0.00  0.00    +0.011 C 
ATOM     14  C   UNL     1       0.244  -0.558   0.000  0.00  0.00    +0.110 C 
ATOM     15  N   UNL     1      -0.009  -1.467   0.000  0.00  0.00    -0.298 N 
ATOM     16  C   UNL     1      -0.785  -1.185   0.000  0.00  0.00    +0.276 A 
ATOM     17  O   UNL     1      -1.416  -1.716   0.000  0.00  0.00    -0.266 OA
ENDROOT
BRANCH   4   3
ATOM      1  O   UNL     1      -2.192  -1.435   0.000  0.00  0.00    -0.268 OA
ATOM      2  C   UNL     1      -2.336  -0.623   0.000  0.00  0.00    +0.269 C 
ATOM      3  N   UNL     1      -1.705  -0.092   0.000  0.00  0.00    -0.171 NA
BRANCH   2  18
ATOM     18  C   UNL     1      -3.112  -0.342   0.000  0.00  0.00    +0.058 A 
ATOM     19  C   UNL     1      -3.743  -0.873   0.000  0.00  0.00    +0.025 A 
ATOM     20  C   UNL     1      -4.519  -0.591   0.000  0.00  0.00    +0.099 A 
ATOM     21  N   UNL     1      -4.663   0.221   0.000  0.00  0.00    -0.242 NA
ATOM     22  C   UNL     1      -4.031   0.752   0.000  0.00  0.00    +0.099 A 
ATOM     23  C   UNL     1      -3.256   0.471   0.000  0.00  0.00    +0.025 A 
ENDBRANCH   2  18
ENDBRANCH   4   3
TORSDOF 2
