MODEL 1
REMARK VINA RESULT:     -12.2      0.000      0.000
REMARK  Name = 
REMARK  5 active torsions:
REMARK  status: ('A' for Active; 'I' for Inactive)
REMARK    1  A    between atoms: C_2  and  C_4
REMARK    2  A    between atoms: C_4  and  N_5
REMARK    3  A    between atoms: C_9  and  C_10
REMARK    4  A    between atoms: C_12  and  C_15
REMARK    5  A    between atoms: C_19  and  N_21
REMARK                            x       y       z     vdW  Elec       q    Type
REMARK                         _______ _______ _______ _____ _____    ______ ____
ROOT
ATOM     15  C   UNL     1      -4.269   2.383  25.179  0.00  0.00    +0.043 A 
ATOM     16  C   UNL     1      -5.044   2.600  24.996  0.00  0.00    +0.024 A 
ATOM     17  C   UNL     1      -5.589   2.027  24.764  0.00  0.00    +0.100 A 
ATOM     18  N   UNL     1      -5.360   1.236  24.715  0.00  0.00    -0.229 NA
ATOM     19  C   UNL     1      -4.586   1.018  24.899  0.00  0.00    +0.132 A 
ATOM     20  C   UNL     1      -4.040   1.592  25.131  0.00  0.00    +0.037 A 
ENDROOT
BRANCH  19  21
ATOM     21  N   UNL     1      -4.357   0.227  24.850  0.00  0.00    -0.290 N 
ATOM     22  C   UNL     1      -4.411  -0.174  24.132  0.00  0.00    +0.114 C 
ATOM     23  C   UNL     1      -4.182  -0.965  24.083  0.00  0.00    +0.115 C 
ATOM     24  N   UNL     1      -3.899  -1.355  24.753  0.00  0.00    -0.276 N 
ATOM     25  C   UNL     1      -3.845  -0.953  25.472  0.00  0.00    +0.115 C 
ATOM     26  C   UNL     1      -4.074  -0.162  25.520  0.00  0.00    +0.114 C 
ATOM     27  C   UNL     1      -3.670  -2.146  24.704  0.00  0.00    +0.226 C 
ATOM     28  C   UNL     1      -3.724  -2.548  23.986  0.00  0.00    +0.095 C 
ATOM     29  O   UNL     1      -3.387  -2.535  25.375  0.00  0.00    -0.275 OA
ENDBRANCH  19  21
BRANCH  15  12
ATOM     10  C   UNL     1      -2.637   3.730  25.461  0.00  0.00    +0.251 A 
ATOM     11  N   UNL     1      -3.001   3.115  25.050  0.00  0.00    -0.190 NA
ATOM     12  C   UNL     1      -3.725   2.958  25.411  0.00  0.00    +0.203 A 
ATOM     13  N   UNL     1      -3.810   3.477  26.047  0.00  0.00    -0.056 NA
ATOM     14  O   UNL     1      -3.138   3.954  26.078  0.00  0.00    -0.336 OA
BRANCH  10   9
ATOM      5  N   UNL     1      -1.170   3.698  25.380  0.00  0.00    -0.266 NA
ATOM      6  C   UNL     1      -0.588   4.231  25.140  0.00  0.00    +0.073 C 
ATOM      7  C   UNL     1      -0.962   4.927  24.899  0.00  0.00    +0.019 C 
ATOM      8  C   UNL     1      -1.775   4.823  24.990  0.00  0.00    +0.027 C 
ATOM      9  C   UNL     1      -1.904   4.064  25.287  0.00  0.00    +0.138 C 
BRANCH   5   4
ATOM      4  C   UNL     1      -1.041   2.935  25.662  0.00  0.00    +0.072 C 
BRANCH   4   2
ATOM      1  C   UNL     1       0.139   2.691  26.431  0.00  0.00    +0.001 C 
ATOM      2  C   UNL     1      -0.273   2.639  25.718  0.00  0.00    +0.016 C 
ATOM      3  C   UNL     1       0.083   2.290  25.059  0.00  0.00    +0.001 C 
ENDBRANCH   4   2
ENDBRANCH   5   4
ENDBRANCH  10   9
ENDBRANCH  15  12
TORSDOF 5
ENDMDL
MODEL 2
REMARK VINA RESULT:     -11.5      1.363      4.949
REMARK  Name = 
REMARK  5 active torsions:
REMARK  status: ('A' for Active; 'I' for Inactive)
REMARK    1  A    between atoms: C_2  and  C_4
REMARK    2  A    between atoms: C_4  and  N_5
REMARK    3  A    between atoms: C_9  and  C_10
REMARK    4  A    between atoms: C_12  and  C_15
REMARK    5  A    between atoms: C_19  and  N_21
REMARK                            x       y       z     vdW  Elec       q    Type
REMARK                         _______ _______ _______ _____ _____    ______ ____
ROOT
ATOM     15  C   UNL     1      -4.267   1.132  24.957  0.00  0.00    +0.043 A 
ATOM     16  C   UNL     1      -5.030   1.352  24.730  0.00  0.00    +0.024 A 
ATOM     17  C   UNL     1      -5.200   2.141  24.562  0.00  0.00    +0.100 A 
ATOM     18  N   UNL     1      -4.607   2.711  24.621  0.00  0.00    -0.229 NA
ATOM     19  C   UNL     1      -3.844   2.493  24.847  0.00  0.00    +0.132 A 
ATOM     20  C   UNL     1      -3.675   1.703  25.015  0.00  0.00    +0.037 A 
ENDROOT
BRANCH  19  21
ATOM     21  N   UNL     1      -3.252   3.064  24.906  0.00  0.00    -0.290 N 
ATOM     22  C   UNL     1      -2.504   2.915  24.592  0.00  0.00    +0.114 C 
ATOM     23  C   UNL     1      -1.911   3.485  24.651  0.00  0.00    +0.115 C 
ATOM     24  N   UNL     1      -2.066   4.205  25.023  0.00  0.00    -0.276 N 
ATOM     25  C   UNL     1      -2.815   4.354  25.337  0.00  0.00    +0.115 C 
ATOM     26  C   UNL     1      -3.407   3.783  25.278  0.00  0.00    +0.114 C 
ATOM     27  C   UNL     1      -1.473   4.776  25.082  0.00  0.00    +0.226 C 
ATOM     28  C   UNL     1      -0.725   4.627  24.767  0.00  0.00    +0.095 C 
ATOM     29  O   UNL     1      -1.629   5.495  25.454  0.00  0.00    -0.275 OA
ENDBRANCH  19  21
BRANCH  15  12
ATOM     10  C   UNL     1      -3.665  -0.916  25.012  0.00  0.00    +0.251 A 
ATOM     11  N   UNL     1      -3.718  -0.190  24.623  0.00  0.00    -0.190 NA
ATOM     12  C   UNL     1      -4.099   0.342  25.124  0.00  0.00    +0.203 A 
ATOM     13  N   UNL     1      -4.282  -0.054  25.825  0.00  0.00    -0.056 NA
ATOM     14  O   UNL     1      -4.014  -0.831  25.755  0.00  0.00    -0.336 OA
BRANCH  10   9
ATOM      5  N   UNL     1      -2.520  -1.789  24.716  0.00  0.00    -0.266 NA
ATOM      6  C   UNL     1      -2.427  -2.528  24.362  0.00  0.00    +0.073 C 
ATOM      7  C   UNL     1      -3.174  -2.800  24.140  0.00  0.00    +0.019 C 
ATOM      8  C   UNL     1      -3.729  -2.229  24.357  0.00  0.00    +0.027 C 
ATOM      9  C   UNL     1      -3.324  -1.604  24.713  0.00  0.00    +0.138 C 
BRANCH   5   4
ATOM      4  C   UNL     1      -1.916  -1.318  25.019  0.00  0.00    +0.072 C 
BRANCH   4   2
ATOM      1  C   UNL     1      -0.722  -1.217  24.240  0.00  0.00    +0.001 C 
ATOM      2  C   UNL     1      -1.128  -1.523  24.890  0.00  0.00    +0.016 C 
ATOM      3  C   UNL     1      -0.744  -2.035  25.413  0.00  0.00    +0.001 C 
ENDBRANCH   4   2
ENDBRANCH   5   4
ENDBRANCH  10   9
ENDBRANCH  15  12
TORSDOF 5
ENDMDL
MODEL 3
REMARK VINA RESULT:     -11.3      1.724      3.091
REMARK  Name = 
REMARK  5 active torsions:
REMARK  status: ('A' for Active; 'I' for Inactive)
REMARK    1  A    between atoms: C_2  and  C_4
REMARK    2  A    between atoms: C_4  and  N_5
REMARK    3  A    between atoms: C_9  and  C_10
REMARK    4  A    between atoms: C_12  and  C_15
REMARK    5  A    between atoms: C_19  and  N_21
REMARK                            x       y       z     vdW  Elec       q    Type
REMARK                         _______ _______ _______ _____ _____    ______ ____
ROOT
ATOM     15  C   UNL     1      -0.380   1.119  24.629  0.00  0.00    +0.043 A 
ATOM     16  C   UNL     1       0.288   0.951  24.176  0.00  0.00    +0.024 A 
ATOM     17  C   UNL     1       0.356   0.224  23.793  0.00  0.00    +0.100 A 
ATOM     18  N   UNL     1      -0.245  -0.337  23.864  0.00  0.00    -0.229 NA
ATOM     19  C   UNL     1      -0.914  -0.170  24.317  0.00  0.00    +0.132 A 
ATOM     20  C   UNL     1      -0.981   0.558  24.700  0.00  0.00    +0.037 A 
ENDROOT
BRANCH  19  21
ATOM     21  N   UNL     1      -1.515  -0.730  24.387  0.00  0.00    -0.290 N 
ATOM     22  C   UNL     1      -2.277  -0.551  24.129  0.00  0.00    +0.114 C 
ATOM     23  C   UNL     1      -2.879  -1.112  24.199  0.00  0.00    +0.115 C 
ATOM     24  N   UNL     1      -2.718  -1.851  24.529  0.00  0.00    -0.276 N 
ATOM     25  C   UNL     1      -1.954  -2.030  24.787  0.00  0.00    +0.115 C 
ATOM     26  C   UNL     1      -1.353  -1.469  24.717  0.00  0.00    +0.114 C 
ATOM     27  C   UNL     1      -3.319  -2.411  24.599  0.00  0.00    +0.226 C 
ATOM     28  C   UNL     1      -4.082  -2.233  24.340  0.00  0.00    +0.095 C 
ATOM     29  O   UNL     1      -3.157  -3.150  24.929  0.00  0.00    -0.275 OA
ENDBRANCH  19  21
BRANCH  15  12
ATOM     10  C   UNL     1      -0.764   3.115  25.283  0.00  0.00    +0.251 A 
ATOM     11  N   UNL     1      -0.834   2.514  24.722  0.00  0.00    -0.190 NA
ATOM     12  C   UNL     1      -0.447   1.847  25.012  0.00  0.00    +0.203 A 
ATOM     13  N   UNL     1      -0.136   2.035  25.753  0.00  0.00    -0.056 NA
ATOM     14  O   UNL     1      -0.332   2.818  25.920  0.00  0.00    -0.336 OA
BRANCH  10   9
ATOM      5  N   UNL     1      -1.838   4.110  25.415  0.00  0.00    -0.266 NA
ATOM      6  C   UNL     1      -1.905   4.918  25.264  0.00  0.00    +0.073 C 
ATOM      7  C   UNL     1      -1.179   5.185  24.976  0.00  0.00    +0.019 C 
ATOM      8  C   UNL     1      -0.664   4.542  24.948  0.00  0.00    +0.027 C 
ATOM      9  C   UNL     1      -1.071   3.877  25.219  0.00  0.00    +0.138 C 
BRANCH   5   4
ATOM      4  C   UNL     1      -2.433   3.621  25.709  0.00  0.00    +0.072 C 
BRANCH   4   2
ATOM      1  C   UNL     1      -3.752   3.835  25.202  0.00  0.00    +0.001 C 
ATOM      2  C   UNL     1      -3.197   3.914  25.808  0.00  0.00    +0.016 C 
ATOM      3  C   UNL     1      -3.408   4.287  26.514  0.00  0.00    +0.001 C 
ENDBRANCH   4   2
ENDBRANCH   5   4
ENDBRANCH  10   9
ENDBRANCH  15  12
TORSDOF 5
ENDMDL
MODEL 4
REMARK VINA RESULT:     -10.6      2.093      4.247
REMARK  Name = 
REMARK  5 active torsions:
REMARK  status: ('A' for Active; 'I' for Inactive)
REMARK    1  A    between atoms: C_2  and  C_4
REMARK    2  A    between atoms: C_4  and  N_5
REMARK    3  A    between atoms: C_9  and  C_10
REMARK    4  A    between atoms: C_12  and  C_15
REMARK    5  A    between atoms: C_19  and  N_21
REMARK                            x       y       z     vdW  Elec       q    Type
REMARK                         _______ _______ _______ _____ _____    ______ ____
ROOT
ATOM     15  C   UNL     1      -1.199   3.101  25.014  0.00  0.00    +0.043 A 
ATOM     16  C   UNL     1      -0.951   3.888  25.018  0.00  0.00    +0.024 A 
ATOM     17  C   UNL     1      -1.502   4.494  25.111  0.00  0.00    +0.100 A 
ATOM     18  N   UNL     1      -2.302   4.314  25.201  0.00  0.00    -0.229 NA
ATOM     19  C   UNL     1      -2.551   3.527  25.197  0.00  0.00    +0.132 A 
ATOM     20  C   UNL     1      -1.999   2.920  25.104  0.00  0.00    +0.037 A 
ENDROOT
BRANCH  19  21
ATOM     21  N   UNL     1      -3.351   3.347  25.287  0.00  0.00    -0.290 N 
ATOM     22  C   UNL     1      -3.707   2.793  24.790  0.00  0.00    +0.114 C 
ATOM     23  C   UNL     1      -4.507   2.613  24.880  0.00  0.00    +0.115 C 
ATOM     24  N   UNL     1      -4.951   2.986  25.466  0.00  0.00    -0.276 N 
ATOM     25  C   UNL     1      -4.595   3.541  25.963  0.00  0.00    +0.115 C 
ATOM     26  C   UNL     1      -3.795   3.721  25.874  0.00  0.00    +0.114 C 
ATOM     27  C   UNL     1      -5.751   2.806  25.556  0.00  0.00    +0.226 C 
ATOM     28  C   UNL     1      -6.107   2.252  25.059  0.00  0.00    +0.095 C 
ATOM     29  O   UNL     1      -6.195   3.180  26.143  0.00  0.00    -0.275 OA
ENDBRANCH  19  21
BRANCH  15  12
ATOM     10  C   UNL     1      -0.024   1.402  24.475  0.00  0.00    +0.251 A 
ATOM     11  N   UNL     1      -0.690   1.878  24.376  0.00  0.00    -0.190 NA
ATOM     12  C   UNL     1      -0.647   2.495  24.921  0.00  0.00    +0.203 A 
ATOM     13  N   UNL     1       0.047   2.400  25.358  0.00  0.00    -0.056 NA
ATOM     14  O   UNL     1       0.432   1.725  25.083  0.00  0.00    -0.336 OA
BRANCH  10   9
ATOM      5  N   UNL     1      -0.123  -0.039  24.198  0.00  0.00    -0.266 NA
ATOM      6  C   UNL     1       0.196  -0.546  23.631  0.00  0.00    +0.073 C 
ATOM      7  C   UNL     1       0.672  -0.099  23.127  0.00  0.00    +0.019 C 
ATOM      8  C   UNL     1       0.648   0.685  23.382  0.00  0.00    +0.027 C 
ATOM      9  C   UNL     1       0.156   0.723  24.044  0.00  0.00    +0.138 C 
BRANCH   5   4
ATOM      4  C   UNL     1      -0.631  -0.254  24.810  0.00  0.00    +0.072 C 
BRANCH   4   2
ATOM      1  C   UNL     1      -1.573  -1.288  24.516  0.00  0.00    +0.001 C 
ATOM      2  C   UNL     1      -0.879  -1.037  24.885  0.00  0.00    +0.016 C 
ATOM      3  C   UNL     1      -0.431  -1.570  25.330  0.00  0.00    +0.001 C 
ENDBRANCH   4   2
ENDBRANCH   5   4
ENDBRANCH  10   9
ENDBRANCH  15  12
TORSDOF 5
ENDMDL
MODEL 5
REMARK VINA RESULT:     -10.1      2.019      4.905
REMARK  Name = 
REMARK  5 active torsions:
REMARK  status: ('A' for Active; 'I' for Inactive)
REMARK    1  A    between atoms: C_2  and  C_4
REMARK    2  A    between atoms: C_4  and  N_5
REMARK    3  A    between atoms: C_9  and  C_10
REMARK    4  A    between atoms: C_12  and  C_15
REMARK    5  A    between atoms: C_19  and  N_21
REMARK                            x       y       z     vdW  Elec       q    Type
REMARK                         _______ _______ _______ _____ _____    ______ ____
ROOT
ATOM     15  C   UNL     1      -1.370   1.822  24.521  0.00  0.00    +0.043 A 
ATOM     16  C   UNL     1      -0.811   2.428  24.501  0.00  0.00    +0.024 A 
ATOM     17  C   UNL     1      -1.038   3.204  24.662  0.00  0.00    +0.100 A 
ATOM     18  N   UNL     1      -1.825   3.375  24.844  0.00  0.00    -0.229 NA
ATOM     19  C   UNL     1      -2.384   2.769  24.865  0.00  0.00    +0.132 A 
ATOM     20  C   UNL     1      -2.157   1.992  24.703  0.00  0.00    +0.037 A 
ENDROOT
BRANCH  19  21
ATOM     21  N   UNL     1      -3.171   2.939  25.046  0.00  0.00    -0.290 N 
ATOM     22  C   UNL     1      -3.743   2.348  24.995  0.00  0.00    +0.114 C 
ATOM     23  C   UNL     1      -4.529   2.518  25.177  0.00  0.00    +0.115 C 
ATOM     24  N   UNL     1      -4.743   3.280  25.410  0.00  0.00    -0.276 N 
ATOM     25  C   UNL     1      -4.170   3.871  25.462  0.00  0.00    +0.115 C 
ATOM     26  C   UNL     1      -3.384   3.701  25.280  0.00  0.00    +0.114 C 
ATOM     27  C   UNL     1      -5.530   3.450  25.592  0.00  0.00    +0.226 C 
ATOM     28  C   UNL     1      -6.103   2.858  25.541  0.00  0.00    +0.095 C 
ATOM     29  O   UNL     1      -5.743   4.212  25.825  0.00  0.00    -0.275 OA
ENDBRANCH  19  21
BRANCH  15  12
ATOM     10  C   UNL     1      -0.946  -0.270  24.471  0.00  0.00    +0.251 A 
ATOM     11  N   UNL     1      -1.260   0.393  24.849  0.00  0.00    -0.190 NA
ATOM     12  C   UNL     1      -1.142   1.046  24.359  0.00  0.00    +0.203 A 
ATOM     13  N   UNL     1      -0.756   0.786  23.678  0.00  0.00    -0.056 NA
ATOM     14  O   UNL     1      -0.635  -0.027  23.747  0.00  0.00    -0.336 OA
BRANCH  10   9
ATOM      5  N   UNL     1      -1.596  -1.545  24.809  0.00  0.00    -0.266 NA
ATOM      6  C   UNL     1      -1.344  -2.259  25.137  0.00  0.00    +0.073 C 
ATOM      7  C   UNL     1      -0.536  -2.196  25.295  0.00  0.00    +0.019 C 
ATOM      8  C   UNL     1      -0.289  -1.443  25.065  0.00  0.00    +0.027 C 
ATOM      9  C   UNL     1      -0.944  -1.041  24.764  0.00  0.00    +0.138 C 
BRANCH   5   4
ATOM      4  C   UNL     1      -2.364  -1.367  24.568  0.00  0.00    +0.072 C 
BRANCH   4   2
ATOM      1  C   UNL     1      -3.145  -2.518  24.240  0.00  0.00    +0.001 C 
ATOM      2  C   UNL     1      -2.982  -1.885  24.743  0.00  0.00    +0.016 C 
ATOM      3  C   UNL     1      -3.437  -1.769  25.422  0.00  0.00    +0.001 C 
ENDBRANCH   4   2
ENDBRANCH   5   4
ENDBRANCH  10   9
ENDBRANCH  15  12
TORSDOF 5
ENDMDL
MODEL 6
REMARK VINA RESULT:      -9.9      2.360      4.340
REMARK  Name = 
REMARK  5 active torsions:
REMARK  status: ('A' for Active; 'I' for Inactive)
REMARK    1  A    between atoms: C_2  and  C_4
REMARK    2  A    between atoms: C_4  and  N_5
REMARK    3  A    between atoms: C_9  and  C_10
REMARK    4  A    between atoms: C_12  and  C_15
REMARK    5  A    between atoms: C_19  and  N_21
REMARK                            x       y       z     vdW  Elec       q    Type
REMARK                         _______ _______ _______ _____ _____    ______ ____
ROOT
ATOM     15  C   UNL     1      -2.979  -0.337  25.019  0.00  0.00    +0.043 A 
ATOM     16  C   UNL     1      -2.981  -0.996  25.516  0.00  0.00    +0.024 A 
ATOM     17  C   UNL     1      -2.287  -1.424  25.636  0.00  0.00    +0.100 A 
ATOM     18  N   UNL     1      -1.590  -1.194  25.259  0.00  0.00    -0.229 NA
ATOM     19  C   UNL     1      -1.587  -0.535  24.762  0.00  0.00    +0.132 A 
ATOM     20  C   UNL     1      -2.282  -0.107  24.642  0.00  0.00    +0.037 A 
ENDROOT
BRANCH  19  21
ATOM     21  N   UNL     1      -0.890  -0.305  24.385  0.00  0.00    -0.290 N 
ATOM     22  C   UNL     1      -0.510  -0.825  23.870  0.00  0.00    +0.114 C 
ATOM     23  C   UNL     1       0.187  -0.595  23.494  0.00  0.00    +0.115 C 
ATOM     24  N   UNL     1       0.503   0.155  23.632  0.00  0.00    -0.276 N 
ATOM     25  C   UNL     1       0.122   0.674  24.147  0.00  0.00    +0.115 C 
ATOM     26  C   UNL     1      -0.575   0.444  24.524  0.00  0.00    +0.114 C 
ATOM     27  C   UNL     1       1.200   0.385  23.255  0.00  0.00    +0.226 C 
ATOM     28  C   UNL     1       1.581  -0.135  22.739  0.00  0.00    +0.095 C 
ATOM     29  O   UNL     1       1.515   1.135  23.394  0.00  0.00    -0.275 OA
ENDBRANCH  19  21
BRANCH  15  12
ATOM     10  C   UNL     1      -4.633   1.014  25.010  0.00  0.00    +0.251 A 
ATOM     11  N   UNL     1      -3.902   0.771  25.306  0.00  0.00    -0.190 NA
ATOM     12  C   UNL     1      -3.674   0.091  24.899  0.00  0.00    +0.203 A 
ATOM     13  N   UNL     1      -4.264  -0.087  24.350  0.00  0.00    -0.056 NA
ATOM     14  O   UNL     1      -4.857   0.483  24.419  0.00  0.00    -0.336 OA
BRANCH  10   9
ATOM      5  N   UNL     1      -4.849   2.461  25.157  0.00  0.00    -0.266 NA
ATOM      6  C   UNL     1      -5.439   2.931  25.490  0.00  0.00    +0.073 C 
ATOM      7  C   UNL     1      -6.019   2.432  25.799  0.00  0.00    +0.019 C 
ATOM      8  C   UNL     1      -5.787   1.653  25.656  0.00  0.00    +0.027 C 
ATOM      9  C   UNL     1      -5.064   1.671  25.260  0.00  0.00    +0.138 C 
BRANCH   5   4
ATOM      4  C   UNL     1      -4.164   2.732  24.787  0.00  0.00    +0.072 C 
BRANCH   4   2
ATOM      1  C   UNL     1      -4.216   3.968  24.072  0.00  0.00    +0.001 C 
ATOM      2  C   UNL     1      -4.009   3.541  24.747  0.00  0.00    +0.016 C 
ATOM      3  C   UNL     1      -3.648   3.924  25.383  0.00  0.00    +0.001 C 
ENDBRANCH   4   2
ENDBRANCH   5   4
ENDBRANCH  10   9
ENDBRANCH  15  12
TORSDOF 5
ENDMDL
MODEL 7
REMARK VINA RESULT:      -9.4      1.726      5.807
REMARK  Name = 
REMARK  5 active torsions:
REMARK  status: ('A' for Active; 'I' for Inactive)
REMARK    1  A    between atoms: C_2  and  C_4
REMARK    2  A    between atoms: C_4  and  N_5
REMARK    3  A    between atoms: C_9  and  C_10
REMARK    4  A    between atoms: C_12  and  C_15
REMARK    5  A    between atoms: C_19  and  N_21
REMARK                            x       y       z     vdW  Elec       q    Type
REMARK                         _______ _______ _______ _____ _____    ______ ____
ROOT
ATOM     15  C   UNL     1      -0.348   0.278  24.414  0.00  0.00    +0.043 A 
ATOM     16  C   UNL     1       0.347   0.248  23.970  0.00  0.00    +0.024 A 
ATOM     17  C   UNL     1       0.725   0.946  23.748  0.00  0.00    +0.100 A 
ATOM     18  N   UNL     1       0.409   1.675  23.970  0.00  0.00    -0.229 NA
ATOM     19  C   UNL     1      -0.286   1.706  24.414  0.00  0.00    +0.132 A 
ATOM     20  C   UNL     1      -0.665   1.007  24.636  0.00  0.00    +0.037 A 
ENDROOT
BRANCH  19  21
ATOM     21  N   UNL     1      -0.602   2.435  24.635  0.00  0.00    -0.290 N 
ATOM     22  C   UNL     1      -0.304   3.130  24.309  0.00  0.00    +0.114 C 
ATOM     23  C   UNL     1      -0.620   3.859  24.531  0.00  0.00    +0.115 C 
ATOM     24  N   UNL     1      -1.235   3.892  25.079  0.00  0.00    -0.276 N 
ATOM     25  C   UNL     1      -1.534   3.196  25.406  0.00  0.00    +0.115 C 
ATOM     26  C   UNL     1      -1.218   2.467  25.184  0.00  0.00    +0.114 C 
ATOM     27  C   UNL     1      -1.552   4.621  25.301  0.00  0.00    +0.226 C 
ATOM     28  C   UNL     1      -1.253   5.317  24.974  0.00  0.00    +0.095 C 
ATOM     29  O   UNL     1      -2.167   4.653  25.849  0.00  0.00    -0.275 OA
ENDBRANCH  19  21
BRANCH  15  12
ATOM     10  C   UNL     1      -1.621  -1.407  24.727  0.00  0.00    +0.251 A 
ATOM     11  N   UNL     1      -1.456  -0.686  24.362  0.00  0.00    -0.190 NA
ATOM     12  C   UNL     1      -0.726  -0.421  24.636  0.00  0.00    +0.203 A 
ATOM     13  N   UNL     1      -0.437  -0.979  25.171  0.00  0.00    -0.056 NA
ATOM     14  O   UNL     1      -0.990  -1.588  25.228  0.00  0.00    -0.336 OA
BRANCH  10   9
ATOM      5  N   UNL     1      -3.074  -1.594  24.608  0.00  0.00    -0.266 NA
ATOM      6  C   UNL     1      -3.570  -2.240  24.477  0.00  0.00    +0.073 C 
ATOM      7  C   UNL     1      -3.098  -2.913  24.400  0.00  0.00    +0.019 C 
ATOM      8  C   UNL     1      -2.310  -2.682  24.485  0.00  0.00    +0.027 C 
ATOM      9  C   UNL     1      -2.295  -1.867  24.614  0.00  0.00    +0.138 C 
BRANCH   5   4
ATOM      4  C   UNL     1      -3.314  -0.813  24.716  0.00  0.00    +0.072 C 
BRANCH   4   2
ATOM      1  C   UNL     1      -4.449  -0.415  25.489  0.00  0.00    +0.001 C 
ATOM      2  C   UNL     1      -4.117  -0.631  24.765  0.00  0.00    +0.016 C 
ATOM      3  C   UNL     1      -4.589  -0.665  24.088  0.00  0.00    +0.001 C 
ENDBRANCH   4   2
ENDBRANCH   5   4
ENDBRANCH  10   9
ENDBRANCH  15  12
TORSDOF 5
ENDMDL
MODEL 8
REMARK VINA RESULT:      -9.3      1.881      3.646
REMARK  Name = 
REMARK  5 active torsions:
REMARK  status: ('A' for Active; 'I' for Inactive)
REMARK    1  A    between atoms: C_2  and  C_4
REMARK    2  A    between atoms: C_4  and  N_5
REMARK    3  A    between atoms: C_9  and  C_10
REMARK    4  A    between atoms: C_12  and  C_15
REMARK    5  A    between atoms: C_19  and  N_21
REMARK                            x       y       z     vdW  Elec       q    Type
REMARK                         _______ _______ _______ _____ _____    ______ ____
ROOT
ATOM     15  C   UNL     1      -1.864   2.149  24.482  0.00  0.00    +0.043 A 
ATOM     16  C   UNL     1      -1.134   2.533  24.516  0.00  0.00    +0.024 A 
ATOM     17  C   UNL     1      -0.441   2.094  24.599  0.00  0.00    +0.100 A 
ATOM     18  N   UNL     1      -0.477   1.271  24.648  0.00  0.00    -0.229 NA
ATOM     19  C   UNL     1      -1.206   0.887  24.614  0.00  0.00    +0.132 A 
ATOM     20  C   UNL     1      -1.900   1.327  24.531  0.00  0.00    +0.037 A 
ENDROOT
BRANCH  19  21
ATOM     21  N   UNL     1      -1.243   0.065  24.663  0.00  0.00    -0.290 N 
ATOM     22  C   UNL     1      -1.927  -0.332  24.430  0.00  0.00    +0.114 C 
ATOM     23  C   UNL     1      -1.963  -1.155  24.479  0.00  0.00    +0.115 C 
ATOM     24  N   UNL     1      -1.315  -1.581  24.762  0.00  0.00    -0.276 N 
ATOM     25  C   UNL     1      -0.631  -1.183  24.996  0.00  0.00    +0.115 C 
ATOM     26  C   UNL     1      -0.594  -0.360  24.946  0.00  0.00    +0.114 C 
ATOM     27  C   UNL     1      -1.352  -2.403  24.811  0.00  0.00    +0.226 C 
ATOM     28  C   UNL     1      -2.036  -2.801  24.577  0.00  0.00    +0.095 C 
ATOM     29  O   UNL     1      -0.703  -2.828  25.094  0.00  0.00    -0.275 OA
ENDBRANCH  19  21
BRANCH  15  12
ATOM     10  C   UNL     1      -3.717   3.194  24.664  0.00  0.00    +0.251 A 
ATOM     11  N   UNL     1      -3.116   2.730  24.987  0.00  0.00    -0.190 NA
ATOM     12  C   UNL     1      -2.557   2.589  24.399  0.00  0.00    +0.203 A 
ATOM     13  N   UNL     1      -2.811   2.967  23.710  0.00  0.00    -0.056 NA
ATOM     14  O   UNL     1      -3.528   3.340  23.874  0.00  0.00    -0.336 OA
BRANCH  10   9
ATOM      5  N   UNL     1      -5.074   3.029  25.205  0.00  0.00    -0.266 NA
ATOM      6  C   UNL     1      -5.601   3.514  25.615  0.00  0.00    +0.073 C 
ATOM      7  C   UNL     1      -5.241   4.249  25.722  0.00  0.00    +0.019 C 
ATOM      8  C   UNL     1      -4.491   4.218  25.379  0.00  0.00    +0.027 C 
ATOM      9  C   UNL     1      -4.388   3.464  25.059  0.00  0.00    +0.138 C 
BRANCH   5   4
ATOM      4  C   UNL     1      -5.209   2.247  24.981  0.00  0.00    +0.072 C 
BRANCH   4   2
ATOM      1  C   UNL     1      -6.550   1.847  24.693  0.00  0.00    +0.001 C 
ATOM      2  C   UNL     1      -5.905   1.867  25.207  0.00  0.00    +0.016 C 
ATOM      3  C   UNL     1      -5.956   1.506  25.948  0.00  0.00    +0.001 C 
ENDBRANCH   4   2
ENDBRANCH   5   4
ENDBRANCH  10   9
ENDBRANCH  15  12
TORSDOF 5
ENDMDL
