MODEL 1
REMARK VINA RESULT:      -9.1      0.000      0.000
REMARK  Name = 
REMARK  8 active torsions:
REMARK  status: ('A' for Active; 'I' for Inactive)
REMARK    1  A    between atoms: C_2  and  N_4
REMARK    2  A    between atoms: N_7  and  C_8
REMARK    3  A    between atoms: C_8  and  C_9
REMARK    4  A    between atoms: C_13  and  C_14
REMARK    5  A    between atoms: C_14  and  C_15
REMARK    6  A    between atoms: N_17  and  C_19
REMARK    7  A    between atoms: C_19  and  C_20
REMARK    8  A    between atoms: C_27  and  C_28
REMARK                            x       y       z     vdW  Elec       q    Type
REMARK                         _______ _______ _______ _____ _____    ______ ____
ROOT
ATOM      9  C   UNL     1      -0.547   1.408  24.354  0.00  0.00    +0.043 C 
ATOM     10  C   UNL     1      -0.360   2.201  24.230  0.00  0.00    -0.033 C 
ATOM     11  C   UNL     1      -0.883   2.791  24.476  0.00  0.00    -0.048 C 
ATOM     12  C   UNL     1      -0.695   3.585  24.352  0.00  0.00    +0.026 C 
ATOM     13  C   UNL     1      -1.592   2.587  24.845  0.00  0.00    +0.027 C 
ATOM     26  C   UNL     1      -1.778   1.793  24.969  0.00  0.00    +0.005 C 
ATOM     27  C   UNL     1      -1.256   1.203  24.723  0.00  0.00    +0.006 C 
ENDROOT
BRANCH  27  28
ATOM     28  C   UNL     1      -1.443   0.409  24.847  0.00  0.00    +0.000 C 
ATOM     29  C   UNL     1      -1.872  -0.007  24.279  0.00  0.00    +0.000 C 
ATOM     30  C   UNL     1      -1.199   0.031  25.539  0.00  0.00    +0.000 C 
ENDBRANCH  27  28
BRANCH   9   8
ATOM      8  C   UNL     1      -0.025   0.818  24.108  0.00  0.00    +0.121 C 
BRANCH   8   7
ATOM      4  N   UNL     1       1.855   0.663  23.010  0.00  0.00    -0.189 NA
ATOM      5  C   UNL     1       1.133   0.458  23.352  0.00  0.00    +0.339 C 
ATOM      6  O   UNL     1       0.847  -0.312  23.281  0.00  0.00    -0.249 OA
ATOM      7  N   UNL     1       0.697   1.024  23.766  0.00  0.00    -0.187 NA
BRANCH   4   2
ATOM      1  C   UNL     1       2.003  -0.205  21.885  0.00  0.00    +0.023 C 
ATOM      2  C   UNL     1       2.291   0.097  22.596  0.00  0.00    +0.097 C 
ATOM      3  C   UNL     1       3.013  -0.165  22.894  0.00  0.00    +0.023 C 
ENDBRANCH   4   2
ENDBRANCH   8   7
ENDBRANCH   9   8
BRANCH  13  14
ATOM     14  C   UNL     1      -2.113   3.176  25.091  0.00  0.00    +0.089 C 
BRANCH  14  15
ATOM     15  C   UNL     1      -2.865   3.230  24.754  0.00  0.00    +0.226 C 
ATOM     16  O   UNL     1      -2.963   3.103  23.945  0.00  0.00    -0.275 OA
ATOM     17  N   UNL     1      -3.517   3.410  25.225  0.00  0.00    -0.274 N 
ATOM     18  C   UNL     1      -3.418   3.537  26.035  0.00  0.00    +0.115 C 
BRANCH  17  19
ATOM     19  C   UNL     1      -4.267   3.463  24.888  0.00  0.00    +0.122 C 
BRANCH  19  20
ATOM     20  C   UNL     1      -4.894   3.031  25.206  0.00  0.00    +0.017 A 
ATOM     21  C   UNL     1      -5.164   2.352  24.824  0.00  0.00    +0.001 A 
ATOM     22  C   UNL     1      -5.791   1.921  25.141  0.00  0.00    +0.020 A 
ATOM     23  C   UNL     1      -6.149   2.169  25.842  0.00  0.00    +0.099 A 
ATOM     24  N   UNL     1      -5.880   2.848  26.225  0.00  0.00    -0.243 NA
ATOM     25  C   UNL     1      -5.252   3.279  25.907  0.00  0.00    +0.096 A 
ENDBRANCH  19  20
ENDBRANCH  17  19
ENDBRANCH  14  15
ENDBRANCH  13  14
TORSDOF 8
ENDMDL
MODEL 2
REMARK VINA RESULT:      -8.7      2.694      4.340
REMARK  Name = 
REMARK  8 active torsions:
REMARK  status: ('A' for Active; 'I' for Inactive)
REMARK    1  A    between atoms: C_2  and  N_4
REMARK    2  A    between atoms: N_7  and  C_8
REMARK    3  A    between atoms: C_8  and  C_9
REMARK    4  A    between atoms: C_13  and  C_14
REMARK    5  A    between atoms: C_14  and  C_15
REMARK    6  A    between atoms: N_17  and  C_19
REMARK    7  A    between atoms: C_19  and  C_20
REMARK    8  A    between atoms: C_27  and  C_28
REMARK                            x       y       z     vdW  Elec       q    Type
REMARK                         _______ _______ _______ _____ _____    ______ ____
ROOT
ATOM      9  C   UNL     1      -3.958   0.761  24.229  0.00  0.00    +0.043 C 
ATOM     10  C   UNL     1      -4.605   0.930  24.711  0.00  0.00    -0.033 C 
ATOM     11  C   UNL     1      -4.718   1.697  24.996  0.00  0.00    -0.048 C 
ATOM     12  C   UNL     1      -5.365   1.867  25.478  0.00  0.00    +0.026 C 
ATOM     13  C   UNL     1      -4.183   2.293  24.798  0.00  0.00    +0.027 C 
ATOM     26  C   UNL     1      -3.536   2.123  24.315  0.00  0.00    +0.005 C 
ATOM     27  C   UNL     1      -3.423   1.357  24.031  0.00  0.00    +0.006 C 
ENDROOT
BRANCH  27  28
ATOM     28  C   UNL     1      -2.776   1.186  23.549  0.00  0.00    +0.000 C 
ATOM     29  C   UNL     1      -2.832   1.285  22.732  0.00  0.00    +0.000 C 
ATOM     30  C   UNL     1      -2.072   0.917  23.884  0.00  0.00    +0.000 C 
ENDBRANCH  27  28
BRANCH   9   8
ATOM      8  C   UNL     1      -3.845  -0.006  23.945  0.00  0.00    +0.121 C 
BRANCH   8   7
ATOM      4  N   UNL     1      -3.993  -2.065  24.652  0.00  0.00    -0.189 NA
ATOM      5  C   UNL     1      -3.863  -1.419  24.156  0.00  0.00    +0.339 C 
ATOM      6  O   UNL     1      -3.623  -1.539  23.377  0.00  0.00    -0.249 OA
ATOM      7  N   UNL     1      -3.974  -0.652  24.441  0.00  0.00    -0.187 NA
BRANCH   4   2
ATOM      1  C   UNL     1      -3.252  -3.287  24.644  0.00  0.00    +0.023 C 
ATOM      2  C   UNL     1      -3.882  -2.832  24.367  0.00  0.00    +0.097 C 
ATOM      3  C   UNL     1      -4.399  -3.143  23.806  0.00  0.00    +0.023 C 
ENDBRANCH   4   2
ENDBRANCH   8   7
ENDBRANCH   9   8
BRANCH  13  14
ATOM     14  C   UNL     1      -4.296   3.059  25.082  0.00  0.00    +0.089 C 
BRANCH  14  15
ATOM     15  C   UNL     1      -3.721   3.412  25.557  0.00  0.00    +0.226 C 
ATOM     16  O   UNL     1      -3.497   3.056  26.266  0.00  0.00    -0.275 OA
ATOM     17  N   UNL     1      -3.371   4.121  25.323  0.00  0.00    -0.274 N 
ATOM     18  C   UNL     1      -3.595   4.478  24.614  0.00  0.00    +0.115 C 
BRANCH  17  19
ATOM     19  C   UNL     1      -2.797   4.474  25.798  0.00  0.00    +0.122 C 
BRANCH  19  20
ATOM     20  C   UNL     1      -2.073   4.700  25.473  0.00  0.00    +0.017 A 
ATOM     21  C   UNL     1      -1.448   4.163  25.442  0.00  0.00    +0.001 A 
ATOM     22  C   UNL     1      -0.725   4.389  25.117  0.00  0.00    +0.020 A 
ATOM     23  C   UNL     1      -0.626   5.153  24.822  0.00  0.00    +0.099 A 
ATOM     24  N   UNL     1      -1.251   5.691  24.852  0.00  0.00    -0.243 NA
ATOM     25  C   UNL     1      -1.975   5.464  25.178  0.00  0.00    +0.096 A 
ENDBRANCH  19  20
ENDBRANCH  17  19
ENDBRANCH  14  15
ENDBRANCH  13  14
TORSDOF 8
ENDMDL
MODEL 3
REMARK VINA RESULT:      -8.3      1.196      2.094
REMARK  Name = 
REMARK  8 active torsions:
REMARK  status: ('A' for Active; 'I' for Inactive)
REMARK    1  A    between atoms: C_2  and  N_4
REMARK    2  A    between atoms: N_7  and  C_8
REMARK    3  A    between atoms: C_8  and  C_9
REMARK    4  A    between atoms: C_13  and  C_14
REMARK    5  A    between atoms: C_14  and  C_15
REMARK    6  A    between atoms: N_17  and  C_19
REMARK    7  A    between atoms: C_19  and  C_20
REMARK    8  A    between atoms: C_27  and  C_28
REMARK                            x       y       z     vdW  Elec       q    Type
REMARK                         _______ _______ _______ _____ _____    ______ ____
ROOT
ATOM      9  C   UNL     1      -0.077   0.812  24.057  0.00  0.00    +0.043 C 
ATOM     10  C   UNL     1      -0.366   0.049  23.937  0.00  0.00    -0.033 C 
ATOM     11  C   UNL     1      -1.147  -0.132  24.137  0.00  0.00    -0.048 C 
ATOM     12  C   UNL     1      -1.436  -0.895  24.016  0.00  0.00    +0.026 C 
ATOM     13  C   UNL     1      -1.636   0.449  24.457  0.00  0.00    +0.027 C 
ATOM     26  C   UNL     1      -1.346   1.212  24.577  0.00  0.00    +0.005 C 
ATOM     27  C   UNL     1      -0.567   1.394  24.378  0.00  0.00    +0.006 C 
ENDROOT
BRANCH  27  28
ATOM     28  C   UNL     1      -0.277   2.157  24.498  0.00  0.00    +0.000 C 
ATOM     29  C   UNL     1       0.071   2.358  25.218  0.00  0.00    +0.000 C 
ATOM     30  C   UNL     1      -0.334   2.719  23.897  0.00  0.00    +0.000 C 
ENDBRANCH  27  28
BRANCH   9   8
ATOM      8  C   UNL     1       0.703   0.994  23.857  0.00  0.00    +0.121 C 
BRANCH   8   7
ATOM      4  N   UNL     1       2.385   0.094  22.797  0.00  0.00    -0.189 NA
ATOM      5  C   UNL     1       1.940   0.626  23.243  0.00  0.00    +0.339 C 
ATOM      6  O   UNL     1       2.284   1.322  23.519  0.00  0.00    -0.249 OA
ATOM      7  N   UNL     1       1.148   0.462  23.412  0.00  0.00    -0.187 NA
BRANCH   4   2
ATOM      1  C   UNL     1       3.763   0.065  23.175  0.00  0.00    +0.023 C 
ATOM      2  C   UNL     1       3.176   0.259  22.628  0.00  0.00    +0.097 C 
ATOM      3  C   UNL     1       3.379   0.616  21.914  0.00  0.00    +0.023 C 
ENDBRANCH   4   2
ENDBRANCH   8   7
ENDBRANCH   9   8
BRANCH  13  14
ATOM     14  C   UNL     1      -2.415   0.268  24.657  0.00  0.00    +0.089 C 
BRANCH  14  15
ATOM     15  C   UNL     1      -3.038   0.689  24.317  0.00  0.00    +0.226 C 
ATOM     16  O   UNL     1      -2.980   0.952  23.537  0.00  0.00    -0.275 OA
ATOM     17  N   UNL     1      -3.718   0.846  24.755  0.00  0.00    -0.274 N 
ATOM     18  C   UNL     1      -3.776   0.583  25.535  0.00  0.00    +0.115 C 
BRANCH  17  19
ATOM     19  C   UNL     1      -4.340   1.267  24.415  0.00  0.00    +0.122 C 
BRANCH  19  20
ATOM     20  C   UNL     1      -4.784   1.791  24.873  0.00  0.00    +0.017 A 
ATOM     21  C   UNL     1      -4.563   2.584  24.926  0.00  0.00    +0.001 A 
ATOM     22  C   UNL     1      -5.006   3.107  25.383  0.00  0.00    +0.020 A 
ATOM     23  C   UNL     1      -5.672   2.837  25.789  0.00  0.00    +0.099 A 
ATOM     24  N   UNL     1      -5.894   2.045  25.737  0.00  0.00    -0.243 NA
ATOM     25  C   UNL     1      -5.450   1.521  25.279  0.00  0.00    +0.096 A 
ENDBRANCH  19  20
ENDBRANCH  17  19
ENDBRANCH  14  15
ENDBRANCH  13  14
TORSDOF 8
ENDMDL
MODEL 4
REMARK VINA RESULT:      -8.2      2.660      5.028
REMARK  Name = 
REMARK  8 active torsions:
REMARK  status: ('A' for Active; 'I' for Inactive)
REMARK    1  A    between atoms: C_2  and  N_4
REMARK    2  A    between atoms: N_7  and  C_8
REMARK    3  A    between atoms: C_8  and  C_9
REMARK    4  A    between atoms: C_13  and  C_14
REMARK    5  A    between atoms: C_14  and  C_15
REMARK    6  A    between atoms: N_17  and  C_19
REMARK    7  A    between atoms: C_19  and  C_20
REMARK    8  A    between atoms: C_27  and  C_28
REMARK                            x       y       z     vdW  Elec       q    Type
REMARK                         _______ _______ _______ _____ _____    ______ ____
ROOT
ATOM      9  C   UNL     1      -3.336   2.247  24.247  0.00  0.00    +0.043 C 
ATOM     10  C   UNL     1      -3.978   2.220  24.765  0.00  0.00    -0.033 C 
ATOM     11  C   UNL     1      -4.380   1.509  24.886  0.00  0.00    -0.048 C 
ATOM     12  C   UNL     1      -5.022   1.482  25.403  0.00  0.00    +0.026 C 
ATOM     13  C   UNL     1      -4.139   0.826  24.490  0.00  0.00    +0.027 C 
ATOM     26  C   UNL     1      -3.497   0.855  23.972  0.00  0.00    +0.005 C 
ATOM     27  C   UNL     1      -3.096   1.565  23.851  0.00  0.00    +0.006 C 
ENDROOT
BRANCH  27  28
ATOM     28  C   UNL     1      -2.453   1.593  23.334  0.00  0.00    +0.000 C 
ATOM     29  C   UNL     1      -1.702   1.381  23.597  0.00  0.00    +0.000 C 
ATOM     30  C   UNL     1      -2.564   1.834  22.553  0.00  0.00    +0.000 C 
ENDBRANCH  27  28
BRANCH   9   8
ATOM      8  C   UNL     1      -2.934   2.958  24.126  0.00  0.00    +0.121 C 
BRANCH   8   7
ATOM      4  N   UNL     1      -1.976   4.530  25.298  0.00  0.00    -0.189 NA
ATOM      5  C   UNL     1      -2.264   4.106  24.653  0.00  0.00    +0.339 C 
ATOM      6  O   UNL     1      -2.173   4.402  23.889  0.00  0.00    -0.249 OA
ATOM      7  N   UNL     1      -2.645   3.383  24.772  0.00  0.00    -0.187 NA
BRANCH   4   2
ATOM      1  C   UNL     1      -0.790   5.269  24.999  0.00  0.00    +0.023 C 
ATOM      2  C   UNL     1      -1.595   5.253  25.179  0.00  0.00    +0.097 C 
ATOM      3  C   UNL     1      -2.018   5.957  25.239  0.00  0.00    +0.023 C 
ENDBRANCH   4   2
ENDBRANCH   8   7
ENDBRANCH   9   8
BRANCH  13  14
ATOM     14  C   UNL     1      -4.541   0.117  24.611  0.00  0.00    +0.089 C 
BRANCH  14  15
ATOM     15  C   UNL     1      -4.181  -0.496  25.031  0.00  0.00    +0.226 C 
ATOM     16  O   UNL     1      -3.876  -0.355  25.784  0.00  0.00    -0.275 OA
ATOM     17  N   UNL     1      -4.125  -1.248  24.698  0.00  0.00    -0.274 N 
ATOM     18  C   UNL     1      -4.429  -1.389  23.944  0.00  0.00    +0.115 C 
BRANCH  17  19
ATOM     19  C   UNL     1      -3.765  -1.859  25.118  0.00  0.00    +0.122 C 
BRANCH  19  20
ATOM     20  C   UNL     1      -3.134  -2.274  24.785  0.00  0.00    +0.017 A 
ATOM     21  C   UNL     1      -2.357  -2.058  24.962  0.00  0.00    +0.001 A 
ATOM     22  C   UNL     1      -1.727  -2.472  24.629  0.00  0.00    +0.020 A 
ATOM     23  C   UNL     1      -1.873  -3.103  24.118  0.00  0.00    +0.099 A 
ATOM     24  N   UNL     1      -2.649  -3.320  23.940  0.00  0.00    -0.243 NA
ATOM     25  C   UNL     1      -3.280  -2.905  24.274  0.00  0.00    +0.096 A 
ENDBRANCH  19  20
ENDBRANCH  17  19
ENDBRANCH  14  15
ENDBRANCH  13  14
TORSDOF 8
ENDMDL
