MODEL 1
REMARK VINA RESULT:     -11.4      0.000      0.000
REMARK  Name = 
REMARK  5 active torsions:
REMARK  status: ('A' for Active; 'I' for Inactive)
REMARK    1  A    between atoms: O_2  and  C_3
REMARK    2  A    between atoms: C_4  and  C_9
REMARK    3  A    between atoms: N_11  and  C_12
REMARK    4  A    between atoms: C_14  and  C_18
REMARK    5  A    between atoms: C_20  and  C_23
REMARK                            x       y       z     vdW  Elec       q    Type
REMARK                         _______ _______ _______ _____ _____    ______ ____
ROOT
ATOM     12  C   UNL     1      -4.300   0.733  24.942  0.00  0.00    +0.113 C 
ATOM     13  C   UNL     1      -3.717   1.258  25.197  0.00  0.00    +0.049 C 
ATOM     14  C   UNL     1      -4.022   2.023  25.142  0.00  0.00    +0.139 C 
ATOM     15  N   UNL     1      -4.793   1.969  24.853  0.00  0.00    -0.264 NA
ATOM     16  C   UNL     1      -5.304   2.602  24.712  0.00  0.00    +0.090 C 
ATOM     17  C   UNL     1      -4.964   1.171  24.729  0.00  0.00    +0.094 C 
ENDROOT
BRANCH  14  18
ATOM     18  C   UNL     1      -3.626   2.719  25.340  0.00  0.00    +0.251 A 
ATOM     19  N   UNL     1      -2.909   2.976  25.023  0.00  0.00    -0.188 NA
ATOM     20  C   UNL     1      -2.718   3.696  25.378  0.00  0.00    +0.223 A 
ATOM     21  N   UNL     1      -3.316   3.883  25.914  0.00  0.00    -0.054 NA
ATOM     22  O   UNL     1      -3.878   3.279  25.891  0.00  0.00    -0.336 OA
BRANCH  20  23
ATOM     23  C   UNL     1      -2.045   4.149  25.224  0.00  0.00    +0.139 A 
ATOM     24  C   UNL     1      -2.086   4.972  25.257  0.00  0.00    +0.121 A 
ATOM     25  N   UNL     1      -1.414   5.424  25.103  0.00  0.00    -0.239 NA
ATOM     26  C   UNL     1      -0.701   5.054  24.916  0.00  0.00    +0.120 A 
ATOM     27  C   UNL     1      -0.660   4.231  24.883  0.00  0.00    +0.120 A 
ATOM     28  N   UNL     1      -1.332   3.778  25.037  0.00  0.00    -0.237 NA
ENDBRANCH  20  23
ENDBRANCH  14  18
BRANCH  12  11
ATOM      9  C   UNL     1      -3.781  -0.439  24.309  0.00  0.00    +0.268 C 
ATOM     10  O   UNL     1      -3.404   0.033  23.748  0.00  0.00    -0.268 OA
ATOM     11  N   UNL     1      -4.229  -0.088  24.906  0.00  0.00    -0.202 NA
BRANCH   9   4
ATOM      3  C   UNL     1      -3.009  -1.624  24.507  0.00  0.00    +0.143 A 
ATOM      4  C   UNL     1      -3.711  -1.260  24.274  0.00  0.00    +0.089 A 
ATOM      5  C   UNL     1      -4.342  -1.716  24.005  0.00  0.00    +0.008 A 
ATOM      6  C   UNL     1      -4.271  -2.539  23.969  0.00  0.00    +0.000 A 
ATOM      7  C   UNL     1      -3.569  -2.902  24.202  0.00  0.00    +0.003 A 
ATOM      8  C   UNL     1      -2.938  -2.446  24.471  0.00  0.00    +0.037 A 
BRANCH   3   2
ATOM      1  C   UNL     1      -1.653  -1.524  24.953  0.00  0.00    +0.252 C 
ATOM      2  O   UNL     1      -2.376  -1.167  24.776  0.00  0.00    -0.471 OA
ENDBRANCH   3   2
ENDBRANCH   9   4
ENDBRANCH  12  11
TORSDOF 5
ENDMDL
MODEL 2
REMARK VINA RESULT:     -10.9      2.016      5.985
REMARK  Name = 
REMARK  5 active torsions:
REMARK  status: ('A' for Active; 'I' for Inactive)
REMARK    1  A    between atoms: O_2  and  C_3
REMARK    2  A    between atoms: C_4  and  C_9
REMARK    3  A    between atoms: N_11  and  C_12
REMARK    4  A    between atoms: C_14  and  C_18
REMARK    5  A    between atoms: C_20  and  C_23
REMARK                            x       y       z     vdW  Elec       q    Type
REMARK                         _______ _______ _______ _____ _____    ______ ____
ROOT
ATOM     12  C   UNL     1      -0.470   1.785  24.688  0.00  0.00    +0.113 C 
ATOM     13  C   UNL     1      -0.875   1.140  25.003  0.00  0.00    +0.049 C 
ATOM     14  C   UNL     1      -0.602   0.459  24.624  0.00  0.00    +0.139 C 
ATOM     15  N   UNL     1      -0.029   0.685  24.076  0.00  0.00    -0.264 NA
ATOM     16  C   UNL     1       0.390   0.181  23.576  0.00  0.00    +0.090 C 
ATOM     17  C   UNL     1       0.053   1.506  24.116  0.00  0.00    +0.094 C 
ENDROOT
BRANCH  14  18
ATOM     18  C   UNL     1      -0.858  -0.312  24.768  0.00  0.00    +0.251 A 
ATOM     19  N   UNL     1      -1.611  -0.610  24.612  0.00  0.00    -0.188 NA
ATOM     20  C   UNL     1      -1.624  -1.403  24.841  0.00  0.00    +0.223 A 
ATOM     21  N   UNL     1      -0.879  -1.594  25.139  0.00  0.00    -0.054 NA
ATOM     22  O   UNL     1      -0.405  -0.920  25.094  0.00  0.00    -0.336 OA
BRANCH  20  23
ATOM     23  C   UNL     1      -2.269  -1.914  24.783  0.00  0.00    +0.139 A 
ATOM     24  C   UNL     1      -2.221  -2.587  24.308  0.00  0.00    +0.121 A 
ATOM     25  N   UNL     1      -2.865  -3.097  24.250  0.00  0.00    -0.239 NA
ATOM     26  C   UNL     1      -3.559  -2.936  24.667  0.00  0.00    +0.120 A 
ATOM     27  C   UNL     1      -3.607  -2.264  25.142  0.00  0.00    +0.120 A 
ATOM     28  N   UNL     1      -2.962  -1.752  25.200  0.00  0.00    -0.237 NA
ENDBRANCH  20  23
ENDBRANCH  14  18
BRANCH  12  11
ATOM      9  C   UNL     1      -1.154   3.032  24.548  0.00  0.00    +0.268 C 
ATOM     10  O   UNL     1      -1.637   2.701  23.967  0.00  0.00    -0.268 OA
ATOM     11  N   UNL     1      -0.570   2.574  24.908  0.00  0.00    -0.202 NA
BRANCH   9   4
ATOM      3  C   UNL     1      -1.955   4.061  25.130  0.00  0.00    +0.143 A 
ATOM      4  C   UNL     1      -1.255   3.821  24.768  0.00  0.00    +0.089 A 
ATOM      5  C   UNL     1      -0.655   4.368  24.626  0.00  0.00    +0.008 A 
ATOM      6  C   UNL     1      -0.756   5.158  24.846  0.00  0.00    +0.000 A 
ATOM      7  C   UNL     1      -1.456   5.398  25.209  0.00  0.00    +0.003 A 
ATOM      8  C   UNL     1      -2.056   4.851  25.351  0.00  0.00    +0.037 A 
BRANCH   3   2
ATOM      1  C   UNL     1      -3.256   3.754  25.638  0.00  0.00    +0.252 C 
ATOM      2  O   UNL     1      -2.556   3.514  25.273  0.00  0.00    -0.471 OA
ENDBRANCH   3   2
ENDBRANCH   9   4
ENDBRANCH  12  11
TORSDOF 5
ENDMDL
MODEL 3
REMARK VINA RESULT:     -10.8      1.167      5.324
REMARK  Name = 
REMARK  5 active torsions:
REMARK  status: ('A' for Active; 'I' for Inactive)
REMARK    1  A    between atoms: O_2  and  C_3
REMARK    2  A    between atoms: C_4  and  C_9
REMARK    3  A    between atoms: N_11  and  C_12
REMARK    4  A    between atoms: C_14  and  C_18
REMARK    5  A    between atoms: C_20  and  C_23
REMARK                            x       y       z     vdW  Elec       q    Type
REMARK                         _______ _______ _______ _____ _____    ______ ____
ROOT
ATOM     12  C   UNL     1      -3.545   2.743  24.819  0.00  0.00    +0.113 C 
ATOM     13  C   UNL     1      -3.487   1.962  24.560  0.00  0.00    +0.049 C 
ATOM     14  C   UNL     1      -4.168   1.563  24.801  0.00  0.00    +0.139 C 
ATOM     15  N   UNL     1      -4.646   2.098  25.208  0.00  0.00    -0.264 NA
ATOM     16  C   UNL     1      -5.380   1.933  25.545  0.00  0.00    +0.090 C 
ATOM     17  C   UNL     1      -4.260   2.827  25.219  0.00  0.00    +0.094 C 
ENDROOT
BRANCH  14  18
ATOM     18  C   UNL     1      -4.340   0.769  24.658  0.00  0.00    +0.251 A 
ATOM     19  N   UNL     1      -3.845   0.129  24.819  0.00  0.00    -0.188 NA
ATOM     20  C   UNL     1      -4.238  -0.560  24.590  0.00  0.00    +0.223 A 
ATOM     21  N   UNL     1      -4.975  -0.346  24.289  0.00  0.00    -0.054 NA
ATOM     22  O   UNL     1      -5.039   0.476  24.330  0.00  0.00    -0.336 OA
BRANCH  20  23
ATOM     23  C   UNL     1      -3.944  -1.329  24.653  0.00  0.00    +0.139 A 
ATOM     24  C   UNL     1      -4.029  -1.856  24.023  0.00  0.00    +0.121 A 
ATOM     25  N   UNL     1      -3.735  -2.623  24.086  0.00  0.00    -0.239 NA
ATOM     26  C   UNL     1      -3.357  -2.866  24.777  0.00  0.00    +0.120 A 
ATOM     27  C   UNL     1      -3.271  -2.340  25.407  0.00  0.00    +0.120 A 
ATOM     28  N   UNL     1      -3.565  -1.571  25.345  0.00  0.00    -0.237 NA
ENDBRANCH  20  23
ENDBRANCH  14  18
BRANCH  12  11
ATOM      9  C   UNL     1      -2.357   3.425  25.228  0.00  0.00    +0.268 C 
ATOM     10  O   UNL     1      -2.292   2.921  25.877  0.00  0.00    -0.268 OA
ATOM     11  N   UNL     1      -2.984   3.336  24.699  0.00  0.00    -0.202 NA
BRANCH   9   4
ATOM      3  C   UNL     1      -1.031   3.820  24.874  0.00  0.00    +0.143 A 
ATOM      4  C   UNL     1      -1.797   4.018  25.107  0.00  0.00    +0.089 A 
ATOM      5  C   UNL     1      -2.002   4.809  25.220  0.00  0.00    +0.008 A 
ATOM      6  C   UNL     1      -1.441   5.402  25.100  0.00  0.00    +0.000 A 
ATOM      7  C   UNL     1      -0.675   5.204  24.866  0.00  0.00    +0.003 A 
ATOM      8  C   UNL     1      -0.470   4.414  24.753  0.00  0.00    +0.037 A 
BRANCH   3   2
ATOM      1  C   UNL     1      -0.058   2.830  24.531  0.00  0.00    +0.252 C 
ATOM      2  O   UNL     1      -0.825   3.029  24.761  0.00  0.00    -0.471 OA
ENDBRANCH   3   2
ENDBRANCH   9   4
ENDBRANCH  12  11
TORSDOF 5
ENDMDL
MODEL 4
REMARK VINA RESULT:     -10.2      1.845      2.662
REMARK  Name = 
REMARK  5 active torsions:
REMARK  status: ('A' for Active; 'I' for Inactive)
REMARK    1  A    between atoms: O_2  and  C_3
REMARK    2  A    between atoms: C_4  and  C_9
REMARK    3  A    between atoms: N_11  and  C_12
REMARK    4  A    between atoms: C_14  and  C_18
REMARK    5  A    between atoms: C_20  and  C_23
REMARK                            x       y       z     vdW  Elec       q    Type
REMARK                         _______ _______ _______ _____ _____    ______ ____
ROOT
ATOM     12  C   UNL     1      -1.137  -0.189  24.853  0.00  0.00    +0.113 C 
ATOM     13  C   UNL     1      -1.278   0.523  25.245  0.00  0.00    +0.049 C 
ATOM     14  C   UNL     1      -0.683   1.053  25.028  0.00  0.00    +0.139 C 
ATOM     15  N   UNL     1      -0.176   0.668  24.504  0.00  0.00    -0.264 NA
ATOM     16  C   UNL     1       0.494   0.992  24.150  0.00  0.00    +0.090 C 
ATOM     17  C   UNL     1      -0.457  -0.101  24.396  0.00  0.00    +0.094 C 
ENDROOT
BRANCH  14  18
ATOM     18  C   UNL     1      -0.609   1.832  25.291  0.00  0.00    +0.251 A 
ATOM     19  N   UNL     1      -1.034   2.481  25.011  0.00  0.00    -0.188 NA
ATOM     20  C   UNL     1      -0.784   3.148  25.426  0.00  0.00    +0.223 A 
ATOM     21  N   UNL     1      -0.204   2.912  25.963  0.00  0.00    -0.054 NA
ATOM     22  O   UNL     1      -0.095   2.098  25.879  0.00  0.00    -0.336 OA
BRANCH  20  23
ATOM     23  C   UNL     1      -1.065   3.918  25.323  0.00  0.00    +0.139 A 
ATOM     24  C   UNL     1      -0.594   4.481  24.947  0.00  0.00    +0.121 A 
ATOM     25  N   UNL     1      -0.875   5.250  24.844  0.00  0.00    -0.239 NA
ATOM     26  C   UNL     1      -1.626   5.455  25.117  0.00  0.00    +0.120 A 
ATOM     27  C   UNL     1      -2.097   4.891  25.493  0.00  0.00    +0.120 A 
ATOM     28  N   UNL     1      -1.816   4.122  25.596  0.00  0.00    -0.237 NA
ENDBRANCH  20  23
ENDBRANCH  14  18
BRANCH  12  11
ATOM      9  C   UNL     1      -2.219  -0.996  24.382  0.00  0.00    +0.268 C 
ATOM     10  O   UNL     1      -2.379  -0.437  23.797  0.00  0.00    -0.268 OA
ATOM     11  N   UNL     1      -1.598  -0.871  24.910  0.00  0.00    -0.202 NA
BRANCH   9   4
ATOM      3  C   UNL     1      -3.501  -1.625  24.400  0.00  0.00    +0.143 A 
ATOM      4  C   UNL     1      -2.679  -1.678  24.439  0.00  0.00    +0.089 A 
ATOM      5  C   UNL     1      -2.317  -2.413  24.534  0.00  0.00    +0.008 A 
ATOM      6  C   UNL     1      -2.778  -3.096  24.591  0.00  0.00    +0.000 A 
ATOM      7  C   UNL     1      -3.600  -3.042  24.553  0.00  0.00    +0.003 A 
ATOM      8  C   UNL     1      -3.962  -2.308  24.457  0.00  0.00    +0.037 A 
BRANCH   3   2
ATOM      1  C   UNL     1      -4.687  -0.833  24.294  0.00  0.00    +0.252 C 
ATOM      2  O   UNL     1      -3.864  -0.890  24.305  0.00  0.00    -0.471 OA
ENDBRANCH   3   2
ENDBRANCH   9   4
ENDBRANCH  12  11
TORSDOF 5
ENDMDL
MODEL 5
REMARK VINA RESULT:      -9.5      2.380      4.492
REMARK  Name = 
REMARK  5 active torsions:
REMARK  status: ('A' for Active; 'I' for Inactive)
REMARK    1  A    between atoms: O_2  and  C_3
REMARK    2  A    between atoms: C_4  and  C_9
REMARK    3  A    between atoms: N_11  and  C_12
REMARK    4  A    between atoms: C_14  and  C_18
REMARK    5  A    between atoms: C_20  and  C_23
REMARK                            x       y       z     vdW  Elec       q    Type
REMARK                         _______ _______ _______ _____ _____    ______ ____
ROOT
ATOM     12  C   UNL     1      -3.403   0.261  25.051  0.00  0.00    +0.113 C 
ATOM     13  C   UNL     1      -2.587   0.370  24.998  0.00  0.00    +0.049 C 
ATOM     14  C   UNL     1      -2.256  -0.327  24.705  0.00  0.00    +0.139 C 
ATOM     15  N   UNL     1      -2.868  -0.866  24.578  0.00  0.00    -0.264 NA
ATOM     16  C   UNL     1      -2.785  -1.634  24.288  0.00  0.00    +0.090 C 
ATOM     17  C   UNL     1      -3.577  -0.502  24.792  0.00  0.00    +0.094 C 
ENDROOT
BRANCH  14  18
ATOM     18  C   UNL     1      -1.455  -0.461  24.565  0.00  0.00    +0.251 A 
ATOM     19  N   UNL     1      -0.978  -0.043  24.038  0.00  0.00    -0.188 NA
ATOM     20  C   UNL     1      -0.217  -0.361  24.074  0.00  0.00    +0.223 A 
ATOM     21  N   UNL     1      -0.224  -0.975  24.624  0.00  0.00    -0.054 NA
ATOM     22  O   UNL     1      -0.989  -1.038  24.927  0.00  0.00    -0.336 OA
BRANCH  20  23
ATOM     23  C   UNL     1       0.436  -0.108  23.637  0.00  0.00    +0.139 A 
ATOM     24  C   UNL     1       0.802   0.609  23.820  0.00  0.00    +0.121 A 
ATOM     25  N   UNL     1       1.454   0.861  23.383  0.00  0.00    -0.239 NA
ATOM     26  C   UNL     1       1.741   0.398  22.764  0.00  0.00    +0.120 A 
ATOM     27  C   UNL     1       1.375  -0.318  22.581  0.00  0.00    +0.120 A 
ATOM     28  N   UNL     1       0.722  -0.571  23.018  0.00  0.00    -0.237 NA
ENDBRANCH  20  23
ENDBRANCH  14  18
BRANCH  12  11
ATOM      9  C   UNL     1      -4.262   1.373  24.793  0.00  0.00    +0.268 C 
ATOM     10  O   UNL     1      -4.027   1.370  24.002  0.00  0.00    -0.268 OA
ATOM     11  N   UNL     1      -3.950   0.818  25.317  0.00  0.00    -0.202 NA
BRANCH   9   4
ATOM      3  C   UNL     1      -4.623   2.734  25.037  0.00  0.00    +0.143 A 
ATOM      4  C   UNL     1      -4.809   1.931  25.059  0.00  0.00    +0.089 A 
ATOM      5  C   UNL     1      -5.541   1.685  25.347  0.00  0.00    +0.008 A 
ATOM      6  C   UNL     1      -6.088   2.243  25.614  0.00  0.00    +0.000 A 
ATOM      7  C   UNL     1      -5.902   3.046  25.591  0.00  0.00    +0.003 A 
ATOM      8  C   UNL     1      -5.170   3.292  25.303  0.00  0.00    +0.037 A 
BRANCH   3   2
ATOM      1  C   UNL     1      -3.693   3.782  24.749  0.00  0.00    +0.252 C 
ATOM      2  O   UNL     1      -3.890   2.980  24.748  0.00  0.00    -0.471 OA
ENDBRANCH   3   2
ENDBRANCH   9   4
ENDBRANCH  12  11
TORSDOF 5
ENDMDL
MODEL 6
REMARK VINA RESULT:      -9.1      2.447      4.427
REMARK  Name = 
REMARK  5 active torsions:
REMARK  status: ('A' for Active; 'I' for Inactive)
REMARK    1  A    between atoms: O_2  and  C_3
REMARK    2  A    between atoms: C_4  and  C_9
REMARK    3  A    between atoms: N_11  and  C_12
REMARK    4  A    between atoms: C_14  and  C_18
REMARK    5  A    between atoms: C_20  and  C_23
REMARK                            x       y       z     vdW  Elec       q    Type
REMARK                         _______ _______ _______ _____ _____    ______ ____
ROOT
ATOM     12  C   UNL     1      -2.403   3.063  25.280  0.00  0.00    +0.113 C 
ATOM     13  C   UNL     1      -1.871   2.441  25.180  0.00  0.00    +0.049 C 
ATOM     14  C   UNL     1      -1.143   2.762  24.958  0.00  0.00    +0.139 C 
ATOM     15  N   UNL     1      -1.227   3.582  24.922  0.00  0.00    -0.264 NA
ATOM     16  C   UNL     1      -0.636   4.122  24.722  0.00  0.00    +0.090 C 
ATOM     17  C   UNL     1      -2.006   3.768  25.121  0.00  0.00    +0.094 C 
ENDROOT
BRANCH  14  18
ATOM     18  C   UNL     1      -0.454   2.338  24.801  0.00  0.00    +0.251 A 
ATOM     19  N   UNL     1      -0.350   1.791  24.192  0.00  0.00    -0.188 NA
ATOM     20  C   UNL     1       0.422   1.500  24.240  0.00  0.00    +0.223 A 
ATOM     21  N   UNL     1       0.794   1.868  24.878  0.00  0.00    -0.054 NA
ATOM     22  O   UNL     1       0.252   2.386  25.225  0.00  0.00    -0.336 OA
BRANCH  20  23
ATOM     23  C   UNL     1       0.761   0.940  23.738  0.00  0.00    +0.139 A 
ATOM     24  C   UNL     1       0.328   0.277  23.506  0.00  0.00    +0.121 A 
ATOM     25  N   UNL     1       0.667  -0.282  23.004  0.00  0.00    -0.239 NA
ATOM     26  C   UNL     1       1.440  -0.179  22.733  0.00  0.00    +0.120 A 
ATOM     27  C   UNL     1       1.873   0.484  22.965  0.00  0.00    +0.120 A 
ATOM     28  N   UNL     1       1.533   1.044  23.467  0.00  0.00    -0.237 NA
ENDBRANCH  20  23
ENDBRANCH  14  18
BRANCH  12  11
ATOM      9  C   UNL     1      -3.766   2.805  24.937  0.00  0.00    +0.268 C 
ATOM     10  O   UNL     1      -3.545   2.689  24.151  0.00  0.00    -0.268 OA
ATOM     11  N   UNL     1      -3.195   2.992  25.501  0.00  0.00    -0.202 NA
BRANCH   9   4
ATOM      3  C   UNL     1      -4.935   2.003  25.109  0.00  0.00    +0.143 A 
ATOM      4  C   UNL     1      -4.558   2.734  25.158  0.00  0.00    +0.089 A 
ATOM      5  C   UNL     1      -4.971   3.394  25.427  0.00  0.00    +0.008 A 
ATOM      6  C   UNL     1      -5.763   3.323  25.649  0.00  0.00    +0.000 A 
ATOM      7  C   UNL     1      -6.141   2.592  25.600  0.00  0.00    +0.003 A 
ATOM      8  C   UNL     1      -5.727   1.932  25.331  0.00  0.00    +0.037 A 
BRANCH   3   2
ATOM      1  C   UNL     1      -4.870   0.594  24.872  0.00  0.00    +0.252 C 
ATOM      2  O   UNL     1      -4.521   1.341  24.839  0.00  0.00    -0.471 OA
ENDBRANCH   3   2
ENDBRANCH   9   4
ENDBRANCH  12  11
TORSDOF 5
ENDMDL
