REMARK  Name = 
REMARK  5 active torsions:
REMARK  status: ('A' for Active; 'I' for Inactive)
REMARK    1  A    between atoms: C_1  and  N_2
REMARK    2  A    between atoms: C_1  and  C_24
REMARK    3  A    between atoms: C_6  and  C_7
REMARK    4  A    between atoms: C_9  and  C_12
REMARK    5  A    between atoms: C_16  and  N_18
REMARK                            x       y       z     vdW  Elec       q    Type
REMARK                         _______ _______ _______ _____ _____    ______ ____
ROOT
ATOM      7  C   UNL     1      -3.069  -2.380   0.000  0.00  0.00    +0.251 A 
ATOM      8  N   UNL     1      -3.822  -2.716   0.000  0.00  0.00    -0.190 NA
ATOM      9  C   UNL     1      -3.736  -3.536   0.000  0.00  0.00    +0.203 A 
ATOM     10  N   UNL     1      -2.929  -3.708   0.000  0.00  0.00    -0.056 NA
ATOM     11  O   UNL     1      -2.517  -2.993   0.000  0.00  0.00    -0.336 OA
ENDROOT
BRANCH   9  12
ATOM     12  C   UNL     1      -4.349  -4.088   0.000  0.00  0.00    +0.043 A 
ATOM     13  C   UNL     1      -4.178  -4.895   0.000  0.00  0.00    +0.024 A 
ATOM     14  C   UNL     1      -4.791  -5.447   0.000  0.00  0.00    +0.100 A 
ATOM     15  N   UNL     1      -5.575  -5.192   0.000  0.00  0.00    -0.229 NA
ATOM     16  C   UNL     1      -5.747  -4.385   0.000  0.00  0.00    +0.132 A 
ATOM     17  C   UNL     1      -5.134  -3.833   0.000  0.00  0.00    +0.037 A 
BRANCH  16  18
ATOM     18  N   UNL     1      -6.532  -4.130   0.000  0.00  0.00    -0.288 N 
ATOM     19  C   UNL     1      -7.145  -4.682   0.000  0.00  0.00    +0.124 C 
ATOM     20  C   UNL     1      -7.929  -4.427   0.000  0.00  0.00    +0.164 C 
ATOM     21  O   UNL     1      -8.101  -3.620   0.000  0.00  0.00    -0.350 OA
ATOM     22  C   UNL     1      -7.488  -3.068   0.000  0.00  0.00    +0.164 C 
ATOM     23  C   UNL     1      -6.703  -3.323   0.000  0.00  0.00    +0.124 C 
ENDBRANCH  16  18
ENDBRANCH   9  12
BRANCH   7   6
ATOM      2  N   UNL     1      -2.143  -1.238   0.000  0.00  0.00    -0.263 NA
ATOM      3  C   UNL     1      -2.230  -0.417   0.000  0.00  0.00    +0.073 C 
ATOM      4  C   UNL     1      -3.037  -0.245   0.000  0.00  0.00    +0.019 C 
ATOM      5  C   UNL     1      -3.449  -0.960   0.000  0.00  0.00    +0.027 C 
ATOM      6  C   UNL     1      -2.897  -1.573   0.000  0.00  0.00    +0.138 C 
BRANCH   2   1
ATOM      1  C   UNL     1      -1.429  -1.650   0.000  0.00  0.00    +0.101 C 
BRANCH   1  24
ATOM     24  C   UNL     1      -0.715  -1.238   0.000  0.00  0.00    +0.013 A 
ATOM     25  C   UNL     1       0.000  -1.650   0.000  0.00  0.00    +0.000 A 
ATOM     26  C   UNL     1       0.715  -1.238   0.000  0.00  0.00    +0.017 A 
ATOM     27  C   UNL     1       0.715  -0.412   0.000  0.00  0.00    +0.081 A 
ATOM     28  C   UNL     1       1.429   0.000   0.000  0.00  0.00    +0.019 A 
ATOM     29  C   UNL     1       2.143  -0.412   0.000  0.00  0.00    +0.002 A 
ATOM     30  C   UNL     1       2.143  -1.238   0.000  0.00  0.00    +0.000 A 
ATOM     31  C   UNL     1       1.429  -1.650   0.000  0.00  0.00    +0.001 A 
ATOM     32  N   UNL     1       0.000   0.000   0.000  0.00  0.00    -0.244 NA
ATOM     33  C   UNL     1      -0.715  -0.412   0.000  0.00  0.00    +0.096 A 
ENDBRANCH   1  24
ENDBRANCH   2   1
ENDBRANCH   7   6
TORSDOF 5
