MODEL 1
REMARK VINA RESULT:     -14.7      0.000      0.000
REMARK  Name = 
REMARK  3 active torsions:
REMARK  status: ('A' for Active; 'I' for Inactive)
REMARK    1  A    between atoms: S_2  and  C_3
REMARK    2  A    between atoms: C_6  and  C_9
REMARK    3  A    between atoms: N_19  and  C_20
REMARK                            x       y       z     vdW  Elec       q    Type
REMARK                         _______ _______ _______ _____ _____    ______ ____
ROOT
ATOM      9  C   UNL     1      -2.130   1.827  24.843  0.00  0.00    +0.012 A 
ATOM     10  C   UNL     1      -2.948   1.724  24.826  0.00  0.00    +0.041 A 
ATOM     11  C   UNL     1      -3.729   2.209  24.834  0.00  0.00    +0.058 C 
ATOM     12  C   UNL     1      -3.967   2.869  24.859  0.00  0.00    +0.011 C 
ATOM     13  C   UNL     1      -4.279   2.118  24.821  0.00  0.00    +0.043 C 
ATOM     14  C   UNL     1      -4.838   1.304  24.778  0.00  0.00    +0.097 C 
ATOM     15  N   UNL     1      -4.239   0.723  24.762  0.00  0.00    -0.262 N 
ATOM     16  C   UNL     1      -4.283   1.433  24.792  0.00  0.00    +0.101 C 
ATOM     17  C   UNL     1      -3.895  -0.027  24.736  0.00  0.00    +0.327 C 
ATOM     18  O   UNL     1      -3.073  -0.104  24.745  0.00  0.00    -0.250 OA
ATOM     19  N   UNL     1      -4.371  -0.699  24.699  0.00  0.00    -0.162 NA
ATOM     26  C   UNL     1      -3.469   1.602  24.812  0.00  0.00    +0.110 C 
ATOM     27  N   UNL     1      -3.268   0.964  24.788  0.00  0.00    -0.299 N 
ATOM     28  C   UNL     1      -2.769   0.307  24.768  0.00  0.00    +0.261 A 
ATOM     29  O   UNL     1      -2.839  -0.514  24.732  0.00  0.00    -0.267 OA
ATOM     30  C   UNL     1      -1.951   0.410  24.785  0.00  0.00    +0.061 A 
ATOM     31  C   UNL     1      -1.632   1.170  24.823  0.00  0.00    +0.006 A 
ENDROOT
BRANCH   9   6
ATOM      3  C   UNL     1      -1.171   4.106  24.956  0.00  0.00    +0.025 A 
ATOM      4  C   UNL     1      -1.278   3.740  24.225  0.00  0.00    +0.006 A 
ATOM      5  C   UNL     1      -1.598   2.980  24.188  0.00  0.00    +0.001 A 
ATOM      6  C   UNL     1      -1.810   2.587  24.881  0.00  0.00    +0.001 A 
ATOM      7  C   UNL     1      -1.703   2.953  25.612  0.00  0.00    +0.001 A 
ATOM      8  C   UNL     1      -1.384   3.713  25.650  0.00  0.00    +0.006 A 
BRANCH   3   2
ATOM      1  C   UNL     1      -1.351   5.522  25.026  0.00  0.00    +0.074 C 
ATOM      2  S   UNL     1      -0.852   4.865  24.994  0.00  0.00    -0.113 S 
ENDBRANCH   3   2
ENDBRANCH   9   6
BRANCH  19  20
ATOM     20  C   UNL     1      -4.027  -1.448  24.673  0.00  0.00    +0.075 A 
ATOM     21  C   UNL     1      -3.764  -1.807  25.368  0.00  0.00    +0.017 A 
ATOM     22  C   UNL     1      -3.420  -2.556  25.341  0.00  0.00    +0.001 A 
ATOM     23  C   UNL     1      -3.338  -2.947  24.619  0.00  0.00    +0.000 A 
ATOM     24  C   UNL     1      -3.601  -2.588  23.924  0.00  0.00    +0.001 A 
ATOM     25  C   UNL     1      -3.945  -1.839  23.950  0.00  0.00    +0.017 A 
ENDBRANCH  19  20
TORSDOF 3
ENDMDL
MODEL 2
REMARK VINA RESULT:     -14.5      1.897      4.689
REMARK  Name = 
REMARK  3 active torsions:
REMARK  status: ('A' for Active; 'I' for Inactive)
REMARK    1  A    between atoms: S_2  and  C_3
REMARK    2  A    between atoms: C_6  and  C_9
REMARK    3  A    between atoms: N_19  and  C_20
REMARK                            x       y       z     vdW  Elec       q    Type
REMARK                         _______ _______ _______ _____ _____    ______ ____
ROOT
ATOM      9  C   UNL     1      -3.253   0.457  24.666  0.00  0.00    +0.012 A 
ATOM     10  C   UNL     1      -3.840   1.017  24.816  0.00  0.00    +0.041 A 
ATOM     11  C   UNL     1      -4.750   1.084  24.930  0.00  0.00    +0.058 C 
ATOM     12  C   UNL     1      -5.334   0.694  24.938  0.00  0.00    +0.011 C 
ATOM     13  C   UNL     1      -5.131   1.477  25.032  0.00  0.00    +0.043 C 
ATOM     14  C   UNL     1      -5.088   2.455  25.173  0.00  0.00    +0.097 C 
ATOM     15  N   UNL     1      -4.264   2.571  25.096  0.00  0.00    -0.262 N 
ATOM     16  C   UNL     1      -4.725   2.028  25.068  0.00  0.00    +0.101 C 
ATOM     17  C   UNL     1      -3.542   2.970  25.074  0.00  0.00    +0.327 C 
ATOM     18  O   UNL     1      -2.844   2.552  24.932  0.00  0.00    -0.250 OA
ATOM     19  N   UNL     1      -3.518   3.785  25.193  0.00  0.00    -0.162 NA
ATOM     26  C   UNL     1      -4.180   1.417  24.915  0.00  0.00    +0.110 C 
ATOM     27  N   UNL     1      -3.639   1.811  24.912  0.00  0.00    -0.299 N 
ATOM     28  C   UNL     1      -2.850   2.046  24.857  0.00  0.00    +0.261 A 
ATOM     29  O   UNL     1      -2.413   2.744  24.911  0.00  0.00    -0.267 OA
ATOM     30  C   UNL     1      -2.263   1.487  24.707  0.00  0.00    +0.061 A 
ATOM     31  C   UNL     1      -2.464   0.692  24.611  0.00  0.00    +0.006 A 
ENDROOT
BRANCH   9   6
ATOM      3  C   UNL     1      -3.858  -1.926  24.379  0.00  0.00    +0.025 A 
ATOM      4  C   UNL     1      -3.880  -1.414  23.733  0.00  0.00    +0.006 A 
ATOM      5  C   UNL     1      -3.679  -0.620  23.828  0.00  0.00    +0.001 A 
ATOM      6  C   UNL     1      -3.455  -0.337  24.570  0.00  0.00    +0.001 A 
ATOM      7  C   UNL     1      -3.432  -0.849  25.217  0.00  0.00    +0.001 A 
ATOM      8  C   UNL     1      -3.634  -1.643  25.121  0.00  0.00    +0.006 A 
BRANCH   3   2
ATOM      1  C   UNL     1      -3.483  -3.305  24.366  0.00  0.00    +0.074 C 
ATOM      2  S   UNL     1      -4.059  -2.719  24.284  0.00  0.00    -0.113 S 
ENDBRANCH   3   2
ENDBRANCH   9   6
BRANCH  19  20
ATOM     20  C   UNL     1      -2.796   4.184  25.170  0.00  0.00    +0.075 A 
ATOM     21  C   UNL     1      -2.348   4.268  25.859  0.00  0.00    +0.017 A 
ATOM     22  C   UNL     1      -1.627   4.667  25.835  0.00  0.00    +0.001 A 
ATOM     23  C   UNL     1      -1.352   4.982  25.124  0.00  0.00    +0.000 A 
ATOM     24  C   UNL     1      -1.800   4.899  24.436  0.00  0.00    +0.001 A 
ATOM     25  C   UNL     1      -2.521   4.500  24.458  0.00  0.00    +0.017 A 
ENDBRANCH  19  20
TORSDOF 3
ENDMDL
MODEL 3
REMARK VINA RESULT:     -13.6      1.944      5.013
REMARK  Name = 
REMARK  3 active torsions:
REMARK  status: ('A' for Active; 'I' for Inactive)
REMARK    1  A    between atoms: S_2  and  C_3
REMARK    2  A    between atoms: C_6  and  C_9
REMARK    3  A    between atoms: N_19  and  C_20
REMARK                            x       y       z     vdW  Elec       q    Type
REMARK                         _______ _______ _______ _____ _____    ______ ____
ROOT
ATOM      9  C   UNL     1      -3.028   0.644  24.539  0.00  0.00    +0.012 A 
ATOM     10  C   UNL     1      -2.294   0.706  24.911  0.00  0.00    +0.041 A 
ATOM     11  C   UNL     1      -1.628   0.182  25.267  0.00  0.00    +0.058 C 
ATOM     12  C   UNL     1      -1.455  -0.489  25.378  0.00  0.00    +0.011 C 
ATOM     13  C   UNL     1      -1.133   0.246  25.517  0.00  0.00    +0.043 C 
ATOM     14  C   UNL     1      -0.587   1.030  25.768  0.00  0.00    +0.097 C 
ATOM     15  N   UNL     1      -1.086   1.642  25.493  0.00  0.00    -0.262 N 
ATOM     16  C   UNL     1      -1.089   0.930  25.516  0.00  0.00    +0.101 C 
ATOM     17  C   UNL     1      -1.348   2.408  25.334  0.00  0.00    +0.327 C 
ATOM     18  O   UNL     1      -2.075   2.526  24.960  0.00  0.00    -0.250 OA
ATOM     19  N   UNL     1      -0.885   3.055  25.548  0.00  0.00    -0.162 NA
ATOM     26  C   UNL     1      -1.824   0.801  25.147  0.00  0.00    +0.110 C 
ATOM     27  N   UNL     1      -1.965   1.449  25.053  0.00  0.00    -0.299 N 
ATOM     28  C   UNL     1      -2.369   2.130  24.824  0.00  0.00    +0.261 A 
ATOM     29  O   UNL     1      -2.259   2.947  24.852  0.00  0.00    -0.267 OA
ATOM     30  C   UNL     1      -3.103   2.069  24.453  0.00  0.00    +0.061 A 
ATOM     31  C   UNL     1      -3.432   1.325  24.310  0.00  0.00    +0.006 A 
ENDROOT
BRANCH   9   6
ATOM      3  C   UNL     1      -4.015  -1.585  24.112  0.00  0.00    +0.025 A 
ATOM      4  C   UNL     1      -4.108  -1.227  24.849  0.00  0.00    +0.006 A 
ATOM      5  C   UNL     1      -3.779  -0.484  24.992  0.00  0.00    +0.001 A 
ATOM      6  C   UNL     1      -3.357  -0.099  24.397  0.00  0.00    +0.001 A 
ATOM      7  C   UNL     1      -3.263  -0.457  23.660  0.00  0.00    +0.001 A 
ATOM      8  C   UNL     1      -3.592  -1.200  23.518  0.00  0.00    +0.006 A 
BRANCH   3   2
ATOM      1  C   UNL     1      -3.944  -3.009  24.208  0.00  0.00    +0.074 C 
ATOM      2  S   UNL     1      -4.344  -2.328  23.970  0.00  0.00    -0.113 S 
ENDBRANCH   3   2
ENDBRANCH   9   6
BRANCH  19  20
ATOM     20  C   UNL     1      -1.147   3.821  25.389  0.00  0.00    +0.075 A 
ATOM     21  C   UNL     1      -1.727   4.166  25.864  0.00  0.00    +0.017 A 
ATOM     22  C   UNL     1      -1.989   4.932  25.705  0.00  0.00    +0.001 A 
ATOM     23  C   UNL     1      -1.671   5.353  25.070  0.00  0.00    +0.000 A 
ATOM     24  C   UNL     1      -1.092   5.008  24.595  0.00  0.00    +0.001 A 
ATOM     25  C   UNL     1      -0.829   4.243  24.754  0.00  0.00    +0.017 A 
ENDBRANCH  19  20
TORSDOF 3
ENDMDL
MODEL 4
REMARK VINA RESULT:     -13.0      1.033      2.034
REMARK  Name = 
REMARK  3 active torsions:
REMARK  status: ('A' for Active; 'I' for Inactive)
REMARK    1  A    between atoms: S_2  and  C_3
REMARK    2  A    between atoms: C_6  and  C_9
REMARK    3  A    between atoms: N_19  and  C_20
REMARK                            x       y       z     vdW  Elec       q    Type
REMARK                         _______ _______ _______ _____ _____    ______ ____
ROOT
ATOM      9  C   UNL     1      -2.336   1.808  24.937  0.00  0.00    +0.012 A 
ATOM     10  C   UNL     1      -1.713   1.276  24.841  0.00  0.00    +0.041 A 
ATOM     11  C   UNL     1      -0.797   1.255  24.775  0.00  0.00    +0.058 C 
ATOM     12  C   UNL     1      -0.235   1.675  24.778  0.00  0.00    +0.011 C 
ATOM     13  C   UNL     1      -0.391   0.878  24.710  0.00  0.00    +0.043 C 
ATOM     14  C   UNL     1      -0.375  -0.105  24.611  0.00  0.00    +0.097 C 
ATOM     15  N   UNL     1      -1.194  -0.263  24.652  0.00  0.00    -0.262 N 
ATOM     16  C   UNL     1      -0.765   0.305  24.679  0.00  0.00    +0.101 C 
ATOM     17  C   UNL     1      -1.894  -0.700  24.658  0.00  0.00    +0.327 C 
ATOM     18  O   UNL     1      -2.620  -0.315  24.746  0.00  0.00    -0.250 OA
ATOM     19  N   UNL     1      -1.869  -1.520  24.574  0.00  0.00    -0.162 NA
ATOM     26  C   UNL     1      -1.348   0.891  24.778  0.00  0.00    +0.110 C 
ATOM     27  N   UNL     1      -1.867   0.469  24.772  0.00  0.00    -0.299 N 
ATOM     28  C   UNL     1      -2.644   0.193  24.798  0.00  0.00    +0.261 A 
ATOM     29  O   UNL     1      -3.040  -0.529  24.754  0.00  0.00    -0.267 OA
ATOM     30  C   UNL     1      -3.267   0.725  24.894  0.00  0.00    +0.061 A 
ATOM     31  C   UNL     1      -3.113   1.533  24.964  0.00  0.00    +0.006 A 
ENDROOT
BRANCH   9   6
ATOM      3  C   UNL     1      -1.874   4.231  25.146  0.00  0.00    +0.025 A 
ATOM      4  C   UNL     1      -1.880   3.753  25.818  0.00  0.00    +0.006 A 
ATOM      5  C   UNL     1      -2.034   2.946  25.748  0.00  0.00    +0.001 A 
ATOM      6  C   UNL     1      -2.182   2.616  25.007  0.00  0.00    +0.001 A 
ATOM      7  C   UNL     1      -2.175   3.094  24.334  0.00  0.00    +0.001 A 
ATOM      8  C   UNL     1      -2.021   3.901  24.404  0.00  0.00    +0.006 A 
BRANCH   3   2
ATOM      1  C   UNL     1      -0.982   5.338  24.998  0.00  0.00    +0.074 C 
ATOM      2  S   UNL     1      -1.720   5.038  25.215  0.00  0.00    -0.113 S 
ENDBRANCH   3   2
ENDBRANCH   9   6
BRANCH  19  20
ATOM     20  C   UNL     1      -2.569  -1.956  24.580  0.00  0.00    +0.075 A 
ATOM     21  C   UNL     1      -2.866  -2.253  25.291  0.00  0.00    +0.017 A 
ATOM     22  C   UNL     1      -3.565  -2.689  25.295  0.00  0.00    +0.001 A 
ATOM     23  C   UNL     1      -3.970  -2.830  24.589  0.00  0.00    +0.000 A 
ATOM     24  C   UNL     1      -3.673  -2.533  23.879  0.00  0.00    +0.001 A 
ATOM     25  C   UNL     1      -2.974  -2.096  23.874  0.00  0.00    +0.017 A 
ENDBRANCH  19  20
TORSDOF 3
ENDMDL
MODEL 5
REMARK VINA RESULT:     -11.4      2.461      3.553
REMARK  Name = 
REMARK  3 active torsions:
REMARK  status: ('A' for Active; 'I' for Inactive)
REMARK    1  A    between atoms: S_2  and  C_3
REMARK    2  A    between atoms: C_6  and  C_9
REMARK    3  A    between atoms: N_19  and  C_20
REMARK                            x       y       z     vdW  Elec       q    Type
REMARK                         _______ _______ _______ _____ _____    ______ ____
ROOT
ATOM      9  C   UNL     1      -1.770   1.018  24.290  0.00  0.00    +0.012 A 
ATOM     10  C   UNL     1      -2.222   1.469  23.769  0.00  0.00    +0.041 A 
ATOM     11  C   UNL     1      -2.190   1.829  22.924  0.00  0.00    +0.058 C 
ATOM     12  C   UNL     1      -1.772   1.877  22.362  0.00  0.00    +0.011 C 
ATOM     13  C   UNL     1      -2.512   2.136  22.587  0.00  0.00    +0.043 C 
ATOM     14  C   UNL     1      -3.412   2.534  22.672  0.00  0.00    +0.097 C 
ATOM     15  N   UNL     1      -3.603   2.283  23.446  0.00  0.00    -0.262 N 
ATOM     16  C   UNL     1      -3.058   2.221  22.991  0.00  0.00    +0.101 C 
ATOM     17  C   UNL     1      -4.043   2.188  24.137  0.00  0.00    +0.327 C 
ATOM     18  O   UNL     1      -3.733   1.757  24.769  0.00  0.00    -0.250 OA
ATOM     19  N   UNL     1      -4.794   2.525  24.198  0.00  0.00    -0.162 NA
ATOM     26  C   UNL     1      -2.555   1.763  23.471  0.00  0.00    +0.110 C 
ATOM     27  N   UNL     1      -2.971   1.732  23.994  0.00  0.00    -0.299 N 
ATOM     28  C   UNL     1      -3.268   1.544  24.740  0.00  0.00    +0.261 A 
ATOM     29  O   UNL     1      -3.952   1.681  25.180  0.00  0.00    -0.267 OA
ATOM     30  C   UNL     1      -2.816   1.093  25.261  0.00  0.00    +0.061 A 
ATOM     31  C   UNL     1      -2.067   0.830  25.037  0.00  0.00    +0.006 A 
ENDROOT
BRANCH   9   6
ATOM      3  C   UNL     1       0.477   0.228  23.616  0.00  0.00    +0.025 A 
ATOM      4  C   UNL     1      -0.178  -0.265  23.526  0.00  0.00    +0.006 A 
ATOM      5  C   UNL     1      -0.927  -0.002  23.751  0.00  0.00    +0.001 A 
ATOM      6  C   UNL     1      -1.021   0.755  24.066  0.00  0.00    +0.001 A 
ATOM      7  C   UNL     1      -0.366   1.248  24.156  0.00  0.00    +0.001 A 
ATOM      8  C   UNL     1       0.383   0.985  23.931  0.00  0.00    +0.006 A 
BRANCH   3   2
ATOM      1  C   UNL     1       1.434  -0.056  22.593  0.00  0.00    +0.074 C 
ATOM      2  S   UNL     1       1.225  -0.035  23.392  0.00  0.00    -0.113 S 
ENDBRANCH   3   2
ENDBRANCH   9   6
BRANCH  19  20
ATOM     20  C   UNL     1      -5.234   2.431  24.890  0.00  0.00    +0.075 A 
ATOM     21  C   UNL     1      -5.735   1.781  24.974  0.00  0.00    +0.017 A 
ATOM     22  C   UNL     1      -6.175   1.687  25.666  0.00  0.00    +0.001 A 
ATOM     23  C   UNL     1      -6.114   2.243  26.273  0.00  0.00    +0.000 A 
ATOM     24  C   UNL     1      -5.613   2.892  26.188  0.00  0.00    +0.001 A 
ATOM     25  C   UNL     1      -5.173   2.987  25.497  0.00  0.00    +0.017 A 
ENDBRANCH  19  20
TORSDOF 3
ENDMDL
MODEL 6
REMARK VINA RESULT:     -10.8      1.948      4.110
REMARK  Name = 
REMARK  3 active torsions:
REMARK  status: ('A' for Active; 'I' for Inactive)
REMARK    1  A    between atoms: S_2  and  C_3
REMARK    2  A    between atoms: C_6  and  C_9
REMARK    3  A    between atoms: N_19  and  C_20
REMARK                            x       y       z     vdW  Elec       q    Type
REMARK                         _______ _______ _______ _____ _____    ______ ____
ROOT
ATOM      9  C   UNL     1      -2.079   0.202  25.068  0.00  0.00    +0.012 A 
ATOM     10  C   UNL     1      -2.858   0.017  24.872  0.00  0.00    +0.041 A 
ATOM     11  C   UNL     1      -3.384  -0.699  24.634  0.00  0.00    +0.058 C 
ATOM     12  C   UNL     1      -3.352  -1.390  24.518  0.00  0.00    +0.011 C 
ATOM     13  C   UNL     1      -3.916  -0.802  24.505  0.00  0.00    +0.043 C 
ATOM     14  C   UNL     1      -4.727  -0.242  24.435  0.00  0.00    +0.097 C 
ATOM     15  N   UNL     1      -4.402   0.501  24.635  0.00  0.00    -0.262 N 
ATOM     16  C   UNL     1      -4.176  -0.171  24.563  0.00  0.00    +0.101 C 
ATOM     17  C   UNL     1      -4.371   1.312  24.787  0.00  0.00    +0.327 C 
ATOM     18  O   UNL     1      -3.655   1.664  24.999  0.00  0.00    -0.250 OA
ATOM     19  N   UNL     1      -5.054   1.769  24.726  0.00  0.00    -0.162 NA
ATOM     26  C   UNL     1      -3.375  -0.049  24.752  0.00  0.00    +0.110 C 
ATOM     27  N   UNL     1      -3.432   0.610  24.858  0.00  0.00    -0.299 N 
ATOM     28  C   UNL     1      -3.226   1.388  25.040  0.00  0.00    +0.261 A 
ATOM     29  O   UNL     1      -3.596   2.123  25.093  0.00  0.00    -0.267 OA
ATOM     30  C   UNL     1      -2.447   1.573  25.236  0.00  0.00    +0.061 A 
ATOM     31  C   UNL     1      -1.873   0.980  25.250  0.00  0.00    +0.006 A 
ENDROOT
BRANCH   9   6
ATOM      3  C   UNL     1      -0.358  -1.577  25.110  0.00  0.00    +0.025 A 
ATOM      4  C   UNL     1      -0.496  -1.153  24.416  0.00  0.00    +0.006 A 
ATOM      5  C   UNL     1      -1.070  -0.560  24.402  0.00  0.00    +0.001 A 
ATOM      6  C   UNL     1      -1.505  -0.391  25.082  0.00  0.00    +0.001 A 
ATOM      7  C   UNL     1      -1.367  -0.814  25.776  0.00  0.00    +0.001 A 
ATOM      8  C   UNL     1      -0.793  -1.407  25.790  0.00  0.00    +0.006 A 
BRANCH   3   2
ATOM      1  C   UNL     1       0.054  -2.891  25.490  0.00  0.00    +0.074 C 
ATOM      2  S   UNL     1       0.216  -2.169  25.125  0.00  0.00    -0.113 S 
ENDBRANCH   3   2
ENDBRANCH   9   6
BRANCH  19  20
ATOM     20  C   UNL     1      -5.022   2.580  24.877  0.00  0.00    +0.075 A 
ATOM     21  C   UNL     1      -5.254   2.872  25.614  0.00  0.00    +0.017 A 
ATOM     22  C   UNL     1      -5.222   3.682  25.764  0.00  0.00    +0.001 A 
ATOM     23  C   UNL     1      -4.958   4.201  25.178  0.00  0.00    +0.000 A 
ATOM     24  C   UNL     1      -4.727   3.909  24.443  0.00  0.00    +0.001 A 
ATOM     25  C   UNL     1      -4.759   3.099  24.291  0.00  0.00    +0.017 A 
ENDBRANCH  19  20
TORSDOF 3
ENDMDL
