REMARK  Name = 
REMARK  6 active torsions:
REMARK  status: ('A' for Active; 'I' for Inactive)
REMARK    1  A    between atoms: C_5  and  S_8
REMARK    2  A    between atoms: S_8  and  N_11
REMARK    3  A    between atoms: N_11  and  C_12
REMARK    4  A    between atoms: C_12  and  C_13
REMARK    5  A    between atoms: C_16  and  N_17
REMARK    6  A    between atoms: N_17  and  C_18
REMARK                            x       y       z     vdW  Elec       q    Type
REMARK                         _______ _______ _______ _____ _____    ______ ____
ROOT
ATOM     12  C   UNL     1       0.886   7.927   0.000  0.00  0.00    +0.148 C 
ENDROOT
BRANCH  12  13
ATOM     13  C   UNL     1       1.707   8.013   0.000  0.00  0.00    +0.166 C 
ATOM     14  O   UNL     1       2.119   8.728   0.000  0.00  0.00    -0.350 OA
ATOM     15  C   UNL     1       2.926   8.556   0.000  0.00  0.00    +0.162 C 
ATOM     16  C   UNL     1       3.013   7.736   0.000  0.00  0.00    +0.135 C 
ATOM     22  C   UNL     1       2.259   7.400   0.000  0.00  0.00    +0.199 C 
ATOM     23  O   UNL     1       2.087   6.593   0.000  0.00  0.00    -0.219 OA
BRANCH  16  17
ATOM     17  N   UNL     1       3.727   7.323   0.000  0.00  0.00    -0.216 NA
BRANCH  17  18
ATOM     18  C   UNL     1       3.727   6.498   0.000  0.00  0.00    +0.073 C 
ATOM     19  C   UNL     1       4.310   5.915   0.000  0.00  0.00    +0.017 C 
ATOM     20  C   UNL     1       3.727   5.331   0.000  0.00  0.00    +0.003 C 
ATOM     21  C   UNL     1       3.144   5.915   0.000  0.00  0.00    +0.017 C 
ENDBRANCH  17  18
ENDBRANCH  16  17
ENDBRANCH  12  13
BRANCH  12  11
ATOM     11  N   UNL     1       0.401   8.594   0.000  0.00  0.00    -0.075 NA
BRANCH  11   8
ATOM      8  S   UNL     1      -0.419   8.508   0.000  0.00  0.00    +0.077 S 
ATOM      9  O   UNL     1      -0.333   7.688   0.000  0.00  0.00    -0.152 OA
ATOM     10  O   UNL     1      -0.505   9.329   0.000  0.00  0.00    -0.152 OA
BRANCH   8   5
ATOM      1  C   UNL     1      -3.701   8.163   0.000  0.00  0.00    +0.031 C 
ATOM      2  C   UNL     1      -2.881   8.249   0.000  0.00  0.00    -0.022 A 
ATOM      3  C   UNL     1      -2.545   9.003   0.000  0.00  0.00    -0.003 A 
ATOM      4  C   UNL     1      -1.724   9.089   0.000  0.00  0.00    +0.020 A 
ATOM      5  C   UNL     1      -1.240   8.422   0.000  0.00  0.00    +0.124 A 
ATOM      6  C   UNL     1      -1.575   7.668   0.000  0.00  0.00    +0.020 A 
ATOM      7  C   UNL     1      -2.396   7.582   0.000  0.00  0.00    -0.003 A 
ENDBRANCH   8   5
ENDBRANCH  11   8
ENDBRANCH  12  11
TORSDOF 6
