MODEL 1
REMARK VINA RESULT:     -12.0      0.000      0.000
REMARK  Name = 
REMARK  8 active torsions:
REMARK  status: ('A' for Active; 'I' for Inactive)
REMARK    1  A    between atoms: S_2  and  C_5
REMARK    2  A    between atoms: C_5  and  C_6
REMARK    3  A    between atoms: C_6  and  C_7
REMARK    4  A    between atoms: C_7  and  N_8
REMARK    5  A    between atoms: C_7  and  C_31
REMARK    6  A    between atoms: C_9  and  C_11
REMARK    7  A    between atoms: C_13  and  N_14
REMARK    8  A    between atoms: N_17  and  C_18
REMARK                            x       y       z     vdW  Elec       q    Type
REMARK                         _______ _______ _______ _____ _____    ______ ____
ROOT
ATOM     11  C   UNL     1      -3.968   2.905  24.957  0.00  0.00    +0.033 C 
ATOM     12  C   UNL     1      -4.125   2.151  24.662  0.00  0.00    -0.002 C 
ATOM     13  C   UNL     1      -4.841   1.779  24.839  0.00  0.00    +0.152 C 
ATOM     26  C   UNL     1      -5.398   2.163  25.311  0.00  0.00    +0.206 C 
ATOM     27  O   UNL     1      -6.113   1.791  25.487  0.00  0.00    -0.218 OA
ATOM     28  C   UNL     1      -5.241   2.917  25.606  0.00  0.00    +0.189 C 
ATOM     29  O   UNL     1      -5.799   3.299  26.077  0.00  0.00    -0.220 OA
ATOM     30  C   UNL     1      -4.526   3.287  25.429  0.00  0.00    +0.066 C 
ENDROOT
BRANCH  13  14
ATOM     14  N   UNL     1      -4.998   1.026  24.544  0.00  0.00    -0.181 NA
ATOM     15  C   UNL     1      -4.497   0.397  24.729  0.00  0.00    +0.344 C 
ATOM     16  O   UNL     1      -3.838   0.524  25.209  0.00  0.00    -0.249 OA
ATOM     17  N   UNL     1      -4.654  -0.357  24.434  0.00  0.00    -0.159 NA
BRANCH  17  18
ATOM     18  C   UNL     1      -4.153  -0.985  24.619  0.00  0.00    +0.102 A 
ATOM     19  C   UNL     1      -3.821  -1.039  25.372  0.00  0.00    +0.021 A 
ATOM     20  C   UNL     1      -3.319  -1.668  25.558  0.00  0.00    +0.031 A 
ATOM     21  C   UNL     1      -3.149  -2.242  24.989  0.00  0.00    +0.142 A 
ATOM     22  F   UNL     1      -2.647  -2.869  25.175  0.00  0.00    -0.204 F 
ATOM     23  C   UNL     1      -3.481  -2.187  24.236  0.00  0.00    +0.061 A 
ATOM     24  C   UNL     1      -3.982  -1.559  24.051  0.00  0.00    +0.158 A 
ATOM     25  F   UNL     1      -4.314  -1.504  23.298  0.00  0.00    -0.203 F 
ENDBRANCH  17  18
ENDBRANCH  13  14
BRANCH  11   9
ATOM      8  N   UNL     1      -2.658   3.320  25.352  0.00  0.00    -0.194 NA
ATOM      9  C   UNL     1      -3.253   3.275  24.781  0.00  0.00    +0.261 C 
ATOM     10  O   UNL     1      -3.131   3.603  24.033  0.00  0.00    -0.269 OA
BRANCH   8   7
ATOM      7  C   UNL     1      -1.943   3.691  25.175  0.00  0.00    +0.176 C 
BRANCH   7  31
ATOM     31  C   UNL     1      -1.834   4.487  25.358  0.00  0.00    +0.281 C 
ATOM     32  N   UNL     1      -1.525   5.003  24.792  0.00  0.00    -0.086 NA
ATOM     33  O   UNL     1      -2.034   4.770  26.107  0.00  0.00    -0.270 OA
ENDBRANCH   7  31
BRANCH   7   6
ATOM      6  C   UNL     1      -1.336   3.264  24.814  0.00  0.00    +0.056 C 
BRANCH   6   5
ATOM      5  C   UNL     1      -0.748   2.913  25.273  0.00  0.00    +0.153 C 
BRANCH   5   2
ATOM      1  C   UNL     1       0.228   1.753  24.622  0.00  0.00    +0.176 C 
ATOM      2  S   UNL     1      -0.261   2.334  24.948  0.00  0.00    -0.008 S 
ATOM      3  O   UNL     1      -0.506   1.802  25.529  0.00  0.00    -0.173 OA
ATOM      4  O   UNL     1      -0.015   2.866  24.367  0.00  0.00    -0.173 OA
ENDBRANCH   5   2
ENDBRANCH   6   5
ENDBRANCH   7   6
ENDBRANCH   8   7
ENDBRANCH  11   9
TORSDOF 8
ENDMDL
MODEL 2
REMARK VINA RESULT:     -11.4      2.378      4.694
REMARK  Name = 
REMARK  8 active torsions:
REMARK  status: ('A' for Active; 'I' for Inactive)
REMARK    1  A    between atoms: S_2  and  C_5
REMARK    2  A    between atoms: C_5  and  C_6
REMARK    3  A    between atoms: C_6  and  C_7
REMARK    4  A    between atoms: C_7  and  N_8
REMARK    5  A    between atoms: C_7  and  C_31
REMARK    6  A    between atoms: C_9  and  C_11
REMARK    7  A    between atoms: C_13  and  N_14
REMARK    8  A    between atoms: N_17  and  C_18
REMARK                            x       y       z     vdW  Elec       q    Type
REMARK                         _______ _______ _______ _____ _____    ______ ____
ROOT
ATOM     11  C   UNL     1      -4.334   1.018  24.841  0.00  0.00    +0.033 C 
ATOM     12  C   UNL     1      -3.911   1.615  25.221  0.00  0.00    -0.002 C 
ATOM     13  C   UNL     1      -4.293   2.311  25.450  0.00  0.00    +0.152 C 
ATOM     26  C   UNL     1      -5.098   2.408  25.298  0.00  0.00    +0.206 C 
ATOM     27  O   UNL     1      -5.478   3.103  25.527  0.00  0.00    -0.218 OA
ATOM     28  C   UNL     1      -5.521   1.810  24.918  0.00  0.00    +0.189 C 
ATOM     29  O   UNL     1      -6.326   1.908  24.767  0.00  0.00    -0.220 OA
ATOM     30  C   UNL     1      -5.140   1.116  24.690  0.00  0.00    +0.066 C 
ENDROOT
BRANCH  13  14
ATOM     14  N   UNL     1      -3.869   2.908  25.829  0.00  0.00    -0.181 NA
ATOM     15  C   UNL     1      -3.196   3.226  25.474  0.00  0.00    +0.344 C 
ATOM     16  O   UNL     1      -2.947   2.946  24.740  0.00  0.00    -0.249 OA
ATOM     17  N   UNL     1      -2.772   3.823  25.854  0.00  0.00    -0.159 NA
BRANCH  17  18
ATOM     18  C   UNL     1      -2.099   4.141  25.499  0.00  0.00    +0.102 A 
ATOM     19  C   UNL     1      -1.498   3.641  25.235  0.00  0.00    +0.021 A 
ATOM     20  C   UNL     1      -0.824   3.959  24.879  0.00  0.00    +0.031 A 
ATOM     21  C   UNL     1      -0.752   4.776  24.788  0.00  0.00    +0.142 A 
ATOM     22  F   UNL     1      -0.078   5.093  24.433  0.00  0.00    -0.204 F 
ATOM     23  C   UNL     1      -1.353   5.276  25.053  0.00  0.00    +0.061 A 
ATOM     24  C   UNL     1      -2.027   4.957  25.408  0.00  0.00    +0.158 A 
ATOM     25  F   UNL     1      -2.628   5.457  25.672  0.00  0.00    -0.203 F 
ENDBRANCH  17  18
ENDBRANCH  13  14
BRANCH  11   9
ATOM      8  N   UNL     1      -3.578  -0.147  25.179  0.00  0.00    -0.194 NA
ATOM      9  C   UNL     1      -3.953   0.324  24.613  0.00  0.00    +0.261 C 
ATOM     10  O   UNL     1      -3.946   0.098  23.819  0.00  0.00    -0.269 OA
BRANCH   8   7
ATOM      7  C   UNL     1      -3.196  -0.841  24.950  0.00  0.00    +0.176 C 
BRANCH   7  31
ATOM     31  C   UNL     1      -3.566  -1.570  25.058  0.00  0.00    +0.281 C 
ATOM     32  N   UNL     1      -3.781  -2.025  24.402  0.00  0.00    -0.086 NA
ATOM     33  O   UNL     1      -3.721  -1.847  25.819  0.00  0.00    -0.270 OA
ENDBRANCH   7  31
BRANCH   7   6
ATOM      6  C   UNL     1      -2.444  -0.806  24.613  0.00  0.00    +0.056 C 
BRANCH   6   5
ATOM      5  C   UNL     1      -1.777  -0.951  25.076  0.00  0.00    +0.153 C 
BRANCH   5   2
ATOM      1  C   UNL     1      -0.270  -0.668  24.466  0.00  0.00    +0.176 C 
ATOM      2  S   UNL     1      -1.024  -0.810  24.771  0.00  0.00    -0.008 S 
ATOM      3  O   UNL     1      -0.957  -0.140  25.249  0.00  0.00    -0.173 OA
ATOM      4  O   UNL     1      -1.092  -1.479  24.293  0.00  0.00    -0.173 OA
ENDBRANCH   5   2
ENDBRANCH   6   5
ENDBRANCH   7   6
ENDBRANCH   8   7
ENDBRANCH  11   9
TORSDOF 8
ENDMDL
MODEL 3
REMARK VINA RESULT:     -11.3      1.568      3.460
REMARK  Name = 
REMARK  8 active torsions:
REMARK  status: ('A' for Active; 'I' for Inactive)
REMARK    1  A    between atoms: S_2  and  C_5
REMARK    2  A    between atoms: C_5  and  C_6
REMARK    3  A    between atoms: C_6  and  C_7
REMARK    4  A    between atoms: C_7  and  N_8
REMARK    5  A    between atoms: C_7  and  C_31
REMARK    6  A    between atoms: C_9  and  C_11
REMARK    7  A    between atoms: C_13  and  N_14
REMARK    8  A    between atoms: N_17  and  C_18
REMARK                            x       y       z     vdW  Elec       q    Type
REMARK                         _______ _______ _______ _____ _____    ______ ____
ROOT
ATOM     11  C   UNL     1      -1.091   1.946  25.130  0.00  0.00    +0.033 C 
ATOM     12  C   UNL     1      -1.328   1.174  25.303  0.00  0.00    -0.002 C 
ATOM     13  C   UNL     1      -0.894   0.535  25.012  0.00  0.00    +0.152 C 
ATOM     26  C   UNL     1      -0.225   0.667  24.548  0.00  0.00    +0.206 C 
ATOM     27  O   UNL     1       0.207   0.028  24.258  0.00  0.00    -0.218 OA
ATOM     28  C   UNL     1       0.011   1.438  24.375  0.00  0.00    +0.189 C 
ATOM     29  O   UNL     1       0.680   1.570  23.912  0.00  0.00    -0.220 OA
ATOM     30  C   UNL     1      -0.421   2.077  24.666  0.00  0.00    +0.066 C 
ENDROOT
BRANCH  13  14
ATOM     14  N   UNL     1      -1.130  -0.236  25.185  0.00  0.00    -0.181 NA
ATOM     15  C   UNL     1      -1.824  -0.539  24.856  0.00  0.00    +0.344 C 
ATOM     16  O   UNL     1      -2.280  -0.070  24.354  0.00  0.00    -0.249 OA
ATOM     17  N   UNL     1      -2.060  -1.310  25.029  0.00  0.00    -0.159 NA
BRANCH  17  18
ATOM     18  C   UNL     1      -2.753  -1.612  24.700  0.00  0.00    +0.102 A 
ATOM     19  C   UNL     1      -3.432  -1.145  24.667  0.00  0.00    +0.021 A 
ATOM     20  C   UNL     1      -4.126  -1.447  24.338  0.00  0.00    +0.031 A 
ATOM     21  C   UNL     1      -4.140  -2.217  24.041  0.00  0.00    +0.142 A 
ATOM     22  F   UNL     1      -4.834  -2.519  23.712  0.00  0.00    -0.204 F 
ATOM     23  C   UNL     1      -3.461  -2.685  24.074  0.00  0.00    +0.061 A 
ATOM     24  C   UNL     1      -2.768  -2.382  24.403  0.00  0.00    +0.158 A 
ATOM     25  F   UNL     1      -2.089  -2.849  24.435  0.00  0.00    -0.203 F 
ENDBRANCH  17  18
ENDBRANCH  13  14
BRANCH  11   9
ATOM      8  N   UNL     1      -2.047   2.989  24.925  0.00  0.00    -0.194 NA
ATOM      9  C   UNL     1      -1.524   2.584  25.420  0.00  0.00    +0.261 C 
ATOM     10  O   UNL     1      -1.436   2.820  26.206  0.00  0.00    -0.269 OA
BRANCH   8   7
ATOM      7  C   UNL     1      -2.480   3.628  25.216  0.00  0.00    +0.176 C 
BRANCH   7  31
ATOM     31  C   UNL     1      -2.161   4.388  25.193  0.00  0.00    +0.281 C 
ATOM     32  N   UNL     1      -1.957   4.728  24.468  0.00  0.00    -0.086 NA
ATOM     33  O   UNL     1      -2.045   4.809  25.893  0.00  0.00    -0.270 OA
ENDBRANCH   7  31
BRANCH   7   6
ATOM      6  C   UNL     1      -3.232   3.506  25.531  0.00  0.00    +0.056 C 
BRANCH   6   5
ATOM      5  C   UNL     1      -3.893   3.516  25.037  0.00  0.00    +0.153 C 
BRANCH   5   2
ATOM      1  C   UNL     1      -5.352   2.987  25.597  0.00  0.00    +0.176 C 
ATOM      2  S   UNL     1      -4.621   3.252  25.317  0.00  0.00    -0.008 S 
ATOM      3  O   UNL     1      -4.599   2.623  24.783  0.00  0.00    -0.173 OA
ATOM      4  O   UNL     1      -4.644   3.880  25.851  0.00  0.00    -0.173 OA
ENDBRANCH   5   2
ENDBRANCH   6   5
ENDBRANCH   7   6
ENDBRANCH   8   7
ENDBRANCH  11   9
TORSDOF 8
ENDMDL
MODEL 4
REMARK VINA RESULT:     -10.8      2.411      4.831
REMARK  Name = 
REMARK  8 active torsions:
REMARK  status: ('A' for Active; 'I' for Inactive)
REMARK    1  A    between atoms: S_2  and  C_5
REMARK    2  A    between atoms: C_5  and  C_6
REMARK    3  A    between atoms: C_6  and  C_7
REMARK    4  A    between atoms: C_7  and  N_8
REMARK    5  A    between atoms: C_7  and  C_31
REMARK    6  A    between atoms: C_9  and  C_11
REMARK    7  A    between atoms: C_13  and  N_14
REMARK    8  A    between atoms: N_17  and  C_18
REMARK                            x       y       z     vdW  Elec       q    Type
REMARK                         _______ _______ _______ _____ _____    ______ ____
ROOT
ATOM     11  C   UNL     1      -0.919   1.244  24.924  0.00  0.00    +0.033 C 
ATOM     12  C   UNL     1      -1.563   1.732  24.758  0.00  0.00    -0.002 C 
ATOM     13  C   UNL     1      -1.569   2.514  25.023  0.00  0.00    +0.152 C 
ATOM     26  C   UNL     1      -0.931   2.807  25.455  0.00  0.00    +0.206 C 
ATOM     27  O   UNL     1      -0.937   3.588  25.720  0.00  0.00    -0.218 OA
ATOM     28  C   UNL     1      -0.286   2.319  25.621  0.00  0.00    +0.189 C 
ATOM     29  O   UNL     1       0.352   2.613  26.053  0.00  0.00    -0.220 OA
ATOM     30  C   UNL     1      -0.281   1.539  25.356  0.00  0.00    +0.066 C 
ENDROOT
BRANCH  13  14
ATOM     14  N   UNL     1      -2.213   3.000  24.857  0.00  0.00    -0.181 NA
ATOM     15  C   UNL     1      -2.981   2.733  24.997  0.00  0.00    +0.344 C 
ATOM     16  O   UNL     1      -3.103   1.977  25.304  0.00  0.00    -0.249 OA
ATOM     17  N   UNL     1      -3.625   3.220  24.831  0.00  0.00    -0.159 NA
BRANCH  17  18
ATOM     18  C   UNL     1      -4.392   2.952  24.971  0.00  0.00    +0.102 A 
ATOM     19  C   UNL     1      -4.658   2.258  24.614  0.00  0.00    +0.021 A 
ATOM     20  C   UNL     1      -5.426   1.989  24.754  0.00  0.00    +0.031 A 
ATOM     21  C   UNL     1      -5.927   2.415  25.253  0.00  0.00    +0.142 A 
ATOM     22  F   UNL     1      -6.694   2.146  25.393  0.00  0.00    -0.204 F 
ATOM     23  C   UNL     1      -5.661   3.109  25.611  0.00  0.00    +0.061 A 
ATOM     24  C   UNL     1      -4.893   3.377  25.470  0.00  0.00    +0.158 A 
ATOM     25  F   UNL     1      -4.627   4.071  25.828  0.00  0.00    -0.203 F 
ENDBRANCH  17  18
ENDBRANCH  13  14
BRANCH  11   9
ATOM      8  N   UNL     1      -1.159  -0.145  25.161  0.00  0.00    -0.194 NA
ATOM      9  C   UNL     1      -0.914   0.464  24.659  0.00  0.00    +0.261 C 
ATOM     10  O   UNL     1      -0.663   0.289  23.892  0.00  0.00    -0.269 OA
BRANCH   8   7
ATOM      7  C   UNL     1      -1.153  -0.926  24.895  0.00  0.00    +0.176 C 
BRANCH   7  31
ATOM     31  C   UNL     1      -0.484  -1.394  25.005  0.00  0.00    +0.281 C 
ATOM     32  N   UNL     1      -0.289  -1.666  25.760  0.00  0.00    -0.086 NA
ATOM     33  O   UNL     1      -0.008  -1.593  24.360  0.00  0.00    -0.270 OA
ENDBRANCH   7  31
BRANCH   7   6
ATOM      6  C   UNL     1      -1.818  -1.238  24.519  0.00  0.00    +0.056 C 
BRANCH   6   5
ATOM      5  C   UNL     1      -2.396  -1.628  24.959  0.00  0.00    +0.153 C 
BRANCH   5   2
ATOM      1  C   UNL     1      -3.831  -2.041  24.257  0.00  0.00    +0.176 C 
ATOM      2  S   UNL     1      -3.112  -1.834  24.608  0.00  0.00    -0.008 S 
ATOM      3  O   UNL     1      -3.497  -1.259  25.057  0.00  0.00    -0.173 OA
ATOM      4  O   UNL     1      -2.728  -2.410  24.160  0.00  0.00    -0.173 OA
ENDBRANCH   5   2
ENDBRANCH   6   5
ENDBRANCH   7   6
ENDBRANCH   8   7
ENDBRANCH  11   9
TORSDOF 8
ENDMDL
MODEL 5
REMARK VINA RESULT:     -10.5      2.137      4.118
REMARK  Name = 
REMARK  8 active torsions:
REMARK  status: ('A' for Active; 'I' for Inactive)
REMARK    1  A    between atoms: S_2  and  C_5
REMARK    2  A    between atoms: C_5  and  C_6
REMARK    3  A    between atoms: C_6  and  C_7
REMARK    4  A    between atoms: C_7  and  N_8
REMARK    5  A    between atoms: C_7  and  C_31
REMARK    6  A    between atoms: C_9  and  C_11
REMARK    7  A    between atoms: C_13  and  N_14
REMARK    8  A    between atoms: N_17  and  C_18
REMARK                            x       y       z     vdW  Elec       q    Type
REMARK                         _______ _______ _______ _____ _____    ______ ____
ROOT
ATOM     11  C   UNL     1      -2.348  -0.843  24.621  0.00  0.00    +0.033 C 
ATOM     12  C   UNL     1      -2.942  -0.304  24.425  0.00  0.00    -0.002 C 
ATOM     13  C   UNL     1      -3.718  -0.566  24.321  0.00  0.00    +0.152 C 
ATOM     26  C   UNL     1      -3.900  -1.365  24.413  0.00  0.00    +0.206 C 
ATOM     27  O   UNL     1      -4.675  -1.626  24.308  0.00  0.00    -0.218 OA
ATOM     28  C   UNL     1      -3.306  -1.903  24.609  0.00  0.00    +0.189 C 
ATOM     29  O   UNL     1      -3.488  -2.702  24.700  0.00  0.00    -0.220 OA
ATOM     30  C   UNL     1      -2.531  -1.642  24.713  0.00  0.00    +0.066 C 
ENDROOT
BRANCH  13  14
ATOM     14  N   UNL     1      -4.311  -0.028  24.125  0.00  0.00    -0.181 NA
ATOM     15  C   UNL     1      -4.377   0.683  24.538  0.00  0.00    +0.344 C 
ATOM     16  O   UNL     1      -3.847   0.855  25.147  0.00  0.00    -0.249 OA
ATOM     17  N   UNL     1      -4.970   1.222  24.342  0.00  0.00    -0.159 NA
BRANCH  17  18
ATOM     18  C   UNL     1      -5.035   1.932  24.755  0.00  0.00    +0.102 A 
ATOM     19  C   UNL     1      -4.402   2.461  24.767  0.00  0.00    +0.021 A 
ATOM     20  C   UNL     1      -4.466   3.173  25.180  0.00  0.00    +0.031 A 
ATOM     21  C   UNL     1      -5.164   3.355  25.582  0.00  0.00    +0.142 A 
ATOM     22  F   UNL     1      -5.228   4.066  25.995  0.00  0.00    -0.204 F 
ATOM     23  C   UNL     1      -5.797   2.826  25.570  0.00  0.00    +0.061 A 
ATOM     24  C   UNL     1      -5.732   2.115  25.157  0.00  0.00    +0.158 A 
ATOM     25  F   UNL     1      -6.365   1.586  25.145  0.00  0.00    -0.203 F 
ENDBRANCH  17  18
ENDBRANCH  13  14
BRANCH  11   9
ATOM      8  N   UNL     1      -1.230  -0.075  24.170  0.00  0.00    -0.194 NA
ATOM      9  C   UNL     1      -1.573  -0.582  24.725  0.00  0.00    +0.261 C 
ATOM     10  O   UNL     1      -1.140  -0.826  25.384  0.00  0.00    -0.269 OA
BRANCH   8   7
ATOM      7  C   UNL     1      -0.455   0.186  24.275  0.00  0.00    +0.176 C 
BRANCH   7  31
ATOM     31  C   UNL     1       0.160  -0.168  23.856  0.00  0.00    +0.281 C 
ATOM     32  N   UNL     1       0.253  -0.014  23.050  0.00  0.00    -0.086 NA
ATOM     33  O   UNL     1       0.684  -0.677  24.241  0.00  0.00    -0.270 OA
ENDBRANCH   7  31
BRANCH   7   6
ATOM      6  C   UNL     1      -0.295   0.802  24.800  0.00  0.00    +0.056 C 
BRANCH   6   5
ATOM      5  C   UNL     1      -0.193   1.570  24.517  0.00  0.00    +0.153 C 
BRANCH   5   2
ATOM      1  C   UNL     1      -0.189   2.844  25.566  0.00  0.00    +0.176 C 
ATOM      2  S   UNL     1      -0.191   2.206  25.040  0.00  0.00    -0.008 S 
ATOM      3  O   UNL     1       0.538   1.960  25.337  0.00  0.00    -0.173 OA
ATOM      4  O   UNL     1      -0.921   2.452  24.744  0.00  0.00    -0.173 OA
ENDBRANCH   5   2
ENDBRANCH   6   5
ENDBRANCH   7   6
ENDBRANCH   8   7
ENDBRANCH  11   9
TORSDOF 8
ENDMDL
MODEL 6
REMARK VINA RESULT:     -10.5      2.234      4.183
REMARK  Name = 
REMARK  8 active torsions:
REMARK  status: ('A' for Active; 'I' for Inactive)
REMARK    1  A    between atoms: S_2  and  C_5
REMARK    2  A    between atoms: C_5  and  C_6
REMARK    3  A    between atoms: C_6  and  C_7
REMARK    4  A    between atoms: C_7  and  N_8
REMARK    5  A    between atoms: C_7  and  C_31
REMARK    6  A    between atoms: C_9  and  C_11
REMARK    7  A    between atoms: C_13  and  N_14
REMARK    8  A    between atoms: N_17  and  C_18
REMARK                            x       y       z     vdW  Elec       q    Type
REMARK                         _______ _______ _______ _____ _____    ______ ____
ROOT
ATOM     11  C   UNL     1      -0.903   3.149  25.185  0.00  0.00    +0.033 C 
ATOM     12  C   UNL     1      -1.656   3.180  25.520  0.00  0.00    -0.002 C 
ATOM     13  C   UNL     1      -2.047   3.904  25.591  0.00  0.00    +0.152 C 
ATOM     26  C   UNL     1      -1.683   4.596  25.327  0.00  0.00    +0.206 C 
ATOM     27  O   UNL     1      -2.073   5.319  25.398  0.00  0.00    -0.218 OA
ATOM     28  C   UNL     1      -0.929   4.564  24.992  0.00  0.00    +0.189 C 
ATOM     29  O   UNL     1      -0.567   5.256  24.729  0.00  0.00    -0.220 OA
ATOM     30  C   UNL     1      -0.540   3.841  24.922  0.00  0.00    +0.066 C 
ENDROOT
BRANCH  13  14
ATOM     14  N   UNL     1      -2.799   3.936  25.925  0.00  0.00    -0.181 NA
ATOM     15  C   UNL     1      -3.405   3.464  25.624  0.00  0.00    +0.344 C 
ATOM     16  O   UNL     1      -3.257   2.961  24.987  0.00  0.00    -0.249 OA
ATOM     17  N   UNL     1      -4.159   3.496  25.958  0.00  0.00    -0.159 NA
BRANCH  17  18
ATOM     18  C   UNL     1      -4.764   3.024  25.656  0.00  0.00    +0.102 A 
ATOM     19  C   UNL     1      -4.618   2.232  25.476  0.00  0.00    +0.021 A 
ATOM     20  C   UNL     1      -5.224   1.760  25.174  0.00  0.00    +0.031 A 
ATOM     21  C   UNL     1      -5.975   2.080  25.051  0.00  0.00    +0.142 A 
ATOM     22  F   UNL     1      -6.580   1.607  24.749  0.00  0.00    -0.204 F 
ATOM     23  C   UNL     1      -6.120   2.872  25.231  0.00  0.00    +0.061 A 
ATOM     24  C   UNL     1      -5.515   3.343  25.533  0.00  0.00    +0.158 A 
ATOM     25  F   UNL     1      -5.660   4.135  25.713  0.00  0.00    -0.203 F 
ENDBRANCH  17  18
ENDBRANCH  13  14
BRANCH  11   9
ATOM      8  N   UNL     1      -0.758   1.879  24.546  0.00  0.00    -0.194 NA
ATOM      9  C   UNL     1      -0.513   2.426  25.115  0.00  0.00    +0.261 C 
ATOM     10  O   UNL     1       0.121   2.248  25.611  0.00  0.00    -0.269 OA
BRANCH   8   7
ATOM      7  C   UNL     1      -0.368   1.155  24.476  0.00  0.00    +0.176 C 
BRANCH   7  31
ATOM     31  C   UNL     1       0.191   1.043  23.880  0.00  0.00    +0.281 C 
ATOM     32  N   UNL     1      -0.053   0.968  23.095  0.00  0.00    -0.086 NA
ATOM     33  O   UNL     1       0.993   1.007  24.068  0.00  0.00    -0.270 OA
ENDBRANCH   7  31
BRANCH   7   6
ATOM      6  C   UNL     1      -0.537   0.543  25.002  0.00  0.00    +0.056 C 
BRANCH   6   5
ATOM      5  C   UNL     1      -1.061  -0.056  24.785  0.00  0.00    +0.153 C 
BRANCH   5   2
ATOM      1  C   UNL     1      -1.621  -1.116  25.919  0.00  0.00    +0.176 C 
ATOM      2  S   UNL     1      -1.341  -0.585  25.351  0.00  0.00    -0.008 S 
ATOM      3  O   UNL     1      -2.083  -0.227  25.319  0.00  0.00    -0.173 OA
ATOM      4  O   UNL     1      -0.598  -0.944  25.383  0.00  0.00    -0.173 OA
ENDBRANCH   5   2
ENDBRANCH   6   5
ENDBRANCH   7   6
ENDBRANCH   8   7
ENDBRANCH  11   9
TORSDOF 8
ENDMDL
