MODEL 1
REMARK VINA RESULT:     -10.0      0.000      0.000
REMARK  Name = 
REMARK  4 active torsions:
REMARK  status: ('A' for Active; 'I' for Inactive)
REMARK    1  A    between atoms: C_2  and  N_3
REMARK    2  A    between atoms: C_8  and  C_9
REMARK    3  A    between atoms: C_16  and  O_18
REMARK    4  A    between atoms: O_18  and  C_19
REMARK                            x       y       z     vdW  Elec       q    Type
REMARK                         _______ _______ _______ _____ _____    ______ ____
ROOT
ATOM      9  C   UNL     1      -3.282   0.360  24.128  0.00  0.00    +0.267 C 
ATOM     10  O   UNL     1      -2.654   0.674  23.697  0.00  0.00    -0.268 OA
ATOM     11  N   UNL     1      -3.835   0.862  24.479  0.00  0.00    -0.268 N 
ATOM     12  C   UNL     1      -4.441   0.491  24.898  0.00  0.00    +0.126 C 
ATOM     13  C   UNL     1      -5.070   0.835  25.306  0.00  0.00    +0.164 C 
ATOM     14  O   UNL     1      -5.248   1.636  25.395  0.00  0.00    -0.348 OA
ATOM     15  C   UNL     1      -4.842   2.290  25.099  0.00  0.00    +0.187 C 
ATOM     16  C   UNL     1      -4.156   2.305  24.641  0.00  0.00    +0.215 C 
ATOM     17  C   UNL     1      -3.708   1.669  24.364  0.00  0.00    +0.140 C 
ENDROOT
BRANCH   9   8
ATOM      3  N   UNL     1      -2.842  -0.955  24.617  0.00  0.00    -0.247 N 
ATOM      4  N   UNL     1      -3.129  -1.727  24.557  0.00  0.00    -0.174 NA
ATOM      5  C   UNL     1      -3.823  -1.706  24.111  0.00  0.00    +0.081 A 
ATOM      6  C   UNL     1      -4.292  -2.355  23.914  0.00  0.00    +0.054 C 
ATOM      7  C   UNL     1      -3.965  -0.922  23.896  0.00  0.00    +0.040 A 
ATOM      8  C   UNL     1      -3.359  -0.458  24.209  0.00  0.00    +0.132 A 
BRANCH   3   2
ATOM      1  C   UNL     1      -1.636  -1.291  25.308  0.00  0.00    +0.028 C 
ATOM      2  C   UNL     1      -2.159  -0.722  25.016  0.00  0.00    +0.128 C 
ENDBRANCH   3   2
ENDBRANCH   9   8
BRANCH  16  18
ATOM     18  O   UNL     1      -3.882   3.053  24.430  0.00  0.00    -0.473 OA
BRANCH  18  19
ATOM     19  C   UNL     1      -3.387   3.471  24.942  0.00  0.00    +0.158 A 
ATOM     20  C   UNL     1      -2.591   3.577  24.751  0.00  0.00    +0.040 A 
ATOM     21  C   UNL     1      -2.097   3.995  25.262  0.00  0.00    +0.024 A 
ATOM     22  C   UNL     1      -2.398   4.306  25.964  0.00  0.00    +0.099 A 
ATOM     23  N   UNL     1      -3.193   4.200  26.155  0.00  0.00    -0.239 NA
ATOM     24  C   UNL     1      -3.687   3.782  25.644  0.00  0.00    +0.136 A 
ENDBRANCH  18  19
ENDBRANCH  16  18
TORSDOF 4
ENDMDL
MODEL 2
REMARK VINA RESULT:      -9.8      1.379      4.808
REMARK  Name = 
REMARK  4 active torsions:
REMARK  status: ('A' for Active; 'I' for Inactive)
REMARK    1  A    between atoms: C_2  and  N_3
REMARK    2  A    between atoms: C_8  and  C_9
REMARK    3  A    between atoms: C_16  and  O_18
REMARK    4  A    between atoms: O_18  and  C_19
REMARK                            x       y       z     vdW  Elec       q    Type
REMARK                         _______ _______ _______ _____ _____    ______ ____
ROOT
ATOM      9  C   UNL     1      -2.390   2.302  24.407  0.00  0.00    +0.267 C 
ATOM     10  O   UNL     1      -2.937   2.200  23.798  0.00  0.00    -0.268 OA
ATOM     11  N   UNL     1      -1.969   1.655  24.696  0.00  0.00    -0.268 N 
ATOM     12  C   UNL     1      -1.436   1.818  25.304  0.00  0.00    +0.126 C 
ATOM     13  C   UNL     1      -0.938   1.295  25.706  0.00  0.00    +0.164 C 
ATOM     14  O   UNL     1      -0.851   0.482  25.597  0.00  0.00    -0.348 OA
ATOM     15  C   UNL     1      -1.240  -0.010  25.061  0.00  0.00    +0.187 C 
ATOM     16  C   UNL     1      -1.812   0.189  24.501  0.00  0.00    +0.215 C 
ATOM     17  C   UNL     1      -2.136   0.931  24.338  0.00  0.00    +0.140 C 
ENDROOT
BRANCH   9   8
ATOM      3  N   UNL     1      -2.809   3.491  25.163  0.00  0.00    -0.247 N 
ATOM      4  N   UNL     1      -2.453   4.205  25.373  0.00  0.00    -0.174 NA
ATOM      5  C   UNL     1      -1.687   4.208  25.065  0.00  0.00    +0.081 A 
ATOM      6  C   UNL     1      -1.136   4.817  25.143  0.00  0.00    +0.054 C 
ATOM      7  C   UNL     1      -1.571   3.496  24.665  0.00  0.00    +0.040 A 
ATOM      8  C   UNL     1      -2.264   3.053  24.727  0.00  0.00    +0.132 A 
BRANCH   3   2
ATOM      1  C   UNL     1      -4.077   3.775  25.760  0.00  0.00    +0.028 C 
ATOM      2  C   UNL     1      -3.576   3.256  25.357  0.00  0.00    +0.128 C 
ENDBRANCH   3   2
ENDBRANCH   9   8
BRANCH  16  18
ATOM     18  O   UNL     1      -2.097  -0.434  24.042  0.00  0.00    -0.473 OA
BRANCH  18  19
ATOM     19  C   UNL     1      -2.544  -1.033  24.392  0.00  0.00    +0.158 A 
ATOM     20  C   UNL     1      -3.359  -0.942  24.479  0.00  0.00    +0.040 A 
ATOM     21  C   UNL     1      -3.806  -1.541  24.829  0.00  0.00    +0.024 A 
ATOM     22  C   UNL     1      -3.437  -2.231  25.091  0.00  0.00    +0.099 A 
ATOM     23  N   UNL     1      -2.622  -2.322  25.004  0.00  0.00    -0.239 NA
ATOM     24  C   UNL     1      -2.176  -1.723  24.654  0.00  0.00    +0.136 A 
ENDBRANCH  18  19
ENDBRANCH  16  18
TORSDOF 4
ENDMDL
MODEL 3
REMARK VINA RESULT:      -9.8      1.367      4.357
REMARK  Name = 
REMARK  4 active torsions:
REMARK  status: ('A' for Active; 'I' for Inactive)
REMARK    1  A    between atoms: C_2  and  N_3
REMARK    2  A    between atoms: C_8  and  C_9
REMARK    3  A    between atoms: C_16  and  O_18
REMARK    4  A    between atoms: O_18  and  C_19
REMARK                            x       y       z     vdW  Elec       q    Type
REMARK                         _______ _______ _______ _____ _____    ______ ____
ROOT
ATOM      9  C   UNL     1      -1.804   2.101  24.467  0.00  0.00    +0.267 C 
ATOM     10  O   UNL     1      -1.252   1.696  24.006  0.00  0.00    -0.268 OA
ATOM     11  N   UNL     1      -2.568   1.801  24.554  0.00  0.00    -0.268 N 
ATOM     12  C   UNL     1      -3.076   2.248  25.026  0.00  0.00    +0.126 C 
ATOM     13  C   UNL     1      -3.864   2.099  25.219  0.00  0.00    +0.164 C 
ATOM     14  O   UNL     1      -4.339   1.464  24.987  0.00  0.00    -0.348 OA
ATOM     15  C   UNL     1      -4.143   0.824  24.506  0.00  0.00    +0.187 C 
ATOM     16  C   UNL     1      -3.423   0.659  24.137  0.00  0.00    +0.215 C 
ATOM     17  C   UNL     1      -2.722   1.094  24.158  0.00  0.00    +0.140 C 
ENDROOT
BRANCH   9   8
ATOM      3  N   UNL     1      -1.037   2.886  25.444  0.00  0.00    -0.247 N 
ATOM      4  N   UNL     1      -1.000   3.684  25.652  0.00  0.00    -0.174 NA
ATOM      5  C   UNL     1      -1.533   4.096  25.176  0.00  0.00    +0.081 A 
ATOM      6  C   UNL     1      -1.675   4.908  25.199  0.00  0.00    +0.054 C 
ATOM      7  C   UNL     1      -1.900   3.554  24.674  0.00  0.00    +0.040 A 
ATOM      8  C   UNL     1      -1.592   2.806  24.840  0.00  0.00    +0.132 A 
BRANCH   3   2
ATOM      1  C   UNL     1       0.008   2.451  26.318  0.00  0.00    +0.028 C 
ATOM      2  C   UNL     1      -0.595   2.276  25.781  0.00  0.00    +0.128 C 
ENDBRANCH   3   2
ENDBRANCH   9   8
BRANCH  16  18
ATOM     18  O   UNL     1      -3.401  -0.032  23.687  0.00  0.00    -0.473 OA
BRANCH  18  19
ATOM     19  C   UNL     1      -3.440  -0.768  24.058  0.00  0.00    +0.158 A 
ATOM     20  C   UNL     1      -4.112  -1.240  23.970  0.00  0.00    +0.040 A 
ATOM     21  C   UNL     1      -4.150  -1.975  24.341  0.00  0.00    +0.024 A 
ATOM     22  C   UNL     1      -3.518  -2.239  24.800  0.00  0.00    +0.099 A 
ATOM     23  N   UNL     1      -2.847  -1.768  24.888  0.00  0.00    -0.239 NA
ATOM     24  C   UNL     1      -2.808  -1.032  24.517  0.00  0.00    +0.136 A 
ENDBRANCH  18  19
ENDBRANCH  16  18
TORSDOF 4
ENDMDL
MODEL 4
REMARK VINA RESULT:      -9.6      1.337      1.548
REMARK  Name = 
REMARK  4 active torsions:
REMARK  status: ('A' for Active; 'I' for Inactive)
REMARK    1  A    between atoms: C_2  and  N_3
REMARK    2  A    between atoms: C_8  and  C_9
REMARK    3  A    between atoms: C_16  and  O_18
REMARK    4  A    between atoms: O_18  and  C_19
REMARK                            x       y       z     vdW  Elec       q    Type
REMARK                         _______ _______ _______ _____ _____    ______ ____
ROOT
ATOM      9  C   UNL     1      -2.953   0.121  25.112  0.00  0.00    +0.267 C 
ATOM     10  O   UNL     1      -2.733   0.126  25.907  0.00  0.00    -0.268 OA
ATOM     11  N   UNL     1      -3.022   0.831  24.698  0.00  0.00    -0.268 N 
ATOM     12  C   UNL     1      -3.245   0.763  23.907  0.00  0.00    +0.126 C 
ATOM     13  C   UNL     1      -3.360   1.363  23.352  0.00  0.00    +0.164 C 
ATOM     14  O   UNL     1      -3.281   2.179  23.452  0.00  0.00    -0.348 OA
ATOM     15  C   UNL     1      -3.067   2.595  24.131  0.00  0.00    +0.187 C 
ATOM     16  C   UNL     1      -2.879   2.300  24.878  0.00  0.00    +0.215 C 
ATOM     17  C   UNL     1      -2.859   1.514  25.131  0.00  0.00    +0.140 C 
ENDROOT
BRANCH   9   8
ATOM      3  N   UNL     1      -2.548  -1.182  24.564  0.00  0.00    -0.247 N 
ATOM      4  N   UNL     1      -2.937  -1.800  24.179  0.00  0.00    -0.174 NA
ATOM      5  C   UNL     1      -3.734  -1.595  24.109  0.00  0.00    +0.081 A 
ATOM      6  C   UNL     1      -4.323  -2.054  23.760  0.00  0.00    +0.054 C 
ATOM      7  C   UNL     1      -3.836  -0.851  24.450  0.00  0.00    +0.040 A 
ATOM      8  C   UNL     1      -3.103  -0.596  24.731  0.00  0.00    +0.132 A 
BRANCH   3   2
ATOM      1  C   UNL     1      -1.269  -1.818  24.618  0.00  0.00    +0.028 C 
ATOM      2  C   UNL     1      -1.744  -1.156  24.749  0.00  0.00    +0.128 C 
ENDBRANCH   3   2
ENDBRANCH   9   8
BRANCH  16  18
ATOM     18  O   UNL     1      -2.686   2.863  25.448  0.00  0.00    -0.473 OA
BRANCH  18  19
ATOM     19  C   UNL     1      -2.053   3.378  25.323  0.00  0.00    +0.158 A 
ATOM     20  C   UNL     1      -2.194   4.175  25.164  0.00  0.00    +0.040 A 
ATOM     21  C   UNL     1      -1.562   4.689  25.039  0.00  0.00    +0.024 A 
ATOM     22  C   UNL     1      -0.787   4.405  25.072  0.00  0.00    +0.099 A 
ATOM     23  N   UNL     1      -0.646   3.609  25.231  0.00  0.00    -0.239 NA
ATOM     24  C   UNL     1      -1.279   3.095  25.356  0.00  0.00    +0.136 A 
ENDBRANCH  18  19
ENDBRANCH  16  18
TORSDOF 4
ENDMDL
MODEL 5
REMARK VINA RESULT:      -9.5      1.242      2.230
REMARK  Name = 
REMARK  4 active torsions:
REMARK  status: ('A' for Active; 'I' for Inactive)
REMARK    1  A    between atoms: C_2  and  N_3
REMARK    2  A    between atoms: C_8  and  C_9
REMARK    3  A    between atoms: C_16  and  O_18
REMARK    4  A    between atoms: O_18  and  C_19
REMARK                            x       y       z     vdW  Elec       q    Type
REMARK                         _______ _______ _______ _____ _____    ______ ____
ROOT
ATOM      9  C   UNL     1      -3.276  -0.300  24.902  0.00  0.00    +0.267 C 
ATOM     10  O   UNL     1      -3.993  -0.452  25.283  0.00  0.00    -0.268 OA
ATOM     11  N   UNL     1      -3.182   0.390  24.460  0.00  0.00    -0.268 N 
ATOM     12  C   UNL     1      -2.444   0.487  24.103  0.00  0.00    +0.126 C 
ATOM     13  C   UNL     1      -2.179   1.110  23.630  0.00  0.00    +0.164 C 
ATOM     14  O   UNL     1      -2.588   1.789  23.399  0.00  0.00    -0.348 OA
ATOM     15  C   UNL     1      -3.360   2.013  23.582  0.00  0.00    +0.187 C 
ATOM     16  C   UNL     1      -3.916   1.613  24.042  0.00  0.00    +0.215 C 
ATOM     17  C   UNL     1      -3.837   0.890  24.433  0.00  0.00    +0.140 C 
ENDROOT
BRANCH   9   8
ATOM      3  N   UNL     1      -2.672  -1.629  24.729  0.00  0.00    -0.247 N 
ATOM      4  N   UNL     1      -1.934  -1.961  24.893  0.00  0.00    -0.174 NA
ATOM      5  C   UNL     1      -1.461  -1.375  25.230  0.00  0.00    +0.081 A 
ATOM      6  C   UNL     1      -0.680  -1.467  25.479  0.00  0.00    +0.054 C 
ATOM      7  C   UNL     1      -1.906  -0.682  25.275  0.00  0.00    +0.040 A 
ATOM      8  C   UNL     1      -2.654  -0.839  24.965  0.00  0.00    +0.132 A 
BRANCH   3   2
ATOM      1  C   UNL     1      -3.311  -2.843  24.327  0.00  0.00    +0.028 C 
ATOM      2  C   UNL     1      -3.314  -2.019  24.389  0.00  0.00    +0.128 C 
ENDBRANCH   3   2
ENDBRANCH   9   8
BRANCH  16  18
ATOM     18  O   UNL     1      -4.648   1.984  24.123  0.00  0.00    -0.473 OA
BRANCH  18  19
ATOM     19  C   UNL     1      -4.756   2.564  24.699  0.00  0.00    +0.158 A 
ATOM     20  C   UNL     1      -5.247   2.417  25.346  0.00  0.00    +0.040 A 
ATOM     21  C   UNL     1      -5.354   2.997  25.922  0.00  0.00    +0.024 A 
ATOM     22  C   UNL     1      -4.971   3.725  25.852  0.00  0.00    +0.099 A 
ATOM     23  N   UNL     1      -4.481   3.871  25.205  0.00  0.00    -0.239 NA
ATOM     24  C   UNL     1      -4.373   3.291  24.629  0.00  0.00    +0.136 A 
ENDBRANCH  18  19
ENDBRANCH  16  18
TORSDOF 4
ENDMDL
