MODEL 1
REMARK VINA RESULT:      -9.5      0.000      0.000
REMARK  Name = 
REMARK  9 active torsions:
REMARK  status: ('A' for Active; 'I' for Inactive)
REMARK    1  A    between atoms: C_2  and  C_4
REMARK    2  A    between atoms: C_6  and  C_7
REMARK    3  A    between atoms: C_7  and  C_8
REMARK    4  A    between atoms: C_11  and  C_13
REMARK    5  A    between atoms: C_23  and  C_24
REMARK    6  A    between atoms: C_24  and  N_25
REMARK    7  A    between atoms: N_25  and  C_26
REMARK    8  A    between atoms: C_26  and  C_27
REMARK    9  A    between atoms: C_27  and  N_28
REMARK                            x       y       z     vdW  Elec       q    Type
REMARK                         _______ _______ _______ _____ _____    ______ ____
ROOT
ATOM      4  C   UNL     1      -0.731   1.042  24.478  0.00  0.00    +0.006 C 
ATOM      5  C   UNL     1      -1.431   0.752  24.802  0.00  0.00    +0.005 C 
ATOM      6  C   UNL     1      -1.584  -0.059  24.796  0.00  0.00    +0.027 C 
ATOM     20  C   UNL     1      -1.036  -0.579  24.467  0.00  0.00    -0.048 C 
ATOM     21  C   UNL     1      -1.187  -1.390  24.461  0.00  0.00    +0.026 C 
ATOM     22  C   UNL     1      -0.334  -0.289  24.143  0.00  0.00    -0.033 C 
ATOM     23  C   UNL     1      -0.182   0.522  24.149  0.00  0.00    +0.039 C 
ENDROOT
BRANCH   4   2
ATOM      1  C   UNL     1      -0.806   2.321  23.844  0.00  0.00    +0.000 C 
ATOM      2  C   UNL     1      -0.578   1.853  24.484  0.00  0.00    +0.000 C 
ATOM      3  C   UNL     1      -0.197   2.196  25.130  0.00  0.00    +0.000 C 
ENDBRANCH   4   2
BRANCH   6   7
ATOM      7  C   UNL     1      -2.285  -0.349  25.120  0.00  0.00    +0.091 C 
BRANCH   7   8
ATOM      8  C   UNL     1      -3.010  -0.040  24.877  0.00  0.00    +0.227 A 
ATOM      9  N   UNL     1      -3.472  -0.319  24.253  0.00  0.00    -0.111 NA
ATOM     10  N   UNL     1      -4.149   0.151  24.206  0.00  0.00    -0.107 NA
ATOM     11  C   UNL     1      -4.105   0.721  24.800  0.00  0.00    +0.252 A 
ATOM     12  O   UNL     1      -3.401   0.603  25.215  0.00  0.00    -0.419 OA
BRANCH  11  13
ATOM     13  C   UNL     1      -4.666   1.306  24.954  0.00  0.00    +0.083 A 
ATOM     14  C   UNL     1      -5.250   1.178  25.523  0.00  0.00    +0.007 A 
ATOM     15  C   UNL     1      -5.811   1.763  25.676  0.00  0.00    +0.000 A 
ATOM     16  C   UNL     1      -5.788   2.476  25.261  0.00  0.00    +0.002 A 
ATOM     17  C   UNL     1      -5.204   2.603  24.692  0.00  0.00    +0.030 A 
ATOM     18  C   UNL     1      -4.643   2.018  24.539  0.00  0.00    +0.145 A 
ATOM     19  F   UNL     1      -4.059   2.146  23.970  0.00  0.00    -0.204 F 
ENDBRANCH  11  13
ENDBRANCH   7   8
ENDBRANCH   6   7
BRANCH  23  24
ATOM     24  C   UNL     1       0.520   0.812  23.825  0.00  0.00    +0.093 C 
BRANCH  24  25
ATOM     25  N   UNL     1       1.033   0.303  23.428  0.00  0.00    -0.216 NA
BRANCH  25  26
ATOM     26  C   UNL     1       1.784   0.562  23.210  0.00  0.00    +0.106 C 
BRANCH  26  27
ATOM     27  C   UNL     1       2.293   0.056  22.803  0.00  0.00    +0.091 C 
BRANCH  27  28
ATOM     28  N   UNL     1       3.110   0.166  22.850  0.00  0.00    -0.267 NA
ATOM     29  C   UNL     1       3.451   0.858  22.557  0.00  0.00    +0.105 C 
ATOM     30  C   UNL     1       4.266   0.968  22.604  0.00  0.00    +0.159 C 
ATOM     31  O   UNL     1       4.742   0.387  22.944  0.00  0.00    -0.351 OA
ATOM     32  C   UNL     1       4.401  -0.305  23.238  0.00  0.00    +0.159 C 
ATOM     33  C   UNL     1       3.585  -0.416  23.191  0.00  0.00    +0.105 C 
ENDBRANCH  27  28
ENDBRANCH  26  27
ENDBRANCH  25  26
ENDBRANCH  24  25
ENDBRANCH  23  24
TORSDOF 9
ENDMDL
MODEL 2
REMARK VINA RESULT:      -9.2      1.146      1.971
REMARK  Name = 
REMARK  9 active torsions:
REMARK  status: ('A' for Active; 'I' for Inactive)
REMARK    1  A    between atoms: C_2  and  C_4
REMARK    2  A    between atoms: C_6  and  C_7
REMARK    3  A    between atoms: C_7  and  C_8
REMARK    4  A    between atoms: C_11  and  C_13
REMARK    5  A    between atoms: C_23  and  C_24
REMARK    6  A    between atoms: C_24  and  N_25
REMARK    7  A    between atoms: N_25  and  C_26
REMARK    8  A    between atoms: C_26  and  C_27
REMARK    9  A    between atoms: C_27  and  N_28
REMARK                            x       y       z     vdW  Elec       q    Type
REMARK                         _______ _______ _______ _____ _____    ______ ____
ROOT
ATOM      4  C   UNL     1      -0.983   0.823  24.632  0.00  0.00    +0.006 C 
ATOM      5  C   UNL     1      -1.457   1.425  24.936  0.00  0.00    +0.005 C 
ATOM      6  C   UNL     1      -1.241   2.214  24.832  0.00  0.00    +0.027 C 
ATOM     20  C   UNL     1      -0.550   2.401  24.423  0.00  0.00    -0.048 C 
ATOM     21  C   UNL     1      -0.333   3.190  24.318  0.00  0.00    +0.026 C 
ATOM     22  C   UNL     1      -0.074   1.799  24.118  0.00  0.00    -0.033 C 
ATOM     23  C   UNL     1      -0.291   1.010  24.223  0.00  0.00    +0.039 C 
ENDROOT
BRANCH   4   2
ATOM      1  C   UNL     1      -1.660  -0.347  24.170  0.00  0.00    +0.000 C 
ATOM      2  C   UNL     1      -1.199   0.033  24.737  0.00  0.00    +0.000 C 
ATOM      3  C   UNL     1      -0.952  -0.375  25.410  0.00  0.00    +0.000 C 
ENDBRANCH   4   2
BRANCH   6   7
ATOM      7  C   UNL     1      -1.716   2.816  25.135  0.00  0.00    +0.091 C 
BRANCH   7   8
ATOM      8  C   UNL     1      -2.508   2.871  24.909  0.00  0.00    +0.227 A 
ATOM      9  N   UNL     1      -2.795   3.256  24.239  0.00  0.00    -0.111 NA
ATOM     10  N   UNL     1      -3.616   3.173  24.229  0.00  0.00    -0.107 NA
ATOM     11  C   UNL     1      -3.836   2.736  24.894  0.00  0.00    +0.252 A 
ATOM     12  O   UNL     1      -3.151   2.549  25.314  0.00  0.00    -0.419 OA
BRANCH  11  13
ATOM     13  C   UNL     1      -4.605   2.523  25.101  0.00  0.00    +0.083 A 
ATOM     14  C   UNL     1      -5.019   2.967  25.661  0.00  0.00    +0.007 A 
ATOM     15  C   UNL     1      -5.788   2.755  25.869  0.00  0.00    +0.000 A 
ATOM     16  C   UNL     1      -6.145   2.099  25.517  0.00  0.00    +0.002 A 
ATOM     17  C   UNL     1      -5.731   1.655  24.958  0.00  0.00    +0.030 A 
ATOM     18  C   UNL     1      -4.961   1.868  24.750  0.00  0.00    +0.145 A 
ATOM     19  F   UNL     1      -4.548   1.424  24.191  0.00  0.00    -0.204 F 
ENDBRANCH  11  13
ENDBRANCH   7   8
ENDBRANCH   6   7
BRANCH  23  24
ATOM     24  C   UNL     1       0.185   0.408  23.919  0.00  0.00    +0.093 C 
BRANCH  24  25
ATOM     25  N   UNL     1       0.764   0.583  23.358  0.00  0.00    -0.216 NA
BRANCH  25  26
ATOM     26  C   UNL     1       1.459   0.141  23.332  0.00  0.00    +0.106 C 
BRANCH  26  27
ATOM     27  C   UNL     1       1.959   0.198  22.678  0.00  0.00    +0.091 C 
BRANCH  27  28
ATOM     28  N   UNL     1       2.778   0.188  22.782  0.00  0.00    -0.267 NA
ATOM     29  C   UNL     1       3.151  -0.496  23.056  0.00  0.00    +0.105 C 
ATOM     30  C   UNL     1       3.968  -0.505  23.160  0.00  0.00    +0.159 C 
ATOM     31  O   UNL     1       4.414   0.167  22.991  0.00  0.00    -0.351 OA
ATOM     32  C   UNL     1       4.041   0.851  22.717  0.00  0.00    +0.159 C 
ATOM     33  C   UNL     1       3.223   0.861  22.613  0.00  0.00    +0.105 C 
ENDBRANCH  27  28
ENDBRANCH  26  27
ENDBRANCH  25  26
ENDBRANCH  24  25
ENDBRANCH  23  24
TORSDOF 9
ENDMDL
MODEL 3
REMARK VINA RESULT:      -9.0      3.592      5.260
REMARK  Name = 
REMARK  9 active torsions:
REMARK  status: ('A' for Active; 'I' for Inactive)
REMARK    1  A    between atoms: C_2  and  C_4
REMARK    2  A    between atoms: C_6  and  C_7
REMARK    3  A    between atoms: C_7  and  C_8
REMARK    4  A    between atoms: C_11  and  C_13
REMARK    5  A    between atoms: C_23  and  C_24
REMARK    6  A    between atoms: C_24  and  N_25
REMARK    7  A    between atoms: N_25  and  C_26
REMARK    8  A    between atoms: C_26  and  C_27
REMARK    9  A    between atoms: C_27  and  N_28
REMARK                            x       y       z     vdW  Elec       q    Type
REMARK                         _______ _______ _______ _____ _____    ______ ____
ROOT
ATOM      4  C   UNL     1      -3.756   1.603  24.094  0.00  0.00    +0.006 C 
ATOM      5  C   UNL     1      -3.823   2.372  24.384  0.00  0.00    +0.005 C 
ATOM      6  C   UNL     1      -4.404   2.555  24.941  0.00  0.00    +0.027 C 
ATOM     20  C   UNL     1      -4.917   1.967  25.208  0.00  0.00    -0.048 C 
ATOM     21  C   UNL     1      -5.498   2.148  25.765  0.00  0.00    +0.026 C 
ATOM     22  C   UNL     1      -4.850   1.196  24.918  0.00  0.00    -0.033 C 
ATOM     23  C   UNL     1      -4.269   1.015  24.362  0.00  0.00    +0.039 C 
ENDROOT
BRANCH   4   2
ATOM      1  C   UNL     1      -3.332   1.510  22.733  0.00  0.00    +0.000 C 
ATOM      2  C   UNL     1      -3.175   1.421  23.537  0.00  0.00    +0.000 C 
ATOM      3  C   UNL     1      -2.437   1.149  23.785  0.00  0.00    +0.000 C 
ENDBRANCH   4   2
BRANCH   6   7
ATOM      7  C   UNL     1      -4.472   3.323  25.230  0.00  0.00    +0.091 C 
BRANCH   7   8
ATOM      8  C   UNL     1      -3.802   3.723  25.500  0.00  0.00    +0.227 A 
ATOM      9  N   UNL     1      -3.647   3.937  26.282  0.00  0.00    -0.111 NA
ATOM     10  N   UNL     1      -2.919   4.325  26.300  0.00  0.00    -0.107 NA
ATOM     11  C   UNL     1      -2.623   4.350  25.531  0.00  0.00    +0.252 A 
ATOM     12  O   UNL     1      -3.169   3.978  25.036  0.00  0.00    -0.419 OA
BRANCH  11  13
ATOM     13  C   UNL     1      -1.908   4.687  25.296  0.00  0.00    +0.083 A 
ATOM     14  C   UNL     1      -1.887   5.471  25.038  0.00  0.00    +0.007 A 
ATOM     15  C   UNL     1      -1.172   5.809  24.804  0.00  0.00    +0.000 A 
ATOM     16  C   UNL     1      -0.478   5.363  24.827  0.00  0.00    +0.002 A 
ATOM     17  C   UNL     1      -0.500   4.580  25.085  0.00  0.00    +0.030 A 
ATOM     18  C   UNL     1      -1.215   4.242  25.320  0.00  0.00    +0.145 A 
ATOM     19  F   UNL     1      -1.235   3.459  25.578  0.00  0.00    -0.204 F 
ENDBRANCH  11  13
ENDBRANCH   7   8
ENDBRANCH   6   7
BRANCH  23  24
ATOM     24  C   UNL     1      -4.202   0.245  24.072  0.00  0.00    +0.093 C 
BRANCH  24  25
ATOM     25  N   UNL     1      -4.405  -0.395  24.551  0.00  0.00    -0.216 NA
BRANCH  25  26
ATOM     26  C   UNL     1      -4.197  -1.160  24.326  0.00  0.00    +0.106 C 
BRANCH  26  27
ATOM     27  C   UNL     1      -3.892  -1.686  24.883  0.00  0.00    +0.091 C 
BRANCH  27  28
ATOM     28  N   UNL     1      -3.283  -2.204  24.674  0.00  0.00    -0.267 NA
ATOM     29  C   UNL     1      -2.511  -2.053  24.920  0.00  0.00    +0.105 C 
ATOM     30  C   UNL     1      -1.903  -2.569  24.711  0.00  0.00    +0.159 C 
ATOM     31  O   UNL     1      -2.068  -3.237  24.256  0.00  0.00    -0.351 OA
ATOM     32  C   UNL     1      -2.841  -3.388  24.010  0.00  0.00    +0.159 C 
ATOM     33  C   UNL     1      -3.449  -2.871  24.219  0.00  0.00    +0.105 C 
ENDBRANCH  27  28
ENDBRANCH  26  27
ENDBRANCH  25  26
ENDBRANCH  24  25
ENDBRANCH  23  24
TORSDOF 9
ENDMDL
MODEL 4
REMARK VINA RESULT:      -8.9      1.548      2.406
REMARK  Name = 
REMARK  9 active torsions:
REMARK  status: ('A' for Active; 'I' for Inactive)
REMARK    1  A    between atoms: C_2  and  C_4
REMARK    2  A    between atoms: C_6  and  C_7
REMARK    3  A    between atoms: C_7  and  C_8
REMARK    4  A    between atoms: C_11  and  C_13
REMARK    5  A    between atoms: C_23  and  C_24
REMARK    6  A    between atoms: C_24  and  N_25
REMARK    7  A    between atoms: N_25  and  C_26
REMARK    8  A    between atoms: C_26  and  C_27
REMARK    9  A    between atoms: C_27  and  N_28
REMARK                            x       y       z     vdW  Elec       q    Type
REMARK                         _______ _______ _______ _____ _____    ______ ____
ROOT
ATOM      4  C   UNL     1      -1.022   1.474  24.868  0.00  0.00    +0.006 C 
ATOM      5  C   UNL     1      -1.846   1.480  24.856  0.00  0.00    +0.005 C 
ATOM      6  C   UNL     1      -2.249   1.549  24.138  0.00  0.00    +0.027 C 
ATOM     20  C   UNL     1      -1.825   1.612  23.433  0.00  0.00    -0.048 C 
ATOM     21  C   UNL     1      -2.226   1.681  22.716  0.00  0.00    +0.026 C 
ATOM     22  C   UNL     1      -1.000   1.606  23.445  0.00  0.00    -0.033 C 
ATOM     23  C   UNL     1      -0.599   1.538  24.162  0.00  0.00    +0.039 C 
ENDROOT
BRANCH   4   2
ATOM      1  C   UNL     1      -0.513   0.664  25.929  0.00  0.00    +0.000 C 
ATOM      2  C   UNL     1      -0.620   1.406  25.585  0.00  0.00    +0.000 C 
ATOM      3  C   UNL     1      -0.324   2.080  25.958  0.00  0.00    +0.000 C 
ENDBRANCH   4   2
BRANCH   6   7
ATOM      7  C   UNL     1      -3.073   1.555  24.126  0.00  0.00    +0.091 C 
BRANCH   7   8
ATOM      8  C   UNL     1      -3.493   0.886  24.364  0.00  0.00    +0.227 A 
ATOM      9  N   UNL     1      -4.178   0.881  24.823  0.00  0.00    -0.111 NA
ATOM     10  N   UNL     1      -4.411   0.096  24.927  0.00  0.00    -0.107 NA
ATOM     11  C   UNL     1      -3.870  -0.385  24.531  0.00  0.00    +0.252 A 
ATOM     12  O   UNL     1      -3.302   0.103  24.183  0.00  0.00    -0.419 OA
BRANCH  11  13
ATOM     13  C   UNL     1      -3.892  -1.208  24.490  0.00  0.00    +0.083 A 
ATOM     14  C   UNL     1      -4.245  -1.580  23.844  0.00  0.00    +0.007 A 
ATOM     15  C   UNL     1      -4.267  -2.403  23.803  0.00  0.00    +0.000 A 
ATOM     16  C   UNL     1      -3.935  -2.856  24.409  0.00  0.00    +0.002 A 
ATOM     17  C   UNL     1      -3.582  -2.483  25.055  0.00  0.00    +0.030 A 
ATOM     18  C   UNL     1      -3.560  -1.660  25.095  0.00  0.00    +0.145 A 
ATOM     19  F   UNL     1      -3.207  -1.289  25.742  0.00  0.00    -0.204 F 
ENDBRANCH  11  13
ENDBRANCH   7   8
ENDBRANCH   6   7
BRANCH  23  24
ATOM     24  C   UNL     1       0.227   1.532  24.174  0.00  0.00    +0.093 C 
BRANCH  24  25
ATOM     25  N   UNL     1       0.648   1.354  23.488  0.00  0.00    -0.216 NA
BRANCH  25  26
ATOM     26  C   UNL     1       1.434   1.110  23.538  0.00  0.00    +0.106 C 
BRANCH  26  27
ATOM     27  C   UNL     1       1.784   0.713  22.905  0.00  0.00    +0.091 C 
BRANCH  27  28
ATOM     28  N   UNL     1       2.589   0.532  22.925  0.00  0.00    -0.267 NA
ATOM     29  C   UNL     1       3.149   1.122  22.792  0.00  0.00    +0.105 C 
ATOM     30  C   UNL     1       3.953   0.940  22.813  0.00  0.00    +0.159 C 
ATOM     31  O   UNL     1       4.197   0.168  22.967  0.00  0.00    -0.351 OA
ATOM     32  C   UNL     1       3.637  -0.422  23.100  0.00  0.00    +0.159 C 
ATOM     33  C   UNL     1       2.833  -0.241  23.080  0.00  0.00    +0.105 C 
ENDBRANCH  27  28
ENDBRANCH  26  27
ENDBRANCH  25  26
ENDBRANCH  24  25
ENDBRANCH  23  24
TORSDOF 9
ENDMDL
MODEL 5
REMARK VINA RESULT:      -8.3      2.595      5.331
REMARK  Name = 
REMARK  9 active torsions:
REMARK  status: ('A' for Active; 'I' for Inactive)
REMARK    1  A    between atoms: C_2  and  C_4
REMARK    2  A    between atoms: C_6  and  C_7
REMARK    3  A    between atoms: C_7  and  C_8
REMARK    4  A    between atoms: C_11  and  C_13
REMARK    5  A    between atoms: C_23  and  C_24
REMARK    6  A    between atoms: C_24  and  N_25
REMARK    7  A    between atoms: N_25  and  C_26
REMARK    8  A    between atoms: C_26  and  C_27
REMARK    9  A    between atoms: C_27  and  N_28
REMARK                            x       y       z     vdW  Elec       q    Type
REMARK                         _______ _______ _______ _____ _____    ______ ____
ROOT
ATOM      4  C   UNL     1      -0.663   2.029  25.213  0.00  0.00    +0.006 C 
ATOM      5  C   UNL     1      -0.382   1.288  24.988  0.00  0.00    +0.005 C 
ATOM      6  C   UNL     1      -0.565   0.984  24.243  0.00  0.00    +0.027 C 
ATOM     20  C   UNL     1      -1.030   1.424  23.722  0.00  0.00    -0.048 C 
ATOM     21  C   UNL     1      -1.213   1.122  22.977  0.00  0.00    +0.026 C 
ATOM     22  C   UNL     1      -1.312   2.167  23.947  0.00  0.00    -0.033 C 
ATOM     23  C   UNL     1      -1.129   2.469  24.692  0.00  0.00    +0.039 C 
ENDROOT
BRANCH   4   2
ATOM      1  C   UNL     1      -0.953   2.147  26.607  0.00  0.00    +0.000 C 
ATOM      2  C   UNL     1      -0.480   2.333  25.958  0.00  0.00    +0.000 C 
ATOM      3  C   UNL     1       0.177   2.822  26.053  0.00  0.00    +0.000 C 
ENDBRANCH   4   2
BRANCH   6   7
ATOM      7  C   UNL     1      -0.283   0.243  24.018  0.00  0.00    +0.091 C 
BRANCH   7   8
ATOM      8  C   UNL     1      -0.598  -0.439  24.360  0.00  0.00    +0.227 A 
ATOM      9  N   UNL     1      -0.184  -0.990  24.813  0.00  0.00    -0.111 NA
ATOM     10  N   UNL     1      -0.713  -1.581  25.041  0.00  0.00    -0.107 NA
ATOM     11  C   UNL     1      -1.454  -1.395  24.730  0.00  0.00    +0.252 A 
ATOM     12  O   UNL     1      -1.383  -0.689  24.308  0.00  0.00    -0.419 OA
BRANCH  11  13
ATOM     13  C   UNL     1      -2.144  -1.836  24.823  0.00  0.00    +0.083 A 
ATOM     14  C   UNL     1      -2.291  -2.481  24.328  0.00  0.00    +0.007 A 
ATOM     15  C   UNL     1      -2.981  -2.923  24.421  0.00  0.00    +0.000 A 
ATOM     16  C   UNL     1      -3.525  -2.720  25.008  0.00  0.00    +0.002 A 
ATOM     17  C   UNL     1      -3.378  -2.076  25.501  0.00  0.00    +0.030 A 
ATOM     18  C   UNL     1      -2.688  -1.634  25.408  0.00  0.00    +0.145 A 
ATOM     19  F   UNL     1      -2.541  -0.989  25.903  0.00  0.00    -0.204 F 
ENDBRANCH  11  13
ENDBRANCH   7   8
ENDBRANCH   6   7
BRANCH  23  24
ATOM     24  C   UNL     1      -1.411   3.211  24.917  0.00  0.00    +0.093 C 
BRANCH  24  25
ATOM     25  N   UNL     1      -2.060   3.541  24.528  0.00  0.00    -0.216 NA
BRANCH  25  26
ATOM     26  C   UNL     1      -2.722   3.777  24.959  0.00  0.00    +0.106 C 
BRANCH  26  27
ATOM     27  C   UNL     1      -3.439   3.907  24.574  0.00  0.00    +0.091 C 
BRANCH  27  28
ATOM     28  N   UNL     1      -4.140   3.610  24.894  0.00  0.00    -0.267 NA
ATOM     29  C   UNL     1      -4.426   3.907  25.608  0.00  0.00    +0.105 C 
ATOM     30  C   UNL     1      -5.125   3.610  25.928  0.00  0.00    +0.159 C 
ATOM     31  O   UNL     1      -5.539   3.016  25.533  0.00  0.00    -0.351 OA
ATOM     32  C   UNL     1      -5.254   2.719  24.818  0.00  0.00    +0.159 C 
ATOM     33  C   UNL     1      -4.554   3.016  24.498  0.00  0.00    +0.105 C 
ENDBRANCH  27  28
ENDBRANCH  26  27
ENDBRANCH  25  26
ENDBRANCH  24  25
ENDBRANCH  23  24
TORSDOF 9
ENDMDL
MODEL 6
REMARK VINA RESULT:      -8.1      1.884      6.699
REMARK  Name = 
REMARK  9 active torsions:
REMARK  status: ('A' for Active; 'I' for Inactive)
REMARK    1  A    between atoms: C_2  and  C_4
REMARK    2  A    between atoms: C_6  and  C_7
REMARK    3  A    between atoms: C_7  and  C_8
REMARK    4  A    between atoms: C_11  and  C_13
REMARK    5  A    between atoms: C_23  and  C_24
REMARK    6  A    between atoms: C_24  and  N_25
REMARK    7  A    between atoms: N_25  and  C_26
REMARK    8  A    between atoms: C_26  and  C_27
REMARK    9  A    between atoms: C_27  and  N_28
REMARK                            x       y       z     vdW  Elec       q    Type
REMARK                         _______ _______ _______ _____ _____    ______ ____
ROOT
ATOM      4  C   UNL     1      -0.497   1.410  24.501  0.00  0.00    +0.006 C 
ATOM      5  C   UNL     1       0.051   0.838  24.274  0.00  0.00    +0.005 C 
ATOM      6  C   UNL     1      -0.203   0.081  24.067  0.00  0.00    +0.027 C 
ATOM     20  C   UNL     1      -1.007  -0.104  24.088  0.00  0.00    -0.048 C 
ATOM     21  C   UNL     1      -1.262  -0.861  23.882  0.00  0.00    +0.026 C 
ATOM     22  C   UNL     1      -1.556   0.469  24.316  0.00  0.00    -0.033 C 
ATOM     23  C   UNL     1      -1.301   1.225  24.522  0.00  0.00    +0.039 C 
ENDROOT
BRANCH   4   2
ATOM      1  C   UNL     1      -0.008   2.327  25.482  0.00  0.00    +0.000 C 
ATOM      2  C   UNL     1      -0.243   2.168  24.708  0.00  0.00    +0.000 C 
ATOM      3  C   UNL     1      -0.224   2.765  24.140  0.00  0.00    +0.000 C 
ENDBRANCH   4   2
BRANCH   6   7
ATOM      7  C   UNL     1       0.346  -0.491  23.840  0.00  0.00    +0.091 C 
BRANCH   7   8
ATOM      8  C   UNL     1       0.973  -0.286  23.345  0.00  0.00    +0.227 A 
ATOM      9  N   UNL     1       0.940  -0.213  22.524  0.00  0.00    -0.111 NA
ATOM     10  N   UNL     1       1.691  -0.001  22.256  0.00  0.00    -0.107 NA
ATOM     11  C   UNL     1       2.189   0.057  22.911  0.00  0.00    +0.252 A 
ATOM     12  O   UNL     1       1.745  -0.119  23.584  0.00  0.00    -0.419 OA
BRANCH  11  13
ATOM     13  C   UNL     1       2.989   0.257  22.896  0.00  0.00    +0.083 A 
ATOM     14  C   UNL     1       3.217   1.030  22.722  0.00  0.00    +0.007 A 
ATOM     15  C   UNL     1       4.018   1.230  22.707  0.00  0.00    +0.000 A 
ATOM     16  C   UNL     1       4.589   0.656  22.866  0.00  0.00    +0.002 A 
ATOM     17  C   UNL     1       4.360  -0.117  23.040  0.00  0.00    +0.030 A 
ATOM     18  C   UNL     1       3.560  -0.316  23.055  0.00  0.00    +0.145 A 
ATOM     19  F   UNL     1       3.331  -1.090  23.229  0.00  0.00    -0.204 F 
ENDBRANCH  11  13
ENDBRANCH   7   8
ENDBRANCH   6   7
BRANCH  23  24
ATOM     24  C   UNL     1      -1.851   1.798  24.750  0.00  0.00    +0.093 C 
BRANCH  24  25
ATOM     25  N   UNL     1      -2.652   1.687  24.591  0.00  0.00    -0.216 NA
BRANCH  25  26
ATOM     26  C   UNL     1      -3.213   2.190  24.925  0.00  0.00    +0.106 C 
BRANCH  26  27
ATOM     27  C   UNL     1      -3.975   2.226  24.611  0.00  0.00    +0.091 C 
BRANCH  27  28
ATOM     28  N   UNL     1      -4.588   2.561  25.051  0.00  0.00    -0.267 NA
ATOM     29  C   UNL     1      -5.186   2.082  25.355  0.00  0.00    +0.105 C 
ATOM     30  C   UNL     1      -5.798   2.416  25.795  0.00  0.00    +0.159 C 
ATOM     31  O   UNL     1      -5.812   3.229  25.931  0.00  0.00    -0.351 OA
ATOM     32  C   UNL     1      -5.214   3.708  25.626  0.00  0.00    +0.159 C 
ATOM     33  C   UNL     1      -4.601   3.375  25.186  0.00  0.00    +0.105 C 
ENDBRANCH  27  28
ENDBRANCH  26  27
ENDBRANCH  25  26
ENDBRANCH  24  25
ENDBRANCH  23  24
TORSDOF 9
ENDMDL
MODEL 7
REMARK VINA RESULT:      -7.9      2.720      4.200
REMARK  Name = 
REMARK  9 active torsions:
REMARK  status: ('A' for Active; 'I' for Inactive)
REMARK    1  A    between atoms: C_2  and  C_4
REMARK    2  A    between atoms: C_6  and  C_7
REMARK    3  A    between atoms: C_7  and  C_8
REMARK    4  A    between atoms: C_11  and  C_13
REMARK    5  A    between atoms: C_23  and  C_24
REMARK    6  A    between atoms: C_24  and  N_25
REMARK    7  A    between atoms: N_25  and  C_26
REMARK    8  A    between atoms: C_26  and  C_27
REMARK    9  A    between atoms: C_27  and  N_28
REMARK                            x       y       z     vdW  Elec       q    Type
REMARK                         _______ _______ _______ _____ _____    ______ ____
ROOT
ATOM      4  C   UNL     1      -0.677   1.561  24.279  0.00  0.00    +0.006 C 
ATOM      5  C   UNL     1      -0.744   2.355  24.488  0.00  0.00    +0.005 C 
ATOM      6  C   UNL     1      -0.625   2.589  25.270  0.00  0.00    +0.027 C 
ATOM     20  C   UNL     1      -0.439   2.026  25.844  0.00  0.00    -0.048 C 
ATOM     21  C   UNL     1      -0.319   2.258  26.627  0.00  0.00    +0.026 C 
ATOM     22  C   UNL     1      -0.372   1.230  25.636  0.00  0.00    -0.033 C 
ATOM     23  C   UNL     1      -0.491   0.998  24.853  0.00  0.00    +0.039 C 
ENDROOT
BRANCH   4   2
ATOM      1  C   UNL     1      -1.561   1.288  23.189  0.00  0.00    +0.000 C 
ATOM      2  C   UNL     1      -0.797   1.327  23.497  0.00  0.00    +0.000 C 
ATOM      3  C   UNL     1      -0.151   1.133  23.022  0.00  0.00    +0.000 C 
ENDBRANCH   4   2
BRANCH   6   7
ATOM      7  C   UNL     1      -0.692   3.384  25.479  0.00  0.00    +0.091 C 
BRANCH   7   8
ATOM      8  C   UNL     1      -1.415   3.772  25.397  0.00  0.00    +0.227 A 
ATOM      9  N   UNL     1      -1.520   4.572  25.225  0.00  0.00    -0.111 NA
ATOM     10  N   UNL     1      -2.330   4.723  25.195  0.00  0.00    -0.107 NA
ATOM     11  C   UNL     1      -2.727   4.016  25.348  0.00  0.00    +0.252 A 
ATOM     12  O   UNL     1      -2.162   3.428  25.474  0.00  0.00    -0.419 OA
BRANCH  11  13
ATOM     13  C   UNL     1      -3.545   3.914  25.373  0.00  0.00    +0.083 A 
ATOM     14  C   UNL     1      -3.938   3.904  26.099  0.00  0.00    +0.007 A 
ATOM     15  C   UNL     1      -4.756   3.802  26.123  0.00  0.00    +0.000 A 
ATOM     16  C   UNL     1      -5.182   3.711  25.422  0.00  0.00    +0.002 A 
ATOM     17  C   UNL     1      -4.789   3.722  24.696  0.00  0.00    +0.030 A 
ATOM     18  C   UNL     1      -3.971   3.823  24.672  0.00  0.00    +0.145 A 
ATOM     19  F   UNL     1      -3.578   3.834  23.946  0.00  0.00    -0.204 F 
ENDBRANCH  11  13
ENDBRANCH   7   8
ENDBRANCH   6   7
BRANCH  23  24
ATOM     24  C   UNL     1      -0.424   0.202  24.644  0.00  0.00    +0.093 C 
BRANCH  24  25
ATOM     25  N   UNL     1      -0.651  -0.385  25.178  0.00  0.00    -0.216 NA
BRANCH  25  26
ATOM     26  C   UNL     1      -0.932  -1.108  24.900  0.00  0.00    +0.106 C 
BRANCH  26  27
ATOM     27  C   UNL     1      -1.396  -1.586  25.387  0.00  0.00    +0.091 C 
BRANCH  27  28
ATOM     28  N   UNL     1      -2.058  -1.972  25.079  0.00  0.00    -0.267 NA
ATOM     29  C   UNL     1      -1.967  -2.535  24.483  0.00  0.00    +0.105 C 
ATOM     30  C   UNL     1      -2.628  -2.919  24.176  0.00  0.00    +0.159 C 
ATOM     31  O   UNL     1      -3.380  -2.742  24.464  0.00  0.00    -0.351 OA
ATOM     32  C   UNL     1      -3.470  -2.179  25.061  0.00  0.00    +0.159 C 
ATOM     33  C   UNL     1      -2.809  -1.794  25.369  0.00  0.00    +0.105 C 
ENDBRANCH  27  28
ENDBRANCH  26  27
ENDBRANCH  25  26
ENDBRANCH  24  25
ENDBRANCH  23  24
TORSDOF 9
ENDMDL
MODEL 8
REMARK VINA RESULT:      -5.9     16.196     17.064
REMARK  Name = 
REMARK  9 active torsions:
REMARK  status: ('A' for Active; 'I' for Inactive)
REMARK    1  A    between atoms: C_2  and  C_4
REMARK    2  A    between atoms: C_6  and  C_7
REMARK    3  A    between atoms: C_7  and  C_8
REMARK    4  A    between atoms: C_11  and  C_13
REMARK    5  A    between atoms: C_23  and  C_24
REMARK    6  A    between atoms: C_24  and  N_25
REMARK    7  A    between atoms: N_25  and  C_26
REMARK    8  A    between atoms: C_26  and  C_27
REMARK    9  A    between atoms: C_27  and  N_28
REMARK                            x       y       z     vdW  Elec       q    Type
REMARK                         _______ _______ _______ _____ _____    ______ ____
ROOT
ATOM      4  C   UNL     1      -5.415  -9.677  11.993  0.00  0.00    +0.006 C 
ATOM      5  C   UNL     1      -5.699  -9.254  11.345  0.00  0.00    +0.005 C 
ATOM      6  C   UNL     1      -5.185  -9.031  10.740  0.00  0.00    +0.027 C 
ATOM     20  C   UNL     1      -4.386  -9.232  10.783  0.00  0.00    -0.048 C 
ATOM     21  C   UNL     1      -3.871  -9.009  10.178  0.00  0.00    +0.026 C 
ATOM     22  C   UNL     1      -4.101  -9.656  11.432  0.00  0.00    -0.033 C 
ATOM     23  C   UNL     1      -4.616  -9.878  12.036  0.00  0.00    +0.039 C 
ENDROOT
BRANCH   4   2
ATOM      1  C   UNL     1      -6.264 -10.653  12.600  0.00  0.00    +0.000 C 
ATOM      2  C   UNL     1      -5.929  -9.900  12.599  0.00  0.00    +0.000 C 
ATOM      3  C   UNL     1      -6.108  -9.368  13.204  0.00  0.00    +0.000 C 
ENDBRANCH   4   2
BRANCH   6   7
ATOM      7  C   UNL     1      -5.469  -8.607  10.092  0.00  0.00    +0.091 C 
BRANCH   7   8
ATOM      8  C   UNL     1      -6.201  -8.798   9.764  0.00  0.00    +0.227 A 
ATOM      9  N   UNL     1      -6.341  -9.379   9.195  0.00  0.00    -0.111 NA
ATOM     10  N   UNL     1      -7.149  -9.382   9.026  0.00  0.00    -0.107 NA
ATOM     11  C   UNL     1      -7.508  -8.802   9.491  0.00  0.00    +0.252 A 
ATOM     12  O   UNL     1      -6.923  -8.441   9.946  0.00  0.00    -0.419 OA
BRANCH  11  13
ATOM     13  C   UNL     1      -8.312  -8.615   9.498  0.00  0.00    +0.083 A 
ATOM     14  C   UNL     1      -8.838  -9.077   9.936  0.00  0.00    +0.007 A 
ATOM     15  C   UNL     1      -9.641  -8.890   9.943  0.00  0.00    +0.000 A 
ATOM     16  C   UNL     1      -9.919  -8.243   9.514  0.00  0.00    +0.002 A 
ATOM     17  C   UNL     1      -9.393  -7.782   9.076  0.00  0.00    +0.030 A 
ATOM     18  C   UNL     1      -8.589  -7.968   9.069  0.00  0.00    +0.145 A 
ATOM     19  F   UNL     1      -8.063  -7.507   8.631  0.00  0.00    -0.204 F 
ENDBRANCH  11  13
ENDBRANCH   7   8
ENDBRANCH   6   7
BRANCH  23  24
ATOM     24  C   UNL     1      -4.331 -10.302  12.685  0.00  0.00    +0.093 C 
BRANCH  24  25
ATOM     25  N   UNL     1      -3.520 -10.421  12.777  0.00  0.00    -0.216 NA
BRANCH  25  26
ATOM     26  C   UNL     1      -3.219 -10.664  13.504  0.00  0.00    +0.106 C 
BRANCH  26  27
ATOM     27  C   UNL     1      -2.417 -10.564  13.673  0.00  0.00    +0.091 C 
BRANCH  27  28
ATOM     28  N   UNL     1      -2.164 -10.507  14.457  0.00  0.00    -0.267 NA
ATOM     29  C   UNL     1      -1.428 -10.177  14.630  0.00  0.00    +0.105 C 
ATOM     30  C   UNL     1      -1.176 -10.121  15.413  0.00  0.00    +0.159 C 
ATOM     31  O   UNL     1      -1.658 -10.395  16.023  0.00  0.00    -0.351 OA
ATOM     32  C   UNL     1      -2.394 -10.725  15.849  0.00  0.00    +0.159 C 
ATOM     33  C   UNL     1      -2.648 -10.781  15.066  0.00  0.00    +0.105 C 
ENDBRANCH  27  28
ENDBRANCH  26  27
ENDBRANCH  25  26
ENDBRANCH  24  25
ENDBRANCH  23  24
TORSDOF 9
ENDMDL
