MODEL 1
REMARK VINA RESULT:      -8.3      0.000      0.000
REMARK  Name = 
REMARK  8 active torsions:
REMARK  status: ('A' for Active; 'I' for Inactive)
REMARK    1  A    between atoms: O_2  and  C_3
REMARK    2  A    between atoms: C_6  and  N_7
REMARK    3  A    between atoms: N_10  and  C_11
REMARK    4  A    between atoms: C_11  and  C_12
REMARK    5  A    between atoms: C_19  and  C_20
REMARK    6  A    between atoms: C_22  and  C_26
REMARK    7  A    between atoms: C_29  and  O_30
REMARK    8  A    between atoms: C_32  and  O_33
REMARK                            x       y       z     vdW  Elec       q    Type
REMARK                         _______ _______ _______ _____ _____    ______ ____
ROOT
ATOM     12  C   UNL     1      -0.054   1.112  23.787  0.00  0.00    +0.079 C 
ATOM     13  C   UNL     1      -0.655   0.675  24.020  0.00  0.00    +0.018 C 
ATOM     14  C   UNL     1      -1.430   0.907  24.032  0.00  0.00    +0.010 C 
ATOM     15  C   UNL     1      -1.969   0.256  24.334  0.00  0.00    +0.018 C 
ATOM     16  C   UNL     1      -1.398   0.526  24.165  0.00  0.00    +0.072 C 
ATOM     17  N   UNL     1      -0.847   1.341  23.803  0.00  0.00    -0.272 NA
ATOM     18  C   UNL     1      -1.262   2.121  23.573  0.00  0.00    +0.078 C 
ATOM     19  C   UNL     1      -1.823   1.659  23.809  0.00  0.00    +0.056 C 
ENDROOT
BRANCH  19  20
ATOM     20  C   UNL     1      -2.629   1.832  23.846  0.00  0.00    +0.058 A 
ATOM     21  C   UNL     1      -3.094   1.827  24.526  0.00  0.00    +0.035 A 
ATOM     22  C   UNL     1      -3.863   2.032  24.311  0.00  0.00    +0.102 A 
ATOM     23  N   UNL     1      -3.873   2.164  23.497  0.00  0.00    -0.170 NA
ATOM     24  N   UNL     1      -3.110   2.041  23.209  0.00  0.00    -0.253 N 
ATOM     25  C   UNL     1      -2.869   2.114  22.423  0.00  0.00    +0.153 C 
BRANCH  22  26
ATOM     26  C   UNL     1      -4.510   2.094  24.819  0.00  0.00    +0.023 A 
ATOM     27  C   UNL     1      -4.948   1.421  25.014  0.00  0.00    +0.005 A 
ATOM     28  C   UNL     1      -5.594   1.483  25.522  0.00  0.00    +0.040 A 
ATOM     29  C   UNL     1      -5.804   2.217  25.836  0.00  0.00    +0.172 A 
ATOM     32  C   UNL     1      -5.366   2.889  25.641  0.00  0.00    +0.172 A 
ATOM     35  C   UNL     1      -4.720   2.827  25.133  0.00  0.00    +0.042 A 
BRANCH  29  30
ATOM     30  O   UNL     1      -6.451   2.278  26.345  0.00  0.00    -0.468 OA
ATOM     31  C   UNL     1      -6.672   1.634  26.810  0.00  0.00    +0.253 C 
ENDBRANCH  29  30
BRANCH  32  33
ATOM     33  O   UNL     1      -5.576   3.623  25.955  0.00  0.00    -0.468 OA
ATOM     34  C   UNL     1      -5.398   4.314  25.543  0.00  0.00    +0.253 C 
ENDBRANCH  32  33
ENDBRANCH  22  26
ENDBRANCH  19  20
BRANCH  12  11
ATOM     11  C   UNL     1       0.746   1.244  23.641  0.00  0.00    +0.133 C 
BRANCH  11  10
ATOM      7  N   UNL     1       2.454   0.126  22.870  0.00  0.00    -0.161 NA
ATOM      8  C   UNL     1       2.012   0.688  23.281  0.00  0.00    +0.344 C 
ATOM      9  O   UNL     1       2.393   1.254  23.744  0.00  0.00    -0.249 OA
ATOM     10  N   UNL     1       1.189   0.683  23.229  0.00  0.00    -0.185 NA
BRANCH   7   6
ATOM      3  C   UNL     1       4.924   0.140  23.024  0.00  0.00    +0.139 A 
ATOM      4  C   UNL     1       4.491  -0.451  23.402  0.00  0.00    +0.038 A 
ATOM      5  C   UNL     1       3.667  -0.456  23.351  0.00  0.00    +0.020 A 
ATOM      6  C   UNL     1       3.277   0.130  22.921  0.00  0.00    +0.075 A 
ATOM     36  C   UNL     1       3.711   0.722  22.542  0.00  0.00    +0.020 A 
ATOM     37  C   UNL     1       4.534   0.726  22.594  0.00  0.00    +0.038 A 
BRANCH   3   2
ATOM      1  C   UNL     1       6.120  -0.174  23.740  0.00  0.00    +0.252 C 
ATOM      2  O   UNL     1       5.748   0.144  23.076  0.00  0.00    -0.471 OA
ENDBRANCH   3   2
ENDBRANCH   7   6
ENDBRANCH  11  10
ENDBRANCH  12  11
TORSDOF 8
ENDMDL
MODEL 2
REMARK VINA RESULT:      -6.5      0.993      8.167
REMARK  Name = 
REMARK  8 active torsions:
REMARK  status: ('A' for Active; 'I' for Inactive)
REMARK    1  A    between atoms: O_2  and  C_3
REMARK    2  A    between atoms: C_6  and  N_7
REMARK    3  A    between atoms: N_10  and  C_11
REMARK    4  A    between atoms: C_11  and  C_12
REMARK    5  A    between atoms: C_19  and  C_20
REMARK    6  A    between atoms: C_22  and  C_26
REMARK    7  A    between atoms: C_29  and  O_30
REMARK    8  A    between atoms: C_32  and  O_33
REMARK                            x       y       z     vdW  Elec       q    Type
REMARK                         _______ _______ _______ _____ _____    ______ ____
ROOT
ATOM     12  C   UNL     1      -1.040   0.920  24.122  0.00  0.00    +0.079 C 
ATOM     13  C   UNL     1      -0.380   1.333  24.119  0.00  0.00    +0.018 C 
ATOM     14  C   UNL     1       0.319   1.103  23.782  0.00  0.00    +0.010 C 
ATOM     15  C   UNL     1       0.960   1.721  23.887  0.00  0.00    +0.018 C 
ATOM     16  C   UNL     1       0.361   1.468  23.951  0.00  0.00    +0.072 C 
ATOM     17  N   UNL     1      -0.324   0.693  23.780  0.00  0.00    -0.272 NA
ATOM     18  C   UNL     1      -0.076  -0.059  23.325  0.00  0.00    +0.078 C 
ATOM     19  C   UNL     1       0.550   0.378  23.345  0.00  0.00    +0.056 C 
ENDROOT
BRANCH  19  20
ATOM     20  C   UNL     1       1.290   0.204  23.023  0.00  0.00    +0.058 A 
ATOM     21  C   UNL     1       2.018   0.316  23.393  0.00  0.00    +0.035 A 
ATOM     22  C   UNL     1       2.609   0.069  22.874  0.00  0.00    +0.102 A 
ATOM     23  N   UNL     1       2.246  -0.196  22.182  0.00  0.00    -0.170 NA
ATOM     24  N   UNL     1       1.430  -0.113  22.274  0.00  0.00    -0.253 N 
ATOM     25  C   UNL     1       0.856  -0.311  21.716  0.00  0.00    +0.153 C 
BRANCH  22  26
ATOM     26  C   UNL     1       3.421   0.084  23.019  0.00  0.00    +0.023 A 
ATOM     27  C   UNL     1       3.868   0.740  22.796  0.00  0.00    +0.005 A 
ATOM     28  C   UNL     1       4.680   0.755  22.941  0.00  0.00    +0.040 A 
ATOM     29  C   UNL     1       5.045   0.114  23.310  0.00  0.00    +0.172 A 
ATOM     32  C   UNL     1       4.598  -0.543  23.534  0.00  0.00    +0.172 A 
ATOM     35  C   UNL     1       3.786  -0.557  23.388  0.00  0.00    +0.042 A 
BRANCH  29  30
ATOM     30  O   UNL     1       5.857   0.130  23.456  0.00  0.00    -0.468 OA
ATOM     31  C   UNL     1       6.189   0.756  23.878  0.00  0.00    +0.253 C 
ENDBRANCH  29  30
BRANCH  32  33
ATOM     33  O   UNL     1       4.963  -1.184  23.903  0.00  0.00    -0.468 OA
ATOM     34  C   UNL     1       4.593  -1.920  23.911  0.00  0.00    +0.253 C 
ENDBRANCH  32  33
ENDBRANCH  22  26
ENDBRANCH  19  20
BRANCH  12  11
ATOM     11  C   UNL     1      -1.833   0.802  24.314  0.00  0.00    +0.133 C 
BRANCH  11  10
ATOM      7  N   UNL     1      -3.670   1.980  24.297  0.00  0.00    -0.161 NA
ATOM      8  C   UNL     1      -3.104   1.422  24.518  0.00  0.00    +0.344 C 
ATOM      9  O   UNL     1      -3.243   0.926  25.162  0.00  0.00    -0.249 OA
ATOM     10  N   UNL     1      -2.399   1.360  24.094  0.00  0.00    -0.185 NA
BRANCH   7   6
ATOM      3  C   UNL     1      -5.786   2.167  25.567  0.00  0.00    +0.139 A 
ATOM      4  C   UNL     1      -5.679   1.548  25.032  0.00  0.00    +0.038 A 
ATOM      5  C   UNL     1      -4.974   1.485  24.608  0.00  0.00    +0.020 A 
ATOM      6  C   UNL     1      -4.375   2.042  24.720  0.00  0.00    +0.075 A 
ATOM     36  C   UNL     1      -4.482   2.661  25.255  0.00  0.00    +0.020 A 
ATOM     37  C   UNL     1      -5.187   2.723  25.678  0.00  0.00    +0.038 A 
BRANCH   3   2
ATOM      1  C   UNL     1      -6.608   1.769  26.666  0.00  0.00    +0.252 C 
ATOM      2  O   UNL     1      -6.491   2.229  25.990  0.00  0.00    -0.471 OA
ENDBRANCH   3   2
ENDBRANCH   7   6
ENDBRANCH  11  10
ENDBRANCH  12  11
TORSDOF 8
ENDMDL
