MODEL 1
REMARK VINA RESULT:      -8.9      0.000      0.000
REMARK  Name = 
REMARK  6 active torsions:
REMARK  status: ('A' for Active; 'I' for Inactive)
REMARK    1  A    between atoms: C_2  and  C_5
REMARK    2  A    between atoms: C_5  and  N_6
REMARK    3  A    between atoms: N_6  and  C_7
REMARK    4  A    between atoms: C_7  and  C_8
REMARK    5  A    between atoms: C_8  and  C_9
REMARK    6  A    between atoms: C_12  and  C_14
REMARK                            x       y       z     vdW  Elec       q    Type
REMARK                         _______ _______ _______ _____ _____    ______ ____
ROOT
ATOM      7  C   UNL     1      -4.658   1.679  24.766  0.00  0.00    +0.119 C 
ATOM     18  C   UNL     1      -5.291   1.282  25.115  0.00  0.00    +0.161 C 
ATOM     19  O   UNL     1      -5.768   1.947  25.005  0.00  0.00    -0.351 OA
ATOM     20  C   UNL     1      -5.134   2.343  24.656  0.00  0.00    +0.161 C 
ENDROOT
BRANCH   7   6
ATOM      6  N   UNL     1      -4.181   1.014  24.875  0.00  0.00    -0.215 NA
BRANCH   6   5
ATOM      5  C   UNL     1      -4.469   0.264  24.693  0.00  0.00    +0.089 C 
BRANCH   5   2
ATOM      1  C   UNL     1      -3.460  -1.041  24.728  0.00  0.00    +0.001 C 
ATOM      2  C   UNL     1      -3.964  -0.388  24.711  0.00  0.00    +0.016 C 
ATOM      3  C   UNL     1      -3.977  -0.376  25.536  0.00  0.00    +0.001 C 
ATOM      4  C   UNL     1      -3.951  -0.401  23.886  0.00  0.00    +0.001 C 
ENDBRANCH   5   2
ENDBRANCH   6   5
ENDBRANCH   7   6
BRANCH   7   8
ATOM      8  C   UNL     1      -4.024   2.075  24.416  0.00  0.00    +0.070 C 
BRANCH   8   9
ATOM      9  C   UNL     1      -3.627   2.666  24.834  0.00  0.00    +0.102 A 
ATOM     10  N   UNL     1      -3.897   3.042  25.517  0.00  0.00    -0.082 NA
ATOM     11  O   UNL     1      -3.327   3.593  25.747  0.00  0.00    -0.356 OA
ATOM     12  C   UNL     1      -2.706   3.557  25.206  0.00  0.00    +0.181 A 
ATOM     13  C   UNL     1      -2.891   2.984  24.642  0.00  0.00    +0.056 A 
BRANCH  12  14
ATOM     14  C   UNL     1      -2.019   4.015  25.226  0.00  0.00    +0.180 C 
ATOM     15  C   UNL     1      -1.333   4.472  25.245  0.00  0.00    +0.041 C 
ATOM     16  C   UNL     1      -1.656   3.449  25.704  0.00  0.00    +0.041 C 
ATOM     17  O   UNL     1      -2.383   4.580  24.747  0.00  0.00    -0.218 OA
ENDBRANCH  12  14
ENDBRANCH   8   9
ENDBRANCH   7   8
TORSDOF 6
ENDMDL
MODEL 2
REMARK VINA RESULT:      -8.9      1.261      3.826
REMARK  Name = 
REMARK  6 active torsions:
REMARK  status: ('A' for Active; 'I' for Inactive)
REMARK    1  A    between atoms: C_2  and  C_5
REMARK    2  A    between atoms: C_5  and  N_6
REMARK    3  A    between atoms: N_6  and  C_7
REMARK    4  A    between atoms: C_7  and  C_8
REMARK    5  A    between atoms: C_8  and  C_9
REMARK    6  A    between atoms: C_12  and  C_14
REMARK                            x       y       z     vdW  Elec       q    Type
REMARK                         _______ _______ _______ _____ _____    ______ ____
ROOT
ATOM      7  C   UNL     1      -4.705   2.360  24.991  0.00  0.00    +0.119 C 
ATOM     18  C   UNL     1      -5.092   2.929  25.446  0.00  0.00    +0.161 C 
ATOM     19  O   UNL     1      -5.821   2.622  25.212  0.00  0.00    -0.351 OA
ATOM     20  C   UNL     1      -5.434   2.052  24.758  0.00  0.00    +0.161 C 
ENDROOT
BRANCH   7   6
ATOM      6  N   UNL     1      -3.976   2.667  25.225  0.00  0.00    -0.215 NA
BRANCH   6   5
ATOM      5  C   UNL     1      -3.825   3.474  25.152  0.00  0.00    +0.089 C 
BRANCH   5   2
ATOM      1  C   UNL     1      -2.334   4.073  25.525  0.00  0.00    +0.001 C 
ATOM      2  C   UNL     1      -3.080   3.774  25.338  0.00  0.00    +0.016 C 
ATOM      3  C   UNL     1      -2.861   3.725  24.544  0.00  0.00    +0.001 C 
ATOM      4  C   UNL     1      -3.298   3.822  26.133  0.00  0.00    +0.001 C 
ENDBRANCH   5   2
ENDBRANCH   6   5
ENDBRANCH   7   6
BRANCH   7   8
ATOM      8  C   UNL     1      -4.318   1.790  24.537  0.00  0.00    +0.070 C 
BRANCH   8   9
ATOM      9  C   UNL     1      -4.308   1.003  24.785  0.00  0.00    +0.102 A 
ATOM     10  N   UNL     1      -4.594   0.716  25.503  0.00  0.00    -0.082 NA
ATOM     11  O   UNL     1      -4.472  -0.100  25.520  0.00  0.00    -0.356 OA
ATOM     12  C   UNL     1      -4.110  -0.317  24.811  0.00  0.00    +0.181 A 
ATOM     13  C   UNL     1      -4.009   0.364  24.357  0.00  0.00    +0.056 A 
BRANCH  12  14
ATOM     14  C   UNL     1      -3.888  -1.082  24.595  0.00  0.00    +0.180 C 
ATOM     15  C   UNL     1      -3.667  -1.847  24.378  0.00  0.00    +0.041 C 
ATOM     16  C   UNL     1      -3.369  -1.113  25.235  0.00  0.00    +0.041 C 
ATOM     17  O   UNL     1      -4.408  -1.051  23.954  0.00  0.00    -0.218 OA
ENDBRANCH  12  14
ENDBRANCH   8   9
ENDBRANCH   7   8
TORSDOF 6
ENDMDL
MODEL 3
REMARK VINA RESULT:      -8.7      1.817      4.175
REMARK  Name = 
REMARK  6 active torsions:
REMARK  status: ('A' for Active; 'I' for Inactive)
REMARK    1  A    between atoms: C_2  and  C_5
REMARK    2  A    between atoms: C_5  and  N_6
REMARK    3  A    between atoms: N_6  and  C_7
REMARK    4  A    between atoms: C_7  and  C_8
REMARK    5  A    between atoms: C_8  and  C_9
REMARK    6  A    between atoms: C_12  and  C_14
REMARK                            x       y       z     vdW  Elec       q    Type
REMARK                         _______ _______ _______ _____ _____    ______ ____
ROOT
ATOM      7  C   UNL     1      -3.665   1.431  24.131  0.00  0.00    +0.119 C 
ATOM     18  C   UNL     1      -3.208   2.117  24.105  0.00  0.00    +0.161 C 
ATOM     19  O   UNL     1      -2.768   1.801  23.482  0.00  0.00    -0.351 OA
ATOM     20  C   UNL     1      -3.226   1.115  23.510  0.00  0.00    +0.161 C 
ENDROOT
BRANCH   7   6
ATOM      6  N   UNL     1      -4.105   1.748  24.753  0.00  0.00    -0.215 NA
BRANCH   6   5
ATOM      5  C   UNL     1      -4.528   2.447  24.646  0.00  0.00    +0.089 C 
BRANCH   5   2
ATOM      1  C   UNL     1      -5.465   3.042  25.868  0.00  0.00    +0.001 C 
ATOM      2  C   UNL     1      -4.996   2.745  25.257  0.00  0.00    +0.016 C 
ATOM      3  C   UNL     1      -4.347   3.158  25.554  0.00  0.00    +0.001 C 
ATOM      4  C   UNL     1      -5.646   2.330  24.960  0.00  0.00    +0.001 C 
ENDBRANCH   5   2
ENDBRANCH   6   5
ENDBRANCH   7   6
BRANCH   7   8
ATOM      8  C   UNL     1      -4.122   0.745  24.158  0.00  0.00    +0.070 C 
BRANCH   8   9
ATOM      9  C   UNL     1      -3.789   0.038  24.422  0.00  0.00    +0.102 A 
ATOM     10  N   UNL     1      -3.143  -0.034  24.930  0.00  0.00    -0.082 NA
ATOM     11  O   UNL     1      -2.997  -0.838  25.046  0.00  0.00    -0.356 OA
ATOM     12  C   UNL     1      -3.553  -1.263  24.609  0.00  0.00    +0.181 A 
ATOM     13  C   UNL     1      -4.042  -0.721  24.224  0.00  0.00    +0.056 A 
BRANCH  12  14
ATOM     14  C   UNL     1      -3.611  -2.085  24.566  0.00  0.00    +0.180 C 
ATOM     15  C   UNL     1      -3.668  -2.907  24.522  0.00  0.00    +0.041 C 
ATOM     16  C   UNL     1      -3.274  -2.148  25.316  0.00  0.00    +0.041 C 
ATOM     17  O   UNL     1      -3.948  -2.021  23.815  0.00  0.00    -0.218 OA
ENDBRANCH  12  14
ENDBRANCH   8   9
ENDBRANCH   7   8
TORSDOF 6
ENDMDL
MODEL 4
REMARK VINA RESULT:      -8.5      1.928      2.784
REMARK  Name = 
REMARK  6 active torsions:
REMARK  status: ('A' for Active; 'I' for Inactive)
REMARK    1  A    between atoms: C_2  and  C_5
REMARK    2  A    between atoms: C_5  and  N_6
REMARK    3  A    between atoms: N_6  and  C_7
REMARK    4  A    between atoms: C_7  and  C_8
REMARK    5  A    between atoms: C_8  and  C_9
REMARK    6  A    between atoms: C_12  and  C_14
REMARK                            x       y       z     vdW  Elec       q    Type
REMARK                         _______ _______ _______ _____ _____    ______ ____
ROOT
ATOM      7  C   UNL     1      -2.822   0.362  24.256  0.00  0.00    +0.119 C 
ATOM     18  C   UNL     1      -2.076   0.160  24.542  0.00  0.00    +0.161 C 
ATOM     19  O   UNL     1      -1.746   0.795  24.130  0.00  0.00    -0.351 OA
ATOM     20  C   UNL     1      -2.494   0.996  23.844  0.00  0.00    +0.161 C 
ENDROOT
BRANCH   7   6
ATOM      6  N   UNL     1      -3.152  -0.272  24.668  0.00  0.00    -0.215 NA
BRANCH   6   5
ATOM      5  C   UNL     1      -2.824  -1.025  24.599  0.00  0.00    +0.089 C 
BRANCH   5   2
ATOM      1  C   UNL     1      -3.580  -2.323  25.282  0.00  0.00    +0.001 C 
ATOM      2  C   UNL     1      -3.202  -1.674  24.940  0.00  0.00    +0.016 C 
ATOM      3  C   UNL     1      -3.422  -1.940  24.191  0.00  0.00    +0.001 C 
ATOM      4  C   UNL     1      -2.982  -1.408  25.690  0.00  0.00    +0.001 C 
ENDBRANCH   5   2
ENDBRANCH   6   5
ENDBRANCH   7   6
BRANCH   7   8
ATOM      8  C   UNL     1      -3.570   0.563  23.971  0.00  0.00    +0.070 C 
BRANCH   8   9
ATOM      9  C   UNL     1      -3.923   1.272  24.204  0.00  0.00    +0.102 A 
ATOM     10  N   UNL     1      -3.758   2.020  23.899  0.00  0.00    -0.082 NA
ATOM     11  O   UNL     1      -4.236   2.567  24.290  0.00  0.00    -0.356 OA
ATOM     12  C   UNL     1      -4.696   2.156  24.839  0.00  0.00    +0.181 A 
ATOM     13  C   UNL     1      -4.502   1.356  24.785  0.00  0.00    +0.056 A 
BRANCH  12  14
ATOM     14  C   UNL     1      -5.252   2.488  25.351  0.00  0.00    +0.180 C 
ATOM     15  C   UNL     1      -5.808   2.820  25.862  0.00  0.00    +0.041 C 
ATOM     16  C   UNL     1      -5.841   2.018  25.014  0.00  0.00    +0.041 C 
ATOM     17  O   UNL     1      -4.662   2.958  25.686  0.00  0.00    -0.218 OA
ENDBRANCH  12  14
ENDBRANCH   8   9
ENDBRANCH   7   8
TORSDOF 6
ENDMDL
