REMARK  Name = 
REMARK  6 active torsions:
REMARK  status: ('A' for Active; 'I' for Inactive)
REMARK    1  A    between atoms: C_2  and  C_4
REMARK    2  A    between atoms: C_2  and  C_8
REMARK    3  A    between atoms: C_4  and  C_5
REMARK    4  A    between atoms: C_8  and  C_9
REMARK    5  A    between atoms: C_16  and  C_17
REMARK    6  A    between atoms: C_19  and  C_22
REMARK                            x       y       z     vdW  Elec       q    Type
REMARK                         _______ _______ _______ _____ _____    ______ ____
ROOT
ATOM      9  C   UNL     1       2.784   0.698   0.000  0.00  0.00    +0.226 C 
ATOM     10  O   UNL     1       3.499   1.110   0.000  0.00  0.00    -0.275 OA
ATOM     11  N   UNL     1       2.070   1.110   0.000  0.00  0.00    -0.267 N 
ATOM     12  C   UNL     1       1.356   0.698   0.000  0.00  0.00    +0.141 C 
ATOM     13  C   UNL     1       0.641   1.110   0.000  0.00  0.00    +0.094 A 
ATOM     14  C   UNL     1       0.641   1.935   0.000  0.00  0.00    +0.078 A 
ATOM     15  C   UNL     1       1.356   2.348   0.000  0.00  0.00    +0.077 C 
ATOM     16  C   UNL     1       2.070   1.935   0.000  0.00  0.00    +0.161 C 
ATOM     28  N   UNL     1      -0.143   2.190   0.000  0.00  0.00    -0.227 NA
ATOM     29  C   UNL     1      -0.628   1.523   0.000  0.00  0.00    +0.198 A 
ATOM     30  N   UNL     1      -0.143   0.856   0.000  0.00  0.00    -0.225 NA
ENDROOT
BRANCH  16  17
ATOM     17  C   UNL     1       2.784   2.348   0.000  0.00  0.00    +0.255 A 
ATOM     18  N   UNL     1       2.871   3.168   0.000  0.00  0.00    -0.189 NA
ATOM     19  C   UNL     1       3.678   3.340   0.000  0.00  0.00    +0.203 A 
ATOM     20  N   UNL     1       4.090   2.626   0.000  0.00  0.00    -0.056 NA
ATOM     21  O   UNL     1       3.538   2.012   0.000  0.00  0.00    -0.335 OA
BRANCH  19  22
ATOM     22  C   UNL     1       4.013   4.094   0.000  0.00  0.00    +0.042 A 
ATOM     23  C   UNL     1       3.528   4.761   0.000  0.00  0.00    +0.024 A 
ATOM     24  C   UNL     1       3.864   5.515   0.000  0.00  0.00    +0.099 A 
ATOM     25  N   UNL     1       4.684   5.601   0.000  0.00  0.00    -0.242 NA
ATOM     26  C   UNL     1       5.169   4.934   0.000  0.00  0.00    +0.099 A 
ATOM     27  C   UNL     1       4.834   4.180   0.000  0.00  0.00    +0.024 A 
ENDBRANCH  19  22
ENDBRANCH  16  17
BRANCH   9   8
ATOM      8  C   UNL     1       2.784  -0.127   0.000  0.00  0.00    +0.086 C 
BRANCH   8   2
ATOM      1  C   UNL     1       3.912   0.175   0.000  0.00  0.00    +0.001 C 
ATOM      2  C   UNL     1       3.499  -0.540   0.000  0.00  0.00    +0.019 C 
ATOM      3  C   UNL     1       3.087  -1.254   0.000  0.00  0.00    +0.001 C 
BRANCH   2   4
ATOM      4  C   UNL     1       4.213  -0.952   0.000  0.00  0.00    +0.115 C 
BRANCH   4   5
ATOM      5  C   UNL     1       4.213  -1.777   0.000  0.00  0.00    +0.365 C 
ATOM      6  O   UNL     1       4.928  -2.190   0.000  0.00  0.00    -0.246 OA
ATOM      7  O   UNL     1       3.499  -2.190   0.000  0.00  0.00    -0.246 OA
ENDBRANCH   4   5
ENDBRANCH   2   4
ENDBRANCH   8   2
ENDBRANCH   9   8
TORSDOF 6
