REMARK  Name = 
REMARK  4 active torsions:
REMARK  status: ('A' for Active; 'I' for Inactive)
REMARK    1  A    between atoms: N_7  and  C_10
REMARK    2  A    between atoms: C_12  and  C_16
REMARK    3  A    between atoms: C_19  and  C_21
REMARK    4  A    between atoms: N_25  and  C_26
REMARK                            x       y       z     vdW  Elec       q    Type
REMARK                         _______ _______ _______ _____ _____    ______ ____
ROOT
ATOM     16  C   UNL     1       2.834  -0.549   0.000  0.00  0.00    +0.203 A 
ATOM     17  N   UNL     1       3.501  -1.034   0.000  0.00  0.00    -0.056 NA
ATOM     18  O   UNL     1       3.247  -1.818   0.000  0.00  0.00    -0.336 OA
ATOM     19  C   UNL     1       2.421  -1.818   0.000  0.00  0.00    +0.251 A 
ATOM     20  N   UNL     1       2.167  -1.034   0.000  0.00  0.00    -0.190 NA
ENDROOT
BRANCH  16  12
ATOM     10  C   UNL     1       3.548   1.514   0.000  0.00  0.00    +0.132 A 
ATOM     11  C   UNL     1       3.548   0.689   0.000  0.00  0.00    +0.037 A 
ATOM     12  C   UNL     1       2.834   0.276   0.000  0.00  0.00    +0.043 A 
ATOM     13  C   UNL     1       2.119   0.689   0.000  0.00  0.00    +0.024 A 
ATOM     14  C   UNL     1       2.119   1.514   0.000  0.00  0.00    +0.100 A 
ATOM     15  N   UNL     1       2.834   1.926   0.000  0.00  0.00    -0.229 NA
BRANCH  10   7
ATOM      1  C   UNL     1       6.406   3.989   0.000  0.00  0.00    +0.095 C 
ATOM      2  C   UNL     1       6.406   3.164   0.000  0.00  0.00    +0.226 C 
ATOM      3  O   UNL     1       7.121   2.751   0.000  0.00  0.00    -0.275 OA
ATOM      4  N   UNL     1       5.692   2.751   0.000  0.00  0.00    -0.276 N 
ATOM      5  C   UNL     1       5.692   1.926   0.000  0.00  0.00    +0.115 C 
ATOM      6  C   UNL     1       4.977   1.514   0.000  0.00  0.00    +0.114 C 
ATOM      7  N   UNL     1       4.263   1.926   0.000  0.00  0.00    -0.290 N 
ATOM      8  C   UNL     1       4.263   2.751   0.000  0.00  0.00    +0.114 C 
ATOM      9  C   UNL     1       4.977   3.164   0.000  0.00  0.00    +0.115 C 
ENDBRANCH  10   7
ENDBRANCH  16  12
BRANCH  19  21
ATOM     21  C   UNL     1       1.937  -2.486   0.000  0.00  0.00    +0.138 C 
ATOM     22  C   UNL     1       2.192  -3.270   0.000  0.00  0.00    +0.027 C 
ATOM     23  C   UNL     1       1.524  -3.755   0.000  0.00  0.00    +0.019 C 
ATOM     24  C   UNL     1       0.857  -3.270   0.000  0.00  0.00    +0.072 C 
ATOM     25  N   UNL     1       1.111  -2.486   0.000  0.00  0.00    -0.268 NA
BRANCH  25  26
ATOM     26  C   UNL     1       0.627  -1.818   0.000  0.00  0.00    +0.058 C 
ATOM     27  C   UNL     1      -0.194  -1.905   0.000  0.00  0.00    +0.016 C 
ATOM     28  C   UNL     1      -0.679  -1.237   0.000  0.00  0.00    +0.001 C 
ATOM     29  C   UNL     1      -0.343  -0.483   0.000  0.00  0.00    +0.000 C 
ATOM     30  C   UNL     1       0.477  -0.397   0.000  0.00  0.00    +0.001 C 
ATOM     31  C   UNL     1       0.962  -1.065   0.000  0.00  0.00    +0.016 C 
ENDBRANCH  25  26
ENDBRANCH  19  21
TORSDOF 4
