MODEL 1
REMARK VINA RESULT:      -9.2      0.000      0.000
REMARK  Name = 
REMARK  6 active torsions:
REMARK  status: ('A' for Active; 'I' for Inactive)
REMARK    1  A    between atoms: O_2  and  C_3
REMARK    2  A    between atoms: C_3  and  C_4
REMARK    3  A    between atoms: N_6  and  C_7
REMARK    4  A    between atoms: C_11  and  N_15
REMARK    5  A    between atoms: C_18  and  C_22
REMARK    6  A    between atoms: C_25  and  C_28
REMARK                            x       y       z     vdW  Elec       q    Type
REMARK                         _______ _______ _______ _____ _____    ______ ____
ROOT
ATOM     15  N   UNL     1       0.294   0.704  23.144  0.00  0.00    -0.200 NA
ATOM     16  C   UNL     1      -0.240   0.343  23.659  0.00  0.00    +0.237 A 
ATOM     17  N   UNL     1      -0.966   0.701  23.819  0.00  0.00    -0.212 NA
ATOM     18  C   UNL     1      -1.500   0.340  24.334  0.00  0.00    +0.086 A 
ATOM     19  C   UNL     1      -1.309  -0.381  24.688  0.00  0.00    +0.040 A 
ATOM     20  C   UNL     1      -0.583  -0.739  24.527  0.00  0.00    +0.103 A 
ATOM     21  N   UNL     1      -0.049  -0.377  24.013  0.00  0.00    -0.211 NA
ENDROOT
BRANCH  15  11
ATOM      7  C   UNL     1       3.072   0.500  22.900  0.00  0.00    +0.154 C 
ATOM      8  C   UNL     1       2.961   1.277  23.153  0.00  0.00    +0.166 C 
ATOM      9  O   UNL     1       2.151   1.401  23.245  0.00  0.00    -0.350 OA
ATOM     10  C   UNL     1       1.761   0.702  23.049  0.00  0.00    +0.166 C 
ATOM     11  C   UNL     1       1.020   0.345  22.984  0.00  0.00    +0.154 C 
ATOM     12  C   UNL     1       1.131  -0.432  22.731  0.00  0.00    +0.166 C 
ATOM     13  O   UNL     1       1.941  -0.556  22.639  0.00  0.00    -0.350 OA
ATOM     14  C   UNL     1       2.331   0.145  22.836  0.00  0.00    +0.166 C 
BRANCH   7   6
ATOM      4  C   UNL     1       4.486   0.425  23.095  0.00  0.00    +0.272 C 
ATOM      5  O   UNL     1       4.448   1.068  23.612  0.00  0.00    -0.271 OA
ATOM      6  N   UNL     1       3.798   0.141  22.740  0.00  0.00    -0.200 NA
BRANCH   4   3
ATOM      3  C   UNL     1       5.211   0.067  22.935  0.00  0.00    +0.229 C 
BRANCH   3   2
ATOM      1  C   UNL     1       6.451  -0.467  23.404  0.00  0.00    +0.175 C 
ATOM      2  O   UNL     1       5.770  -0.022  23.536  0.00  0.00    -0.342 OA
ENDBRANCH   3   2
ENDBRANCH   4   3
ENDBRANCH   7   6
ENDBRANCH  15  11
BRANCH  18  22
ATOM     22  C   UNL     1      -2.225   0.698  24.494  0.00  0.00    +0.018 A 
ATOM     23  C   UNL     1      -2.919   0.388  24.170  0.00  0.00    +0.001 A 
ATOM     24  C   UNL     1      -3.644   0.746  24.330  0.00  0.00    +0.000 A 
ATOM     25  C   UNL     1      -3.677   1.413  24.814  0.00  0.00    +0.000 A 
ATOM     26  C   UNL     1      -2.984   1.722  25.138  0.00  0.00    +0.000 A 
ATOM     27  C   UNL     1      -2.258   1.364  24.978  0.00  0.00    +0.001 A 
BRANCH  25  28
ATOM     28  C   UNL     1      -4.402   1.771  24.975  0.00  0.00    +0.000 A 
ATOM     29  C   UNL     1      -5.036   1.317  25.243  0.00  0.00    +0.000 A 
ATOM     30  C   UNL     1      -5.762   1.675  25.403  0.00  0.00    +0.000 A 
ATOM     31  C   UNL     1      -5.853   2.488  25.296  0.00  0.00    +0.000 A 
ATOM     32  C   UNL     1      -5.219   2.943  25.029  0.00  0.00    +0.000 A 
ATOM     33  C   UNL     1      -4.494   2.584  24.868  0.00  0.00    +0.000 A 
ENDBRANCH  25  28
ENDBRANCH  18  22
TORSDOF 6
ENDMDL
MODEL 2
REMARK VINA RESULT:      -6.4      2.782      7.361
REMARK  Name = 
REMARK  6 active torsions:
REMARK  status: ('A' for Active; 'I' for Inactive)
REMARK    1  A    between atoms: O_2  and  C_3
REMARK    2  A    between atoms: C_3  and  C_4
REMARK    3  A    between atoms: N_6  and  C_7
REMARK    4  A    between atoms: C_11  and  N_15
REMARK    5  A    between atoms: C_18  and  C_22
REMARK    6  A    between atoms: C_25  and  C_28
REMARK                            x       y       z     vdW  Elec       q    Type
REMARK                         _______ _______ _______ _____ _____    ______ ____
ROOT
ATOM     15  N   UNL     1      -1.711   1.772  23.454  0.00  0.00    -0.200 NA
ATOM     16  C   UNL     1      -1.244   1.129  23.675  0.00  0.00    +0.237 A 
ATOM     17  N   UNL     1      -0.442   1.115  23.481  0.00  0.00    -0.212 NA
ATOM     18  C   UNL     1       0.025   0.472  23.702  0.00  0.00    +0.086 A 
ATOM     19  C   UNL     1      -0.310  -0.158  24.116  0.00  0.00    +0.040 A 
ATOM     20  C   UNL     1      -1.112  -0.144  24.310  0.00  0.00    +0.103 A 
ATOM     21  N   UNL     1      -1.578   0.499  24.089  0.00  0.00    -0.211 NA
ENDROOT
BRANCH  15  11
ATOM      7  C   UNL     1      -4.081   2.762  24.559  0.00  0.00    +0.154 C 
ATOM      8  C   UNL     1      -3.526   3.340  24.753  0.00  0.00    +0.166 C 
ATOM      9  O   UNL     1      -2.796   3.104  24.451  0.00  0.00    -0.350 OA
ATOM     10  C   UNL     1      -2.900   2.380  24.070  0.00  0.00    +0.166 C 
ATOM     11  C   UNL     1      -2.513   1.785  23.648  0.00  0.00    +0.154 C 
ATOM     12  C   UNL     1      -3.068   1.207  23.454  0.00  0.00    +0.166 C 
ATOM     13  O   UNL     1      -3.798   1.444  23.756  0.00  0.00    -0.350 OA
ATOM     14  C   UNL     1      -3.694   2.169  24.137  0.00  0.00    +0.166 C 
BRANCH   7   6
ATOM      4  C   UNL     1      -5.120   2.975  25.518  0.00  0.00    +0.272 C 
ATOM      5  O   UNL     1      -4.554   3.161  26.089  0.00  0.00    -0.271 OA
ATOM      6  N   UNL     1      -4.884   2.775  24.753  0.00  0.00    -0.200 NA
BRANCH   4   3
ATOM      3  C   UNL     1      -5.921   2.988  25.712  0.00  0.00    +0.229 C 
BRANCH   3   2
ATOM      1  C   UNL     1      -6.671   2.019  26.447  0.00  0.00    +0.175 C 
ATOM      2  O   UNL     1      -6.177   2.678  26.433  0.00  0.00    -0.342 OA
ENDBRANCH   3   2
ENDBRANCH   4   3
ENDBRANCH   7   6
ENDBRANCH  15  11
BRANCH  18  22
ATOM     22  C   UNL     1       0.826   0.459  23.508  0.00  0.00    +0.018 A 
ATOM     23  C   UNL     1       1.331   1.046  23.797  0.00  0.00    +0.001 A 
ATOM     24  C   UNL     1       2.132   1.033  23.603  0.00  0.00    +0.000 A 
ATOM     25  C   UNL     1       2.431   0.433  23.121  0.00  0.00    +0.000 A 
ATOM     26  C   UNL     1       1.927  -0.153  22.833  0.00  0.00    +0.000 A 
ATOM     27  C   UNL     1       1.125  -0.140  23.027  0.00  0.00    +0.001 A 
BRANCH  25  28
ATOM     28  C   UNL     1       3.232   0.420  22.928  0.00  0.00    +0.000 A 
ATOM     29  C   UNL     1       3.514   0.884  22.307  0.00  0.00    +0.000 A 
ATOM     30  C   UNL     1       4.316   0.871  22.113  0.00  0.00    +0.000 A 
ATOM     31  C   UNL     1       4.835   0.393  22.540  0.00  0.00    +0.000 A 
ATOM     32  C   UNL     1       4.553  -0.072  23.161  0.00  0.00    +0.000 A 
ATOM     33  C   UNL     1       3.752  -0.058  23.354  0.00  0.00    +0.000 A 
ENDBRANCH  25  28
ENDBRANCH  18  22
TORSDOF 6
ENDMDL
