MODEL 1
REMARK VINA RESULT:      -7.8      0.000      0.000
REMARK  Name = 
REMARK  8 active torsions:
REMARK  status: ('A' for Active; 'I' for Inactive)
REMARK    1  A    between atoms: O_2  and  C_3
REMARK    2  A    between atoms: C_3  and  C_5
REMARK    3  A    between atoms: C_10  and  C_11
REMARK    4  A    between atoms: C_11  and  C_12
REMARK    5  A    between atoms: C_14  and  C_15
REMARK    6  A    between atoms: C_18  and  C_19
REMARK    7  A    between atoms: C_19  and  N_20
REMARK    8  A    between atoms: N_20  and  C_21
REMARK                            x       y       z     vdW  Elec       q    Type
REMARK                         _______ _______ _______ _____ _____    ______ ____
ROOT
ATOM     12  C   UNL     1      -1.226   0.107  24.233  0.00  0.00    +0.026 C 
ATOM     13  C   UNL     1      -1.340   0.680  23.651  0.00  0.00    +0.005 C 
ATOM     14  C   UNL     1      -1.903   1.273  23.762  0.00  0.00    +0.006 C 
ATOM     18  C   UNL     1      -2.351   1.294  24.454  0.00  0.00    +0.039 C 
ATOM     28  C   UNL     1      -2.236   0.721  25.036  0.00  0.00    -0.033 C 
ATOM     29  C   UNL     1      -1.674   0.127  24.927  0.00  0.00    -0.048 C 
ATOM     30  C   UNL     1      -1.559  -0.446  25.509  0.00  0.00    +0.026 C 
ENDROOT
BRANCH  14  15
ATOM     15  C   UNL     1      -2.018   1.846  23.180  0.00  0.00    +0.000 C 
ATOM     16  C   UNL     1      -1.609   2.562  23.218  0.00  0.00    +0.000 C 
ATOM     17  C   UNL     1      -2.542   1.704  22.558  0.00  0.00    +0.000 C 
ENDBRANCH  14  15
BRANCH  12  11
ATOM     11  C   UNL     1      -0.663  -0.487  24.124  0.00  0.00    +0.070 C 
BRANCH  11  10
ATOM      5  C   UNL     1       2.512   0.419  22.829  0.00  0.00    +0.077 A 
ATOM      6  C   UNL     1       2.039   0.452  23.503  0.00  0.00    +0.027 A 
ATOM      7  C   UNL     1       1.282   0.125  23.493  0.00  0.00    +0.100 A 
ATOM      8  C   UNL     1       0.998  -0.236  22.808  0.00  0.00    +0.100 A 
ATOM      9  N   UNL     1       0.235  -0.509  22.960  0.00  0.00    -0.229 NA
ATOM     10  C   UNL     1       0.047  -0.317  23.740  0.00  0.00    +0.139 A 
ATOM     31  N   UNL     1       0.694   0.075  24.069  0.00  0.00    -0.229 NA
ATOM     32  C   UNL     1       1.472  -0.269  22.132  0.00  0.00    +0.021 A 
ATOM     33  C   UNL     1       2.228   0.058  22.143  0.00  0.00    +0.008 A 
BRANCH   5   3
ATOM      3  C   UNL     1       3.269   0.746  22.839  0.00  0.00    +0.341 C 
ATOM      4  O   UNL     1       3.364   1.565  22.869  0.00  0.00    -0.245 OA
BRANCH   3   2
ATOM      1  C   UNL     1       4.677   0.560  22.997  0.00  0.00    +0.256 C 
ATOM      2  O   UNL     1       3.932   0.255  22.819  0.00  0.00    -0.441 OA
ENDBRANCH   3   2
ENDBRANCH   5   3
ENDBRANCH  11  10
ENDBRANCH  12  11
BRANCH  18  19
ATOM     19  C   UNL     1      -2.913   1.887  24.565  0.00  0.00    +0.093 C 
BRANCH  19  20
ATOM     20  N   UNL     1      -3.386   1.885  25.241  0.00  0.00    -0.219 NA
BRANCH  20  21
ATOM     21  C   UNL     1      -3.997   2.433  25.319  0.00  0.00    +0.076 C 
ATOM     22  C   UNL     1      -4.774   2.211  25.154  0.00  0.00    +0.035 C 
ATOM     23  C   UNL     1      -5.385   2.761  25.233  0.00  0.00    +0.074 C 
ATOM     24  N   UNL     1      -5.219   3.531  25.476  0.00  0.00    -0.271 NA
ATOM     25  C   UNL     1      -5.830   4.080  25.555  0.00  0.00    +0.090 C 
ATOM     26  C   UNL     1      -4.442   3.753  25.641  0.00  0.00    +0.074 C 
ATOM     27  C   UNL     1      -3.831   3.205  25.563  0.00  0.00    +0.035 C 
ENDBRANCH  20  21
ENDBRANCH  19  20
ENDBRANCH  18  19
TORSDOF 8
ENDMDL
MODEL 2
REMARK VINA RESULT:      -7.5      2.654      6.370
REMARK  Name = 
REMARK  8 active torsions:
REMARK  status: ('A' for Active; 'I' for Inactive)
REMARK    1  A    between atoms: O_2  and  C_3
REMARK    2  A    between atoms: C_3  and  C_5
REMARK    3  A    between atoms: C_10  and  C_11
REMARK    4  A    between atoms: C_11  and  C_12
REMARK    5  A    between atoms: C_14  and  C_15
REMARK    6  A    between atoms: C_18  and  C_19
REMARK    7  A    between atoms: C_19  and  N_20
REMARK    8  A    between atoms: N_20  and  C_21
REMARK                            x       y       z     vdW  Elec       q    Type
REMARK                         _______ _______ _______ _____ _____    ______ ____
ROOT
ATOM     12  C   UNL     1      -1.466  -0.330  24.820  0.00  0.00    +0.026 C 
ATOM     13  C   UNL     1      -1.282   0.469  24.727  0.00  0.00    +0.005 C 
ATOM     14  C   UNL     1      -0.604   0.691  24.313  0.00  0.00    +0.006 C 
ATOM     18  C   UNL     1      -0.109   0.115  23.991  0.00  0.00    +0.039 C 
ATOM     28  C   UNL     1      -0.293  -0.684  24.084  0.00  0.00    -0.033 C 
ATOM     29  C   UNL     1      -0.970  -0.907  24.498  0.00  0.00    -0.048 C 
ATOM     30  C   UNL     1      -1.154  -1.706  24.591  0.00  0.00    +0.026 C 
ENDROOT
BRANCH  14  15
ATOM     15  C   UNL     1      -0.420   1.490  24.220  0.00  0.00    +0.000 C 
ATOM     16  C   UNL     1       0.035   1.878  24.788  0.00  0.00    +0.000 C 
ATOM     17  C   UNL     1      -0.693   1.902  23.558  0.00  0.00    +0.000 C 
ENDBRANCH  14  15
BRANCH  12  11
ATOM     11  C   UNL     1      -2.143  -0.553  25.233  0.00  0.00    +0.070 C 
BRANCH  11  10
ATOM      5  C   UNL     1      -5.040   1.489  25.079  0.00  0.00    +0.077 A 
ATOM      6  C   UNL     1      -4.320   1.391  25.468  0.00  0.00    +0.027 A 
ATOM      7  C   UNL     1      -3.820   0.768  25.263  0.00  0.00    +0.100 A 
ATOM      8  C   UNL     1      -4.042   0.241  24.667  0.00  0.00    +0.100 A 
ATOM      9  N   UNL     1      -3.441  -0.317  24.584  0.00  0.00    -0.229 NA
ATOM     10  C   UNL     1      -2.848  -0.136  25.127  0.00  0.00    +0.139 A 
ATOM     31  N   UNL     1      -3.083   0.534  25.547  0.00  0.00    -0.229 NA
ATOM     32  C   UNL     1      -4.763   0.339  24.277  0.00  0.00    +0.021 A 
ATOM     33  C   UNL     1      -5.261   0.963  24.483  0.00  0.00    +0.008 A 
BRANCH   5   3
ATOM      3  C   UNL     1      -5.539   2.112  25.285  0.00  0.00    +0.341 C 
ATOM      4  O   UNL     1      -6.310   1.958  25.534  0.00  0.00    -0.245 OA
BRANCH   3   2
ATOM      1  C   UNL     1      -5.712   3.501  25.572  0.00  0.00    +0.256 C 
ATOM      2  O   UNL     1      -5.268   2.890  25.242  0.00  0.00    -0.441 OA
ENDBRANCH   3   2
ENDBRANCH   5   3
ENDBRANCH  11  10
ENDBRANCH  12  11
BRANCH  18  19
ATOM     19  C   UNL     1       0.569   0.336  23.577  0.00  0.00    +0.093 C 
BRANCH  19  20
ATOM     20  N   UNL     1       1.039  -0.239  23.219  0.00  0.00    -0.219 NA
BRANCH  20  21
ATOM     21  C   UNL     1       1.769  -0.033  22.894  0.00  0.00    +0.076 C 
ATOM     22  C   UNL     1       2.356   0.294  23.371  0.00  0.00    +0.035 C 
ATOM     23  C   UNL     1       3.086   0.500  23.045  0.00  0.00    +0.074 C 
ATOM     24  N   UNL     1       3.227   0.380  22.242  0.00  0.00    -0.271 NA
ATOM     25  C   UNL     1       3.957   0.586  21.915  0.00  0.00    +0.090 C 
ATOM     26  C   UNL     1       2.640   0.053  21.764  0.00  0.00    +0.074 C 
ATOM     27  C   UNL     1       1.910  -0.154  22.089  0.00  0.00    +0.035 C 
ENDBRANCH  20  21
ENDBRANCH  19  20
ENDBRANCH  18  19
TORSDOF 8
ENDMDL
MODEL 3
REMARK VINA RESULT:      -7.4      3.695      4.814
REMARK  Name = 
REMARK  8 active torsions:
REMARK  status: ('A' for Active; 'I' for Inactive)
REMARK    1  A    between atoms: O_2  and  C_3
REMARK    2  A    between atoms: C_3  and  C_5
REMARK    3  A    between atoms: C_10  and  C_11
REMARK    4  A    between atoms: C_11  and  C_12
REMARK    5  A    between atoms: C_14  and  C_15
REMARK    6  A    between atoms: C_18  and  C_19
REMARK    7  A    between atoms: C_19  and  N_20
REMARK    8  A    between atoms: N_20  and  C_21
REMARK                            x       y       z     vdW  Elec       q    Type
REMARK                         _______ _______ _______ _____ _____    ______ ____
ROOT
ATOM     12  C   UNL     1      -4.641   1.593  24.747  0.00  0.00    +0.026 C 
ATOM     13  C   UNL     1      -4.222   1.727  24.049  0.00  0.00    +0.005 C 
ATOM     14  C   UNL     1      -3.769   2.411  23.965  0.00  0.00    +0.006 C 
ATOM     18  C   UNL     1      -3.735   2.961  24.578  0.00  0.00    +0.039 C 
ATOM     28  C   UNL     1      -4.154   2.828  25.276  0.00  0.00    -0.033 C 
ATOM     29  C   UNL     1      -4.607   2.144  25.361  0.00  0.00    -0.048 C 
ATOM     30  C   UNL     1      -5.026   2.010  26.059  0.00  0.00    +0.026 C 
ENDROOT
BRANCH  14  15
ATOM     15  C   UNL     1      -3.350   2.545  23.267  0.00  0.00    +0.000 C 
ATOM     16  C   UNL     1      -3.653   3.057  22.695  0.00  0.00    +0.000 C 
ATOM     17  C   UNL     1      -2.627   2.167  23.140  0.00  0.00    +0.000 C 
ENDBRANCH  14  15
BRANCH  12  11
ATOM     11  C   UNL     1      -5.094   0.909  24.832  0.00  0.00    +0.070 C 
BRANCH  11  10
ATOM      5  C   UNL     1      -3.375  -2.185  24.609  0.00  0.00    +0.077 A 
ATOM      6  C   UNL     1      -3.411  -1.478  25.030  0.00  0.00    +0.027 A 
ATOM      7  C   UNL     1      -3.967  -0.903  24.827  0.00  0.00    +0.100 A 
ATOM      8  C   UNL     1      -4.486  -1.037  24.200  0.00  0.00    +0.100 A 
ATOM      9  N   UNL     1      -4.972  -0.374  24.126  0.00  0.00    -0.229 NA
ATOM     10  C   UNL     1      -4.753   0.169  24.706  0.00  0.00    +0.139 A 
ATOM     31  N   UNL     1      -4.131  -0.159  25.139  0.00  0.00    -0.229 NA
ATOM     32  C   UNL     1      -4.451  -1.745  23.777  0.00  0.00    +0.021 A 
ATOM     33  C   UNL     1      -3.895  -2.319  23.982  0.00  0.00    +0.008 A 
BRANCH   5   3
ATOM      3  C   UNL     1      -2.819  -2.759  24.813  0.00  0.00    +0.341 C 
ATOM      4  O   UNL     1      -3.035  -3.386  25.304  0.00  0.00    -0.245 OA
BRANCH   3   2
ATOM      1  C   UNL     1      -1.424  -3.034  24.957  0.00  0.00    +0.256 C 
ATOM      2  O   UNL     1      -2.047  -2.708  24.526  0.00  0.00    -0.441 OA
ENDBRANCH   3   2
ENDBRANCH   5   3
ENDBRANCH  11  10
ENDBRANCH  12  11
BRANCH  18  19
ATOM     19  C   UNL     1      -3.282   3.646  24.494  0.00  0.00    +0.093 C 
BRANCH  19  20
ATOM     20  N   UNL     1      -2.968   4.017  25.161  0.00  0.00    -0.219 NA
BRANCH  20  21
ATOM     21  C   UNL     1      -2.278   4.464  25.099  0.00  0.00    +0.076 C 
ATOM     22  C   UNL     1      -1.543   4.109  25.221  0.00  0.00    +0.035 C 
ATOM     23  C   UNL     1      -0.854   4.558  25.159  0.00  0.00    +0.074 C 
ATOM     24  N   UNL     1      -0.898   5.360  24.974  0.00  0.00    -0.271 NA
ATOM     25  C   UNL     1      -0.208   5.809  24.912  0.00  0.00    +0.090 C 
ATOM     26  C   UNL     1      -1.633   5.715  24.852  0.00  0.00    +0.074 C 
ATOM     27  C   UNL     1      -2.323   5.268  24.914  0.00  0.00    +0.035 C 
ENDBRANCH  20  21
ENDBRANCH  19  20
ENDBRANCH  18  19
TORSDOF 8
ENDMDL
MODEL 4
REMARK VINA RESULT:      -7.3      3.346      5.464
REMARK  Name = 
REMARK  8 active torsions:
REMARK  status: ('A' for Active; 'I' for Inactive)
REMARK    1  A    between atoms: O_2  and  C_3
REMARK    2  A    between atoms: C_3  and  C_5
REMARK    3  A    between atoms: C_10  and  C_11
REMARK    4  A    between atoms: C_11  and  C_12
REMARK    5  A    between atoms: C_14  and  C_15
REMARK    6  A    between atoms: C_18  and  C_19
REMARK    7  A    between atoms: C_19  and  N_20
REMARK    8  A    between atoms: N_20  and  C_21
REMARK                            x       y       z     vdW  Elec       q    Type
REMARK                         _______ _______ _______ _____ _____    ______ ____
ROOT
ATOM     12  C   UNL     1      -4.529   1.986  24.641  0.00  0.00    +0.026 C 
ATOM     13  C   UNL     1      -3.859   1.794  24.199  0.00  0.00    +0.005 C 
ATOM     14  C   UNL     1      -3.698   1.005  24.018  0.00  0.00    +0.006 C 
ATOM     18  C   UNL     1      -4.205   0.410  24.277  0.00  0.00    +0.039 C 
ATOM     28  C   UNL     1      -4.875   0.602  24.719  0.00  0.00    -0.033 C 
ATOM     29  C   UNL     1      -5.037   1.389  24.901  0.00  0.00    -0.048 C 
ATOM     30  C   UNL     1      -5.707   1.582  25.343  0.00  0.00    +0.026 C 
ENDROOT
BRANCH  14  15
ATOM     15  C   UNL     1      -3.028   0.813  23.576  0.00  0.00    +0.000 C 
ATOM     16  C   UNL     1      -3.069   0.787  22.753  0.00  0.00    +0.000 C 
ATOM     17  C   UNL     1      -2.315   0.647  23.959  0.00  0.00    +0.000 C 
ENDBRANCH  14  15
BRANCH  12  11
ATOM     11  C   UNL     1      -4.692   2.774  24.823  0.00  0.00    +0.070 C 
BRANCH  11  10
ATOM      5  C   UNL     1      -1.970   5.000  25.288  0.00  0.00    +0.077 A 
ATOM      6  C   UNL     1      -2.401   4.594  24.715  0.00  0.00    +0.027 A 
ATOM      7  C   UNL     1      -3.033   4.112  24.938  0.00  0.00    +0.100 A 
ATOM      8  C   UNL     1      -3.233   4.037  25.735  0.00  0.00    +0.100 A 
ATOM      9  N   UNL     1      -3.879   3.527  25.789  0.00  0.00    -0.229 NA
ATOM     10  C   UNL     1      -4.078   3.286  25.025  0.00  0.00    +0.139 A 
ATOM     31  N   UNL     1      -3.555   3.648  24.500  0.00  0.00    -0.229 NA
ATOM     32  C   UNL     1      -2.801   4.444  26.309  0.00  0.00    +0.021 A 
ATOM     33  C   UNL     1      -2.170   4.925  26.085  0.00  0.00    +0.008 A 
BRANCH   5   3
ATOM      3  C   UNL     1      -1.338   5.481  25.066  0.00  0.00    +0.341 C 
ATOM      4  O   UNL     1      -1.451   6.293  24.973  0.00  0.00    -0.245 OA
BRANCH   3   2
ATOM      1  C   UNL     1      -0.097   5.468  24.358  0.00  0.00    +0.256 C 
ATOM      2  O   UNL     1      -0.593   5.151  24.935  0.00  0.00    -0.441 OA
ENDBRANCH   3   2
ENDBRANCH   5   3
ENDBRANCH  11  10
ENDBRANCH  12  11
BRANCH  18  19
ATOM     19  C   UNL     1      -4.043  -0.379  24.096  0.00  0.00    +0.093 C 
BRANCH  19  20
ATOM     20  N   UNL     1      -4.397  -0.983  24.532  0.00  0.00    -0.219 NA
BRANCH  20  21
ATOM     21  C   UNL     1      -4.125  -1.758  24.461  0.00  0.00    +0.076 C 
ATOM     22  C   UNL     1      -4.338  -2.213  23.807  0.00  0.00    +0.035 C 
ATOM     23  C   UNL     1      -4.065  -2.988  23.737  0.00  0.00    +0.074 C 
ATOM     24  N   UNL     1      -3.579  -3.309  24.320  0.00  0.00    -0.271 NA
ATOM     25  C   UNL     1      -3.305  -4.085  24.251  0.00  0.00    +0.090 C 
ATOM     26  C   UNL     1      -3.365  -2.854  24.975  0.00  0.00    +0.074 C 
ATOM     27  C   UNL     1      -3.637  -2.079  25.046  0.00  0.00    +0.035 C 
ENDBRANCH  20  21
ENDBRANCH  19  20
ENDBRANCH  18  19
TORSDOF 8
ENDMDL
MODEL 5
REMARK VINA RESULT:      -6.3      2.848      6.670
REMARK  Name = 
REMARK  8 active torsions:
REMARK  status: ('A' for Active; 'I' for Inactive)
REMARK    1  A    between atoms: O_2  and  C_3
REMARK    2  A    between atoms: C_3  and  C_5
REMARK    3  A    between atoms: C_10  and  C_11
REMARK    4  A    between atoms: C_11  and  C_12
REMARK    5  A    between atoms: C_14  and  C_15
REMARK    6  A    between atoms: C_18  and  C_19
REMARK    7  A    between atoms: C_19  and  N_20
REMARK    8  A    between atoms: N_20  and  C_21
REMARK                            x       y       z     vdW  Elec       q    Type
REMARK                         _______ _______ _______ _____ _____    ______ ____
ROOT
ATOM     12  C   UNL     1      -1.005   2.892  25.080  0.00  0.00    +0.026 C 
ATOM     13  C   UNL     1      -1.177   2.094  25.198  0.00  0.00    +0.005 C 
ATOM     14  C   UNL     1      -0.693   1.515  24.864  0.00  0.00    +0.006 C 
ATOM     18  C   UNL     1      -0.038   1.734  24.413  0.00  0.00    +0.039 C 
ATOM     28  C   UNL     1       0.134   2.532  24.296  0.00  0.00    -0.033 C 
ATOM     29  C   UNL     1      -0.350   3.112  24.629  0.00  0.00    -0.048 C 
ATOM     30  C   UNL     1      -0.178   3.910  24.511  0.00  0.00    +0.026 C 
ENDROOT
BRANCH  14  15
ATOM     15  C   UNL     1      -0.864   0.717  24.981  0.00  0.00    +0.000 C 
ATOM     16  C   UNL     1      -1.314   0.305  24.426  0.00  0.00    +0.000 C 
ATOM     17  C   UNL     1      -0.586   0.329  25.655  0.00  0.00    +0.000 C 
ENDBRANCH  14  15
BRANCH  12  11
ATOM     11  C   UNL     1      -1.488   3.472  25.414  0.00  0.00    +0.070 C 
BRANCH  11  10
ATOM      5  C   UNL     1      -5.021   3.152  25.409  0.00  0.00    +0.077 A 
ATOM      6  C   UNL     1      -4.348   3.048  25.874  0.00  0.00    +0.027 A 
ATOM      7  C   UNL     1      -3.603   3.225  25.568  0.00  0.00    +0.100 A 
ATOM      8  C   UNL     1      -3.531   3.506  24.796  0.00  0.00    +0.100 A 
ATOM      9  N   UNL     1      -2.730   3.633  24.644  0.00  0.00    -0.229 NA
ATOM     10  C   UNL     1      -2.307   3.430  25.322  0.00  0.00    +0.139 A 
ATOM     31  N   UNL     1      -2.847   3.178  25.892  0.00  0.00    -0.229 NA
ATOM     32  C   UNL     1      -4.204   3.611  24.330  0.00  0.00    +0.021 A 
ATOM     33  C   UNL     1      -4.949   3.434  24.637  0.00  0.00    +0.008 A 
BRANCH   5   3
ATOM      3  C   UNL     1      -5.765   2.975  25.715  0.00  0.00    +0.341 C 
ATOM      4  O   UNL     1      -6.239   3.577  26.021  0.00  0.00    -0.245 OA
BRANCH   3   2
ATOM      1  C   UNL     1      -6.583   1.950  26.284  0.00  0.00    +0.256 C 
ATOM      2  O   UNL     1      -6.037   2.196  25.717  0.00  0.00    -0.441 OA
ENDBRANCH   3   2
ENDBRANCH   5   3
ENDBRANCH  11  10
ENDBRANCH  12  11
BRANCH  18  19
ATOM     19  C   UNL     1       0.446   1.155  24.079  0.00  0.00    +0.093 C 
BRANCH  19  20
ATOM     20  N   UNL     1       0.824   1.299  23.360  0.00  0.00    -0.219 NA
BRANCH  20  21
ATOM     21  C   UNL     1       1.496   0.867  23.153  0.00  0.00    +0.076 C 
ATOM     22  C   UNL     1       1.419   0.154  22.746  0.00  0.00    +0.035 C 
ATOM     23  C   UNL     1       2.092  -0.277  22.539  0.00  0.00    +0.074 C 
ATOM     24  N   UNL     1       2.841   0.005  22.740  0.00  0.00    -0.271 NA
ATOM     25  C   UNL     1       3.514  -0.426  22.533  0.00  0.00    +0.090 C 
ATOM     26  C   UNL     1       2.917   0.719  23.147  0.00  0.00    +0.074 C 
ATOM     27  C   UNL     1       2.245   1.150  23.354  0.00  0.00    +0.035 C 
ENDBRANCH  20  21
ENDBRANCH  19  20
ENDBRANCH  18  19
TORSDOF 8
ENDMDL
MODEL 6
REMARK VINA RESULT:      -4.9     15.391     18.150
REMARK  Name = 
REMARK  8 active torsions:
REMARK  status: ('A' for Active; 'I' for Inactive)
REMARK    1  A    between atoms: O_2  and  C_3
REMARK    2  A    between atoms: C_3  and  C_5
REMARK    3  A    between atoms: C_10  and  C_11
REMARK    4  A    between atoms: C_11  and  C_12
REMARK    5  A    between atoms: C_14  and  C_15
REMARK    6  A    between atoms: C_18  and  C_19
REMARK    7  A    between atoms: C_19  and  N_20
REMARK    8  A    between atoms: N_20  and  C_21
REMARK                            x       y       z     vdW  Elec       q    Type
REMARK                         _______ _______ _______ _____ _____    ______ ____
ROOT
ATOM     12  C   UNL     1      11.992  -8.139  32.220  0.00  0.00    +0.026 C 
ATOM     13  C   UNL     1      11.820  -7.407  31.881  0.00  0.00    +0.005 C 
ATOM     14  C   UNL     1      12.334  -7.079  31.325  0.00  0.00    +0.006 C 
ATOM     18  C   UNL     1      13.020  -7.482  31.108  0.00  0.00    +0.039 C 
ATOM     28  C   UNL     1      13.192  -8.215  31.447  0.00  0.00    -0.033 C 
ATOM     29  C   UNL     1      12.679  -8.544  32.003  0.00  0.00    -0.048 C 
ATOM     30  C   UNL     1      12.851  -9.276  32.341  0.00  0.00    +0.026 C 
ENDROOT
BRANCH  14  15
ATOM     15  C   UNL     1      12.162  -6.347  30.986  0.00  0.00    +0.000 C 
ATOM     16  C   UNL     1      12.376  -5.651  31.375  0.00  0.00    +0.000 C 
ATOM     17  C   UNL     1      11.775  -6.310  30.258  0.00  0.00    +0.000 C 
ENDBRANCH  14  15
BRANCH  12  11
ATOM     11  C   UNL     1      11.479  -8.468  32.775  0.00  0.00    +0.070 C 
BRANCH  11  10
ATOM      5  C   UNL     1       8.105  -9.049  31.848  0.00  0.00    +0.077 A 
ATOM      6  C   UNL     1       8.872  -9.340  31.768  0.00  0.00    +0.027 A 
ATOM      7  C   UNL     1       9.502  -8.952  32.133  0.00  0.00    +0.100 A 
ATOM      8  C   UNL     1       9.363  -8.271  32.579  0.00  0.00    +0.100 A 
ATOM      9  N   UNL     1      10.086  -8.007  32.873  0.00  0.00    -0.229 NA
ATOM     10  C   UNL     1      10.672  -8.524  32.610  0.00  0.00    +0.139 A 
ATOM     31  N   UNL     1      10.311  -9.108  32.153  0.00  0.00    -0.229 NA
ATOM     32  C   UNL     1       8.595  -7.980  32.659  0.00  0.00    +0.021 A 
ATOM     33  C   UNL     1       7.966  -8.369  32.293  0.00  0.00    +0.008 A 
BRANCH   5   3
ATOM      3  C   UNL     1       7.476  -9.438  31.482  0.00  0.00    +0.341 C 
ATOM      4  O   UNL     1       7.034  -9.993  31.903  0.00  0.00    -0.245 OA
BRANCH   3   2
ATOM      1  C   UNL     1       6.725  -9.726  30.301  0.00  0.00    +0.256 C 
ATOM      2  O   UNL     1       7.289  -9.272  30.696  0.00  0.00    -0.441 OA
ENDBRANCH   3   2
ENDBRANCH   5   3
ENDBRANCH  11  10
ENDBRANCH  12  11
BRANCH  18  19
ATOM     19  C   UNL     1      13.534  -7.155  30.552  0.00  0.00    +0.093 C 
BRANCH  19  20
ATOM     20  N   UNL     1      14.251  -7.526  30.385  0.00  0.00    -0.219 NA
BRANCH  20  21
ATOM     21  C   UNL     1      14.777  -7.187  29.848  0.00  0.00    +0.076 C 
ATOM     22  C   UNL     1      14.717  -7.361  29.044  0.00  0.00    +0.035 C 
ATOM     23  C   UNL     1      15.243  -7.021  28.508  0.00  0.00    +0.074 C 
ATOM     24  N   UNL     1      15.830  -6.507  28.775  0.00  0.00    -0.271 NA
ATOM     25  C   UNL     1      16.357  -6.166  28.238  0.00  0.00    +0.090 C 
ATOM     26  C   UNL     1      15.891  -6.332  29.579  0.00  0.00    +0.074 C 
ATOM     27  C   UNL     1      15.365  -6.672  30.116  0.00  0.00    +0.035 C 
ENDBRANCH  20  21
ENDBRANCH  19  20
ENDBRANCH  18  19
TORSDOF 8
ENDMDL
MODEL 7
REMARK VINA RESULT:      -4.9     17.971     19.393
REMARK  Name = 
REMARK  8 active torsions:
REMARK  status: ('A' for Active; 'I' for Inactive)
REMARK    1  A    between atoms: O_2  and  C_3
REMARK    2  A    between atoms: C_3  and  C_5
REMARK    3  A    between atoms: C_10  and  C_11
REMARK    4  A    between atoms: C_11  and  C_12
REMARK    5  A    between atoms: C_14  and  C_15
REMARK    6  A    between atoms: C_18  and  C_19
REMARK    7  A    between atoms: C_19  and  N_20
REMARK    8  A    between atoms: N_20  and  C_21
REMARK                            x       y       z     vdW  Elec       q    Type
REMARK                         _______ _______ _______ _____ _____    ______ ____
ROOT
ATOM     12  C   UNL     1      15.025  -6.414  30.046  0.00  0.00    +0.026 C 
ATOM     13  C   UNL     1      15.845  -6.330  30.084  0.00  0.00    +0.005 C 
ATOM     14  C   UNL     1      16.175  -5.630  30.369  0.00  0.00    +0.006 C 
ATOM     18  C   UNL     1      15.686  -5.014  30.617  0.00  0.00    +0.039 C 
ATOM     28  C   UNL     1      14.866  -5.098  30.579  0.00  0.00    -0.033 C 
ATOM     29  C   UNL     1      14.535  -5.798  30.294  0.00  0.00    -0.048 C 
ATOM     30  C   UNL     1      13.715  -5.882  30.256  0.00  0.00    +0.026 C 
ENDROOT
BRANCH  14  15
ATOM     15  C   UNL     1      16.995  -5.546  30.407  0.00  0.00    +0.000 C 
ATOM     16  C   UNL     1      17.405  -5.799  31.076  0.00  0.00    +0.000 C 
ATOM     17  C   UNL     1      17.405  -5.208  29.775  0.00  0.00    +0.000 C 
ENDBRANCH  14  15
BRANCH  12  11
ATOM     11  C   UNL     1      14.695  -7.114  29.760  0.00  0.00    +0.070 C 
BRANCH  11  10
ATOM      5  C   UNL     1      16.018  -8.432  26.745  0.00  0.00    +0.077 A 
ATOM      6  C   UNL     1      15.609  -7.791  27.063  0.00  0.00    +0.027 A 
ATOM      7  C   UNL     1      15.433  -7.771  27.869  0.00  0.00    +0.100 A 
ATOM      8  C   UNL     1      15.668  -8.394  28.357  0.00  0.00    +0.100 A 
ATOM      9  N   UNL     1      15.419  -8.223  29.124  0.00  0.00    -0.229 NA
ATOM     10  C   UNL     1      15.032  -7.495  29.111  0.00  0.00    +0.139 A 
ATOM     31  N   UNL     1      15.041  -7.216  28.335  0.00  0.00    -0.229 NA
ATOM     32  C   UNL     1      16.077  -9.036  28.039  0.00  0.00    +0.021 A 
ATOM     33  C   UNL     1      16.252  -9.055  27.233  0.00  0.00    +0.008 A 
BRANCH   5   3
ATOM      3  C   UNL     1      16.193  -8.451  25.939  0.00  0.00    +0.341 C 
ATOM      4  O   UNL     1      15.693  -8.851  25.418  0.00  0.00    -0.245 OA
BRANCH   3   2
ATOM      1  C   UNL     1      17.022  -8.059  24.844  0.00  0.00    +0.256 C 
ATOM      2  O   UNL     1      16.867  -8.071  25.654  0.00  0.00    -0.441 OA
ENDBRANCH   3   2
ENDBRANCH   5   3
ENDBRANCH  11  10
ENDBRANCH  12  11
BRANCH  18  19
ATOM     19  C   UNL     1      16.016  -4.314  30.903  0.00  0.00    +0.093 C 
BRANCH  19  20
ATOM     20  N   UNL     1      15.528  -3.673  31.085  0.00  0.00    -0.219 NA
BRANCH  20  21
ATOM     21  C   UNL     1      15.857  -2.973  31.371  0.00  0.00    +0.076 C 
ATOM     22  C   UNL     1      15.920  -2.848  32.184  0.00  0.00    +0.035 C 
ATOM     23  C   UNL     1      16.248  -2.146  32.469  0.00  0.00    +0.074 C 
ATOM     24  N   UNL     1      16.513  -1.571  31.942  0.00  0.00    -0.271 NA
ATOM     25  C   UNL     1      16.842  -0.869  32.226  0.00  0.00    +0.090 C 
ATOM     26  C   UNL     1      16.450  -1.696  31.129  0.00  0.00    +0.074 C 
ATOM     27  C   UNL     1      16.122  -2.396  30.843  0.00  0.00    +0.035 C 
ENDBRANCH  20  21
ENDBRANCH  19  20
ENDBRANCH  18  19
TORSDOF 8
ENDMDL
MODEL 8
REMARK VINA RESULT:      -4.8     17.411     18.665
REMARK  Name = 
REMARK  8 active torsions:
REMARK  status: ('A' for Active; 'I' for Inactive)
REMARK    1  A    between atoms: O_2  and  C_3
REMARK    2  A    between atoms: C_3  and  C_5
REMARK    3  A    between atoms: C_10  and  C_11
REMARK    4  A    between atoms: C_11  and  C_12
REMARK    5  A    between atoms: C_14  and  C_15
REMARK    6  A    between atoms: C_18  and  C_19
REMARK    7  A    between atoms: C_19  and  N_20
REMARK    8  A    between atoms: N_20  and  C_21
REMARK                            x       y       z     vdW  Elec       q    Type
REMARK                         _______ _______ _______ _____ _____    ______ ____
ROOT
ATOM     12  C   UNL     1      16.362  -6.467  27.547  0.00  0.00    +0.026 C 
ATOM     13  C   UNL     1      16.529  -6.039  28.233  0.00  0.00    +0.005 C 
ATOM     14  C   UNL     1      16.041  -6.113  28.894  0.00  0.00    +0.006 C 
ATOM     18  C   UNL     1      15.387  -6.614  28.871  0.00  0.00    +0.039 C 
ATOM     28  C   UNL     1      15.220  -7.042  28.185  0.00  0.00    -0.033 C 
ATOM     29  C   UNL     1      15.707  -6.969  27.524  0.00  0.00    -0.048 C 
ATOM     30  C   UNL     1      15.540  -7.397  26.838  0.00  0.00    +0.026 C 
ENDROOT
BRANCH  14  15
ATOM     15  C   UNL     1      16.208  -5.685  29.579  0.00  0.00    +0.000 C 
ATOM     16  C   UNL     1      16.722  -5.996  30.145  0.00  0.00    +0.000 C 
ATOM     17  C   UNL     1      15.861  -4.945  29.699  0.00  0.00    +0.000 C 
ENDBRANCH  14  15
BRANCH  12  11
ATOM     11  C   UNL     1      16.848  -6.393  26.885  0.00  0.00    +0.070 C 
BRANCH  11  10
ATOM      5  C   UNL     1      16.703  -3.527  24.801  0.00  0.00    +0.077 A 
ATOM      6  C   UNL     1      16.444  -4.306  24.872  0.00  0.00    +0.027 A 
ATOM      7  C   UNL     1      16.664  -4.757  25.528  0.00  0.00    +0.100 A 
ATOM      8  C   UNL     1      17.145  -4.426  26.112  0.00  0.00    +0.100 A 
ATOM      9  N   UNL     1      17.272  -4.999  26.691  0.00  0.00    -0.229 NA
ATOM     10  C   UNL     1      16.871  -5.683  26.466  0.00  0.00    +0.139 A 
ATOM     31  N   UNL     1      16.496  -5.533  25.747  0.00  0.00    -0.229 NA
ATOM     32  C   UNL     1      17.404  -3.646  26.040  0.00  0.00    +0.021 A 
ATOM     33  C   UNL     1      17.183  -3.197  25.385  0.00  0.00    +0.008 A 
BRANCH   5   3
ATOM      3  C   UNL     1      16.482  -3.078  24.146  0.00  0.00    +0.341 C 
ATOM      4  O   UNL     1      15.941  -2.461  24.232  0.00  0.00    -0.245 OA
BRANCH   3   2
ATOM      1  C   UNL     1      16.523  -2.850  22.736  0.00  0.00    +0.256 C 
ATOM      2  O   UNL     1      16.803  -3.244  23.404  0.00  0.00    -0.441 OA
ENDBRANCH   3   2
ENDBRANCH   5   3
ENDBRANCH  11  10
ENDBRANCH  12  11
BRANCH  18  19
ATOM     19  C   UNL     1      14.899  -6.689  29.532  0.00  0.00    +0.093 C 
BRANCH  19  20
ATOM     20  N   UNL     1      14.230  -7.170  29.498  0.00  0.00    -0.219 NA
BRANCH  20  21
ATOM     21  C   UNL     1      13.726  -7.223  30.149  0.00  0.00    +0.076 C 
ATOM     22  C   UNL     1      13.828  -7.827  30.702  0.00  0.00    +0.035 C 
ATOM     23  C   UNL     1      13.323  -7.879  31.353  0.00  0.00    +0.074 C 
ATOM     24  N   UNL     1      12.718  -7.328  31.451  0.00  0.00    -0.271 NA
ATOM     25  C   UNL     1      12.213  -7.380  32.102  0.00  0.00    +0.090 C 
ATOM     26  C   UNL     1      12.616  -6.724  30.898  0.00  0.00    +0.074 C 
ATOM     27  C   UNL     1      13.120  -6.671  30.247  0.00  0.00    +0.035 C 
ENDBRANCH  20  21
ENDBRANCH  19  20
ENDBRANCH  18  19
TORSDOF 8
ENDMDL
MODEL 9
REMARK VINA RESULT:      -4.5     16.684     18.248
REMARK  Name = 
REMARK  8 active torsions:
REMARK  status: ('A' for Active; 'I' for Inactive)
REMARK    1  A    between atoms: O_2  and  C_3
REMARK    2  A    between atoms: C_3  and  C_5
REMARK    3  A    between atoms: C_10  and  C_11
REMARK    4  A    between atoms: C_11  and  C_12
REMARK    5  A    between atoms: C_14  and  C_15
REMARK    6  A    between atoms: C_18  and  C_19
REMARK    7  A    between atoms: C_19  and  N_20
REMARK    8  A    between atoms: N_20  and  C_21
REMARK                            x       y       z     vdW  Elec       q    Type
REMARK                         _______ _______ _______ _____ _____    ______ ____
ROOT
ATOM     12  C   UNL     1      14.027  -6.373  30.367  0.00  0.00    +0.026 C 
ATOM     13  C   UNL     1      13.539  -5.900  30.835  0.00  0.00    +0.005 C 
ATOM     14  C   UNL     1      12.878  -6.228  31.204  0.00  0.00    +0.006 C 
ATOM     18  C   UNL     1      12.704  -7.027  31.104  0.00  0.00    +0.039 C 
ATOM     28  C   UNL     1      13.191  -7.500  30.635  0.00  0.00    -0.033 C 
ATOM     29  C   UNL     1      13.853  -7.174  30.267  0.00  0.00    -0.048 C 
ATOM     30  C   UNL     1      14.340  -7.647  29.798  0.00  0.00    +0.026 C 
ENDROOT
BRANCH  14  15
ATOM     15  C   UNL     1      12.390  -5.755  31.672  0.00  0.00    +0.000 C 
ATOM     16  C   UNL     1      11.771  -5.333  31.328  0.00  0.00    +0.000 C 
ATOM     17  C   UNL     1      12.523  -5.704  32.485  0.00  0.00    +0.000 C 
ENDBRANCH  14  15
BRANCH  12  11
ATOM     11  C   UNL     1      14.688  -6.046  29.998  0.00  0.00    +0.070 C 
BRANCH  11  10
ATOM      5  C   UNL     1      16.377  -3.257  31.394  0.00  0.00    +0.077 A 
ATOM      6  C   UNL     1      15.815  -3.476  30.832  0.00  0.00    +0.027 A 
ATOM      7  C   UNL     1      15.618  -4.271  30.734  0.00  0.00    +0.100 A 
ATOM      8  C   UNL     1      15.984  -4.847  31.198  0.00  0.00    +0.100 A 
ATOM      9  N   UNL     1      15.680  -5.582  30.979  0.00  0.00    -0.229 NA
ATOM     10  C   UNL     1      15.127  -5.460  30.379  0.00  0.00    +0.139 A 
ATOM     31  N   UNL     1      15.089  -4.651  30.228  0.00  0.00    -0.229 NA
ATOM     32  C   UNL     1      16.547  -4.628  31.760  0.00  0.00    +0.021 A 
ATOM     33  C   UNL     1      16.743  -3.833  31.858  0.00  0.00    +0.008 A 
BRANCH   5   3
ATOM      3  C   UNL     1      16.574  -2.462  31.492  0.00  0.00    +0.341 C 
ATOM      4  O   UNL     1      17.049  -2.083  30.934  0.00  0.00    -0.245 OA
BRANCH   3   2
ATOM      1  C   UNL     1      16.576  -1.286  32.303  0.00  0.00    +0.256 C 
ATOM      2  O   UNL     1      16.297  -2.046  32.149  0.00  0.00    -0.441 OA
ENDBRANCH   3   2
ENDBRANCH   5   3
ENDBRANCH  11  10
ENDBRANCH  12  11
BRANCH  18  19
ATOM     19  C   UNL     1      12.042  -7.355  31.472  0.00  0.00    +0.093 C 
BRANCH  19  20
ATOM     20  N   UNL     1      11.887  -8.162  31.398  0.00  0.00    -0.219 NA
BRANCH  20  21
ATOM     21  C   UNL     1      11.227  -8.492  31.767  0.00  0.00    +0.076 C 
ATOM     22  C   UNL     1      11.323  -8.980  32.426  0.00  0.00    +0.035 C 
ATOM     23  C   UNL     1      10.662  -9.309  32.794  0.00  0.00    +0.074 C 
ATOM     24  N   UNL     1       9.906  -9.150  32.505  0.00  0.00    -0.271 NA
ATOM     25  C   UNL     1       9.245  -9.479  32.873  0.00  0.00    +0.090 C 
ATOM     26  C   UNL     1       9.811  -8.662  31.847  0.00  0.00    +0.074 C 
ATOM     27  C   UNL     1      10.471  -8.333  31.478  0.00  0.00    +0.035 C 
ENDBRANCH  20  21
ENDBRANCH  19  20
ENDBRANCH  18  19
TORSDOF 8
ENDMDL
MODEL 10
REMARK VINA RESULT:      -4.4     15.733     17.824
REMARK  Name = 
REMARK  8 active torsions:
REMARK  status: ('A' for Active; 'I' for Inactive)
REMARK    1  A    between atoms: O_2  and  C_3
REMARK    2  A    between atoms: C_3  and  C_5
REMARK    3  A    between atoms: C_10  and  C_11
REMARK    4  A    between atoms: C_11  and  C_12
REMARK    5  A    between atoms: C_14  and  C_15
REMARK    6  A    between atoms: C_18  and  C_19
REMARK    7  A    between atoms: C_19  and  N_20
REMARK    8  A    between atoms: N_20  and  C_21
REMARK                            x       y       z     vdW  Elec       q    Type
REMARK                         _______ _______ _______ _____ _____    ______ ____
ROOT
ATOM     12  C   UNL     1      13.781  -7.836  31.168  0.00  0.00    +0.026 C 
ATOM     13  C   UNL     1      13.372  -7.141  30.995  0.00  0.00    +0.005 C 
ATOM     14  C   UNL     1      12.567  -7.083  31.167  0.00  0.00    +0.006 C 
ATOM     18  C   UNL     1      12.171  -7.719  31.511  0.00  0.00    +0.039 C 
ATOM     28  C   UNL     1      12.580  -8.414  31.684  0.00  0.00    -0.033 C 
ATOM     29  C   UNL     1      13.385  -8.473  31.513  0.00  0.00    -0.048 C 
ATOM     30  C   UNL     1      13.794  -9.169  31.685  0.00  0.00    +0.026 C 
ENDROOT
BRANCH  14  15
ATOM     15  C   UNL     1      12.158  -6.387  30.994  0.00  0.00    +0.000 C 
ATOM     16  C   UNL     1      12.136  -5.774  31.545  0.00  0.00    +0.000 C 
ATOM     17  C   UNL     1      11.771  -6.305  30.270  0.00  0.00    +0.000 C 
ENDBRANCH  14  15
BRANCH  12  11
ATOM     11  C   UNL     1      14.586  -7.895  30.997  0.00  0.00    +0.070 C 
BRANCH  11  10
ATOM      5  C   UNL     1      15.685  -7.002  27.745  0.00  0.00    +0.077 A 
ATOM      6  C   UNL     1      15.284  -7.582  28.171  0.00  0.00    +0.027 A 
ATOM      7  C   UNL     1      15.179  -7.499  28.985  0.00  0.00    +0.100 A 
ATOM      8  C   UNL     1      15.477  -6.835  29.373  0.00  0.00    +0.100 A 
ATOM      9  N   UNL     1      15.291  -6.902  30.174  0.00  0.00    -0.229 NA
ATOM     10  C   UNL     1      14.878  -7.608  30.281  0.00  0.00    +0.139 A 
ATOM     31  N   UNL     1      14.809  -7.977  29.546  0.00  0.00    -0.229 NA
ATOM     32  C   UNL     1      15.879  -6.253  28.947  0.00  0.00    +0.021 A 
ATOM     33  C   UNL     1      15.983  -6.337  28.133  0.00  0.00    +0.008 A 
BRANCH   5   3
ATOM      3  C   UNL     1      15.790  -7.085  26.932  0.00  0.00    +0.341 C 
ATOM      4  O   UNL     1      15.140  -7.034  26.425  0.00  0.00    -0.245 OA
BRANCH   3   2
ATOM      1  C   UNL     1      16.652  -7.272  25.808  0.00  0.00    +0.256 C 
ATOM      2  O   UNL     1      16.543  -7.220  26.623  0.00  0.00    -0.441 OA
ENDBRANCH   3   2
ENDBRANCH   5   3
ENDBRANCH  11  10
ENDBRANCH  12  11
BRANCH  18  19
ATOM     19  C   UNL     1      11.366  -7.661  31.683  0.00  0.00    +0.093 C 
BRANCH  19  20
ATOM     20  N   UNL     1      10.992  -8.258  32.111  0.00  0.00    -0.219 NA
BRANCH  20  21
ATOM     21  C   UNL     1      10.173  -8.248  32.205  0.00  0.00    +0.076 C 
ATOM     22  C   UNL     1       9.697  -8.721  31.725  0.00  0.00    +0.035 C 
ATOM     23  C   UNL     1       8.877  -8.710  31.819  0.00  0.00    +0.074 C 
ATOM     24  N   UNL     1       8.534  -8.228  32.393  0.00  0.00    -0.271 NA
ATOM     25  C   UNL     1       7.714  -8.217  32.488  0.00  0.00    +0.090 C 
ATOM     26  C   UNL     1       9.010  -7.755  32.873  0.00  0.00    +0.074 C 
ATOM     27  C   UNL     1       9.830  -7.765  32.780  0.00  0.00    +0.035 C 
ENDBRANCH  20  21
ENDBRANCH  19  20
ENDBRANCH  18  19
TORSDOF 8
ENDMDL
