MODEL 1
REMARK VINA RESULT:     -11.6      0.000      0.000
REMARK  Name = 
REMARK  8 active torsions:
REMARK  status: ('A' for Active; 'I' for Inactive)
REMARK    1  A    between atoms: C_2  and  C_4
REMARK    2  A    between atoms: C_6  and  C_7
REMARK    3  A    between atoms: C_7  and  C_8
REMARK    4  A    between atoms: C_11  and  C_13
REMARK    5  A    between atoms: C_23  and  C_24
REMARK    6  A    between atoms: C_24  and  N_25
REMARK    7  A    between atoms: N_25  and  C_26
REMARK    8  A    between atoms: C_26  and  C_27
REMARK                            x       y       z     vdW  Elec       q    Type
REMARK                         _______ _______ _______ _____ _____    ______ ____
ROOT
ATOM      4  C   UNL     1      -3.773   1.457  24.077  0.00  0.00    +0.006 C 
ATOM      5  C   UNL     1      -3.889   2.207  24.400  0.00  0.00    +0.005 C 
ATOM      6  C   UNL     1      -4.508   2.337  24.929  0.00  0.00    +0.027 C 
ATOM     20  C   UNL     1      -5.012   1.718  25.135  0.00  0.00    -0.048 C 
ATOM     21  C   UNL     1      -5.632   1.848  25.664  0.00  0.00    +0.026 C 
ATOM     22  C   UNL     1      -4.896   0.967  24.811  0.00  0.00    -0.033 C 
ATOM     23  C   UNL     1      -4.277   0.837  24.283  0.00  0.00    +0.039 C 
ENDROOT
BRANCH   4   2
ATOM      1  C   UNL     1      -3.254   1.494  22.746  0.00  0.00    +0.000 C 
ATOM      2  C   UNL     1      -3.153   1.327  23.548  0.00  0.00    +0.000 C 
ATOM      3  C   UNL     1      -2.434   1.030  23.821  0.00  0.00    +0.000 C 
ENDBRANCH   4   2
BRANCH   6   7
ATOM      7  C   UNL     1      -4.623   3.088  25.252  0.00  0.00    +0.091 C 
BRANCH   7   8
ATOM      8  C   UNL     1      -3.978   3.524  25.524  0.00  0.00    +0.227 A 
ATOM      9  N   UNL     1      -3.863   3.789  26.297  0.00  0.00    -0.111 NA
ATOM     10  N   UNL     1      -3.148   4.201  26.321  0.00  0.00    -0.107 NA
ATOM     11  C   UNL     1      -2.821   4.190  25.564  0.00  0.00    +0.250 A 
ATOM     12  O   UNL     1      -3.334   3.772  25.071  0.00  0.00    -0.420 OA
BRANCH  11  13
ATOM     13  C   UNL     1      -2.107   4.536  25.338  0.00  0.00    +0.055 A 
ATOM     14  C   UNL     1      -2.082   5.337  25.140  0.00  0.00    +0.004 A 
ATOM     15  C   UNL     1      -1.369   5.684  24.915  0.00  0.00    -0.004 A 
ATOM     16  C   UNL     1      -0.681   5.230  24.887  0.00  0.00    -0.022 A 
ATOM     17  C   UNL     1       0.033   5.576  24.661  0.00  0.00    +0.031 C 
ATOM     18  C   UNL     1      -0.706   4.429  25.084  0.00  0.00    -0.004 A 
ATOM     19  C   UNL     1      -1.419   4.083  25.310  0.00  0.00    +0.004 A 
ENDBRANCH  11  13
ENDBRANCH   7   8
ENDBRANCH   6   7
BRANCH  23  24
ATOM     24  C   UNL     1      -4.161   0.087  23.959  0.00  0.00    +0.093 C 
BRANCH  24  25
ATOM     25  N   UNL     1      -4.297  -0.586  24.417  0.00  0.00    -0.211 NA
BRANCH  25  26
ATOM     26  C   UNL     1      -4.354  -1.325  24.056  0.00  0.00    +0.134 C 
BRANCH  26  27
ATOM     27  C   UNL     1      -3.963  -1.975  24.383  0.00  0.00    +0.077 A 
ATOM     28  N   UNL     1      -3.699  -1.947  25.164  0.00  0.00    -0.247 NA
ATOM     29  C   UNL     1      -3.308  -2.596  25.491  0.00  0.00    +0.098 A 
ATOM     30  C   UNL     1      -3.182  -3.273  25.036  0.00  0.00    +0.021 A 
ATOM     31  C   UNL     1      -3.446  -3.300  24.255  0.00  0.00    +0.003 A 
ATOM     32  C   UNL     1      -3.837  -2.651  23.929  0.00  0.00    +0.016 A 
ENDBRANCH  26  27
ENDBRANCH  25  26
ENDBRANCH  24  25
ENDBRANCH  23  24
TORSDOF 8
ENDMDL
MODEL 2
REMARK VINA RESULT:     -11.0      3.480      5.439
REMARK  Name = 
REMARK  8 active torsions:
REMARK  status: ('A' for Active; 'I' for Inactive)
REMARK    1  A    between atoms: C_2  and  C_4
REMARK    2  A    between atoms: C_6  and  C_7
REMARK    3  A    between atoms: C_7  and  C_8
REMARK    4  A    between atoms: C_11  and  C_13
REMARK    5  A    between atoms: C_23  and  C_24
REMARK    6  A    between atoms: C_24  and  N_25
REMARK    7  A    between atoms: N_25  and  C_26
REMARK    8  A    between atoms: C_26  and  C_27
REMARK                            x       y       z     vdW  Elec       q    Type
REMARK                         _______ _______ _______ _____ _____    ______ ____
ROOT
ATOM      4  C   UNL     1      -0.440   0.836  24.201  0.00  0.00    +0.006 C 
ATOM      5  C   UNL     1      -1.110   0.559  24.593  0.00  0.00    +0.005 C 
ATOM      6  C   UNL     1      -1.259  -0.250  24.636  0.00  0.00    +0.027 C 
ATOM     20  C   UNL     1      -0.738  -0.785  24.285  0.00  0.00    -0.048 C 
ATOM     21  C   UNL     1      -0.887  -1.595  24.328  0.00  0.00    +0.026 C 
ATOM     22  C   UNL     1      -0.067  -0.508  23.892  0.00  0.00    -0.033 C 
ATOM     23  C   UNL     1       0.082   0.301  23.850  0.00  0.00    +0.039 C 
ENDROOT
BRANCH   4   2
ATOM      1  C   UNL     1       0.131   2.020  24.761  0.00  0.00    +0.000 C 
ATOM      2  C   UNL     1      -0.290   1.646  24.158  0.00  0.00    +0.000 C 
ATOM      3  C   UNL     1      -0.562   2.082  23.513  0.00  0.00    +0.000 C 
ENDBRANCH   4   2
BRANCH   6   7
ATOM      7  C   UNL     1      -1.931  -0.526  25.029  0.00  0.00    +0.091 C 
BRANCH   7   8
ATOM      8  C   UNL     1      -2.675  -0.230  24.832  0.00  0.00    +0.227 A 
ATOM      9  N   UNL     1      -3.206  -0.566  24.299  0.00  0.00    -0.111 NA
ATOM     10  N   UNL     1      -3.879  -0.089  24.272  0.00  0.00    -0.107 NA
ATOM     11  C   UNL     1      -3.763   0.543  24.789  0.00  0.00    +0.250 A 
ATOM     12  O   UNL     1      -3.019   0.457  25.136  0.00  0.00    -0.420 OA
BRANCH  11  13
ATOM     13  C   UNL     1      -4.297   1.155  24.934  0.00  0.00    +0.055 A 
ATOM     14  C   UNL     1      -4.974   1.013  25.385  0.00  0.00    +0.004 A 
ATOM     15  C   UNL     1      -5.508   1.624  25.531  0.00  0.00    -0.004 A 
ATOM     16  C   UNL     1      -5.366   2.377  25.226  0.00  0.00    -0.022 A 
ATOM     17  C   UNL     1      -5.900   2.988  25.371  0.00  0.00    +0.031 C 
ATOM     18  C   UNL     1      -4.690   2.519  24.775  0.00  0.00    -0.004 A 
ATOM     19  C   UNL     1      -4.156   1.908  24.630  0.00  0.00    +0.004 A 
ENDBRANCH  11  13
ENDBRANCH   7   8
ENDBRANCH   6   7
BRANCH  23  24
ATOM     24  C   UNL     1       0.753   0.577  23.457  0.00  0.00    +0.093 C 
BRANCH  24  25
ATOM     25  N   UNL     1       1.392   0.073  23.326  0.00  0.00    -0.211 NA
BRANCH  25  26
ATOM     26  C   UNL     1       1.898   0.205  22.688  0.00  0.00    +0.134 C 
BRANCH  26  27
ATOM     27  C   UNL     1       2.715   0.210  22.803  0.00  0.00    +0.077 A 
ATOM     28  N   UNL     1       3.104  -0.483  23.028  0.00  0.00    -0.247 NA
ATOM     29  C   UNL     1       3.921  -0.478  23.143  0.00  0.00    +0.098 A 
ATOM     30  C   UNL     1       4.349   0.219  23.034  0.00  0.00    +0.021 A 
ATOM     31  C   UNL     1       3.960   0.911  22.810  0.00  0.00    +0.003 A 
ATOM     32  C   UNL     1       3.143   0.906  22.695  0.00  0.00    +0.016 A 
ENDBRANCH  26  27
ENDBRANCH  25  26
ENDBRANCH  24  25
ENDBRANCH  23  24
TORSDOF 8
ENDMDL
MODEL 3
REMARK VINA RESULT:     -10.9      2.934      5.539
REMARK  Name = 
REMARK  8 active torsions:
REMARK  status: ('A' for Active; 'I' for Inactive)
REMARK    1  A    between atoms: C_2  and  C_4
REMARK    2  A    between atoms: C_6  and  C_7
REMARK    3  A    between atoms: C_7  and  C_8
REMARK    4  A    between atoms: C_11  and  C_13
REMARK    5  A    between atoms: C_23  and  C_24
REMARK    6  A    between atoms: C_24  and  N_25
REMARK    7  A    between atoms: N_25  and  C_26
REMARK    8  A    between atoms: C_26  and  C_27
REMARK                            x       y       z     vdW  Elec       q    Type
REMARK                         _______ _______ _______ _____ _____    ______ ____
ROOT
ATOM      4  C   UNL     1      -1.120   1.944  24.966  0.00  0.00    +0.006 C 
ATOM      5  C   UNL     1      -1.944   1.920  24.928  0.00  0.00    +0.005 C 
ATOM      6  C   UNL     1      -2.323   1.925  24.196  0.00  0.00    +0.027 C 
ATOM     20  C   UNL     1      -1.880   1.953  23.501  0.00  0.00    -0.048 C 
ATOM     21  C   UNL     1      -2.260   1.958  22.769  0.00  0.00    +0.026 C 
ATOM     22  C   UNL     1      -1.055   1.976  23.539  0.00  0.00    -0.033 C 
ATOM     23  C   UNL     1      -0.676   1.972  24.270  0.00  0.00    +0.039 C 
ENDROOT
BRANCH   4   2
ATOM      1  C   UNL     1      -0.566   1.222  26.067  0.00  0.00    +0.000 C 
ATOM      2  C   UNL     1      -0.740   1.939  25.698  0.00  0.00    +0.000 C 
ATOM      3  C   UNL     1      -0.535   2.650  26.060  0.00  0.00    +0.000 C 
ENDBRANCH   4   2
BRANCH   6   7
ATOM      7  C   UNL     1      -3.148   1.902  24.158  0.00  0.00    +0.091 C 
BRANCH   7   8
ATOM      8  C   UNL     1      -3.552   1.221  24.392  0.00  0.00    +0.227 A 
ATOM      9  N   UNL     1      -4.247   1.199  24.836  0.00  0.00    -0.111 NA
ATOM     10  N   UNL     1      -4.457   0.407  24.940  0.00  0.00    -0.107 NA
ATOM     11  C   UNL     1      -3.892  -0.059  24.560  0.00  0.00    +0.250 A 
ATOM     12  O   UNL     1      -3.333   0.444  24.221  0.00  0.00    -0.420 OA
BRANCH  11  13
ATOM     13  C   UNL     1      -3.888  -0.883  24.525  0.00  0.00    +0.055 A 
ATOM     14  C   UNL     1      -4.232  -1.270  23.883  0.00  0.00    +0.004 A 
ATOM     15  C   UNL     1      -4.227  -2.094  23.848  0.00  0.00    -0.004 A 
ATOM     16  C   UNL     1      -3.879  -2.531  24.454  0.00  0.00    -0.022 A 
ATOM     17  C   UNL     1      -3.874  -3.355  24.419  0.00  0.00    +0.031 C 
ATOM     18  C   UNL     1      -3.534  -2.144  25.097  0.00  0.00    -0.004 A 
ATOM     19  C   UNL     1      -3.539  -1.320  25.132  0.00  0.00    +0.004 A 
ENDBRANCH  11  13
ENDBRANCH   7   8
ENDBRANCH   6   7
BRANCH  23  24
ATOM     24  C   UNL     1       0.148   1.995  24.308  0.00  0.00    +0.093 C 
BRANCH  24  25
ATOM     25  N   UNL     1       0.599   1.571  23.763  0.00  0.00    -0.211 NA
BRANCH  25  26
ATOM     26  C   UNL     1       1.418   1.536  23.845  0.00  0.00    +0.134 C 
BRANCH  26  27
ATOM     27  C   UNL     1       1.862   1.045  23.350  0.00  0.00    +0.077 A 
ATOM     28  N   UNL     1       2.654   1.220  23.199  0.00  0.00    -0.247 NA
ATOM     29  C   UNL     1       3.097   0.730  22.705  0.00  0.00    +0.098 A 
ATOM     30  C   UNL     1       2.748   0.065  22.362  0.00  0.00    +0.021 A 
ATOM     31  C   UNL     1       1.956  -0.109  22.514  0.00  0.00    +0.003 A 
ATOM     32  C   UNL     1       1.513   0.381  23.008  0.00  0.00    +0.016 A 
ENDBRANCH  26  27
ENDBRANCH  25  26
ENDBRANCH  24  25
ENDBRANCH  23  24
TORSDOF 8
ENDMDL
MODEL 4
REMARK VINA RESULT:     -10.9      3.116      4.962
REMARK  Name = 
REMARK  8 active torsions:
REMARK  status: ('A' for Active; 'I' for Inactive)
REMARK    1  A    between atoms: C_2  and  C_4
REMARK    2  A    between atoms: C_6  and  C_7
REMARK    3  A    between atoms: C_7  and  C_8
REMARK    4  A    between atoms: C_11  and  C_13
REMARK    5  A    between atoms: C_23  and  C_24
REMARK    6  A    between atoms: C_24  and  N_25
REMARK    7  A    between atoms: N_25  and  C_26
REMARK    8  A    between atoms: C_26  and  C_27
REMARK                            x       y       z     vdW  Elec       q    Type
REMARK                         _______ _______ _______ _____ _____    ______ ____
ROOT
ATOM      4  C   UNL     1      -0.887   1.020  24.708  0.00  0.00    +0.006 C 
ATOM      5  C   UNL     1      -1.303   1.641  25.055  0.00  0.00    +0.005 C 
ATOM      6  C   UNL     1      -1.041   2.417  24.960  0.00  0.00    +0.027 C 
ATOM     20  C   UNL     1      -0.363   2.573  24.518  0.00  0.00    -0.048 C 
ATOM     21  C   UNL     1      -0.100   3.349  24.424  0.00  0.00    +0.026 C 
ATOM     22  C   UNL     1       0.055   1.951  24.171  0.00  0.00    -0.033 C 
ATOM     23  C   UNL     1      -0.207   1.175  24.265  0.00  0.00    +0.039 C 
ENDROOT
BRANCH   4   2
ATOM      1  C   UNL     1      -1.629  -0.103  24.227  0.00  0.00    +0.000 C 
ATOM      2  C   UNL     1      -1.149   0.243  24.802  0.00  0.00    +0.000 C 
ATOM      3  C   UNL     1      -0.931  -0.187  25.471  0.00  0.00    +0.000 C 
ENDBRANCH   4   2
BRANCH   6   7
ATOM      7  C   UNL     1      -1.459   3.039  25.308  0.00  0.00    +0.091 C 
BRANCH   7   8
ATOM      8  C   UNL     1      -2.249   3.166  25.111  0.00  0.00    +0.227 A 
ATOM      9  N   UNL     1      -2.539   3.775  24.635  0.00  0.00    -0.111 NA
ATOM     10  N   UNL     1      -3.358   3.692  24.585  0.00  0.00    -0.107 NA
ATOM     11  C   UNL     1      -3.576   3.033  25.031  0.00  0.00    +0.250 A 
ATOM     12  O   UNL     1      -2.890   2.707  25.356  0.00  0.00    -0.420 OA
BRANCH  11  13
ATOM     13  C   UNL     1      -4.343   2.748  25.133  0.00  0.00    +0.055 A 
ATOM     14  C   UNL     1      -4.620   2.130  24.661  0.00  0.00    +0.004 A 
ATOM     15  C   UNL     1      -5.387   1.845  24.764  0.00  0.00    -0.004 A 
ATOM     16  C   UNL     1      -5.877   2.178  25.337  0.00  0.00    -0.022 A 
ATOM     17  C   UNL     1      -6.645   1.893  25.440  0.00  0.00    +0.031 C 
ATOM     18  C   UNL     1      -5.600   2.796  25.809  0.00  0.00    -0.004 A 
ATOM     19  C   UNL     1      -4.833   3.080  25.707  0.00  0.00    +0.004 A 
ENDBRANCH  11  13
ENDBRANCH   7   8
ENDBRANCH   6   7
BRANCH  23  24
ATOM     24  C   UNL     1       0.209   0.553  23.918  0.00  0.00    +0.093 C 
BRANCH  24  25
ATOM     25  N   UNL     1       0.920   0.701  23.525  0.00  0.00    -0.211 NA
BRANCH  25  26
ATOM     26  C   UNL     1       1.339   0.078  23.186  0.00  0.00    +0.134 C 
BRANCH  26  27
ATOM     27  C   UNL     1       2.071   0.218  22.830  0.00  0.00    +0.077 A 
ATOM     28  N   UNL     1       2.222  -0.066  22.070  0.00  0.00    -0.247 NA
ATOM     29  C   UNL     1       2.953   0.075  21.715  0.00  0.00    +0.098 A 
ATOM     30  C   UNL     1       3.534   0.500  22.119  0.00  0.00    +0.021 A 
ATOM     31  C   UNL     1       3.382   0.783  22.879  0.00  0.00    +0.003 A 
ATOM     32  C   UNL     1       2.651   0.643  23.234  0.00  0.00    +0.016 A 
ENDBRANCH  26  27
ENDBRANCH  25  26
ENDBRANCH  24  25
ENDBRANCH  23  24
TORSDOF 8
ENDMDL
MODEL 5
REMARK VINA RESULT:     -10.5      3.719      5.466
REMARK  Name = 
REMARK  8 active torsions:
REMARK  status: ('A' for Active; 'I' for Inactive)
REMARK    1  A    between atoms: C_2  and  C_4
REMARK    2  A    between atoms: C_6  and  C_7
REMARK    3  A    between atoms: C_7  and  C_8
REMARK    4  A    between atoms: C_11  and  C_13
REMARK    5  A    between atoms: C_23  and  C_24
REMARK    6  A    between atoms: C_24  and  N_25
REMARK    7  A    between atoms: N_25  and  C_26
REMARK    8  A    between atoms: C_26  and  C_27
REMARK                            x       y       z     vdW  Elec       q    Type
REMARK                         _______ _______ _______ _____ _____    ______ ____
ROOT
ATOM      4  C   UNL     1      -0.788   1.669  24.644  0.00  0.00    +0.006 C 
ATOM      5  C   UNL     1      -0.298   1.040  24.435  0.00  0.00    +0.005 C 
ATOM      6  C   UNL     1      -0.623   0.304  24.258  0.00  0.00    +0.027 C 
ATOM     20  C   UNL     1      -1.441   0.196  24.289  0.00  0.00    -0.048 C 
ATOM     21  C   UNL     1      -1.767  -0.541  24.111  0.00  0.00    +0.026 C 
ATOM     22  C   UNL     1      -1.932   0.826  24.498  0.00  0.00    -0.033 C 
ATOM     23  C   UNL     1      -1.606   1.561  24.675  0.00  0.00    +0.039 C 
ENDROOT
BRANCH   4   2
ATOM      1  C   UNL     1      -0.400   2.981  24.233  0.00  0.00    +0.000 C 
ATOM      2  C   UNL     1      -0.462   2.406  24.821  0.00  0.00    +0.000 C 
ATOM      3  C   UNL     1      -0.199   2.566  25.586  0.00  0.00    +0.000 C 
ENDBRANCH   4   2
BRANCH   6   7
ATOM      7  C   UNL     1      -0.132  -0.326  24.049  0.00  0.00    +0.091 C 
BRANCH   7   8
ATOM      8  C   UNL     1       0.500  -0.203  23.533  0.00  0.00    +0.227 A 
ATOM      9  N   UNL     1       0.453  -0.161  22.711  0.00  0.00    -0.111 NA
ATOM     10  N   UNL     1       1.213  -0.032  22.418  0.00  0.00    -0.107 NA
ATOM     11  C   UNL     1       1.731   0.005  23.059  0.00  0.00    +0.250 A 
ATOM     12  O   UNL     1       1.290  -0.100  23.749  0.00  0.00    -0.420 OA
BRANCH  11  13
ATOM     13  C   UNL     1       2.545   0.126  23.019  0.00  0.00    +0.055 A 
ATOM     14  C   UNL     1       3.063  -0.495  23.184  0.00  0.00    +0.004 A 
ATOM     15  C   UNL     1       3.878  -0.373  23.143  0.00  0.00    -0.004 A 
ATOM     16  C   UNL     1       4.175   0.368  22.938  0.00  0.00    -0.022 A 
ATOM     17  C   UNL     1       4.990   0.489  22.898  0.00  0.00    +0.031 C 
ATOM     18  C   UNL     1       3.657   0.989  22.774  0.00  0.00    -0.004 A 
ATOM     19  C   UNL     1       2.843   0.868  22.814  0.00  0.00    +0.004 A 
ENDBRANCH  11  13
ENDBRANCH   7   8
ENDBRANCH   6   7
BRANCH  23  24
ATOM     24  C   UNL     1      -2.097   2.191  24.883  0.00  0.00    +0.093 C 
BRANCH  24  25
ATOM     25  N   UNL     1      -2.916   2.090  24.896  0.00  0.00    -0.211 NA
BRANCH  25  26
ATOM     26  C   UNL     1      -3.411   2.748  24.925  0.00  0.00    +0.134 C 
BRANCH  26  27
ATOM     27  C   UNL     1      -4.216   2.652  25.085  0.00  0.00    +0.077 A 
ATOM     28  N   UNL     1      -4.556   3.034  25.732  0.00  0.00    -0.247 NA
ATOM     29  C   UNL     1      -5.360   2.938  25.892  0.00  0.00    +0.098 A 
ATOM     30  C   UNL     1      -5.823   2.460  25.404  0.00  0.00    +0.021 A 
ATOM     31  C   UNL     1      -5.482   2.078  24.757  0.00  0.00    +0.003 A 
ATOM     32  C   UNL     1      -4.679   2.174  24.597  0.00  0.00    +0.016 A 
ENDBRANCH  26  27
ENDBRANCH  25  26
ENDBRANCH  24  25
ENDBRANCH  23  24
TORSDOF 8
ENDMDL
MODEL 6
REMARK VINA RESULT:     -10.3      2.048      5.891
REMARK  Name = 
REMARK  8 active torsions:
REMARK  status: ('A' for Active; 'I' for Inactive)
REMARK    1  A    between atoms: C_2  and  C_4
REMARK    2  A    between atoms: C_6  and  C_7
REMARK    3  A    between atoms: C_7  and  C_8
REMARK    4  A    between atoms: C_11  and  C_13
REMARK    5  A    between atoms: C_23  and  C_24
REMARK    6  A    between atoms: C_24  and  N_25
REMARK    7  A    between atoms: N_25  and  C_26
REMARK    8  A    between atoms: C_26  and  C_27
REMARK                            x       y       z     vdW  Elec       q    Type
REMARK                         _______ _______ _______ _____ _____    ______ ____
ROOT
ATOM      4  C   UNL     1      -0.548   2.224  25.235  0.00  0.00    +0.006 C 
ATOM      5  C   UNL     1      -0.235   1.528  24.923  0.00  0.00    +0.005 C 
ATOM      6  C   UNL     1      -0.457   1.277  24.170  0.00  0.00    +0.027 C 
ATOM     20  C   UNL     1      -0.993   1.722  23.728  0.00  0.00    -0.048 C 
ATOM     21  C   UNL     1      -1.215   1.471  22.974  0.00  0.00    +0.026 C 
ATOM     22  C   UNL     1      -1.306   2.419  24.040  0.00  0.00    -0.033 C 
ATOM     23  C   UNL     1      -1.084   2.670  24.793  0.00  0.00    +0.039 C 
ENDROOT
BRANCH   4   2
ATOM      1  C   UNL     1      -0.677   2.138  26.656  0.00  0.00    +0.000 C 
ATOM      2  C   UNL     1      -0.326   2.475  25.989  0.00  0.00    +0.000 C 
ATOM      3  C   UNL     1       0.246   3.062  26.076  0.00  0.00    +0.000 C 
ENDBRANCH   4   2
BRANCH   6   7
ATOM      7  C   UNL     1      -0.144   0.580  23.858  0.00  0.00    +0.091 C 
BRANCH   7   8
ATOM      8  C   UNL     1      -0.387  -0.151  24.154  0.00  0.00    +0.227 A 
ATOM      9  N   UNL     1       0.098  -0.716  24.508  0.00  0.00    -0.111 NA
ATOM     10  N   UNL     1      -0.373  -1.360  24.721  0.00  0.00    -0.107 NA
ATOM     11  C   UNL     1      -1.150  -1.191  24.499  0.00  0.00    +0.250 A 
ATOM     12  O   UNL     1      -1.158  -0.444  24.148  0.00  0.00    -0.420 OA
BRANCH  11  13
ATOM     13  C   UNL     1      -1.803  -1.683  24.608  0.00  0.00    +0.055 A 
ATOM     14  C   UNL     1      -2.445  -1.423  25.057  0.00  0.00    +0.004 A 
ATOM     15  C   UNL     1      -3.098  -1.914  25.165  0.00  0.00    -0.004 A 
ATOM     16  C   UNL     1      -3.109  -2.666  24.826  0.00  0.00    -0.022 A 
ATOM     17  C   UNL     1      -3.763  -3.158  24.935  0.00  0.00    +0.031 C 
ATOM     18  C   UNL     1      -2.468  -2.926  24.377  0.00  0.00    -0.004 A 
ATOM     19  C   UNL     1      -1.815  -2.434  24.268  0.00  0.00    +0.004 A 
ENDBRANCH  11  13
ENDBRANCH   7   8
ENDBRANCH   6   7
BRANCH  23  24
ATOM     24  C   UNL     1      -1.397   3.366  25.105  0.00  0.00    +0.093 C 
BRANCH  24  25
ATOM     25  N   UNL     1      -2.123   3.651  24.835  0.00  0.00    -0.211 NA
BRANCH  25  26
ATOM     26  C   UNL     1      -2.607   4.090  25.337  0.00  0.00    +0.134 C 
BRANCH  26  27
ATOM     27  C   UNL     1      -3.423   3.961  25.342  0.00  0.00    +0.077 A 
ATOM     28  N   UNL     1      -3.813   3.813  26.054  0.00  0.00    -0.247 NA
ATOM     29  C   UNL     1      -4.628   3.685  26.058  0.00  0.00    +0.098 A 
ATOM     30  C   UNL     1      -5.052   3.704  25.350  0.00  0.00    +0.021 A 
ATOM     31  C   UNL     1      -4.661   3.852  24.639  0.00  0.00    +0.003 A 
ATOM     32  C   UNL     1      -3.847   3.981  24.635  0.00  0.00    +0.016 A 
ENDBRANCH  26  27
ENDBRANCH  25  26
ENDBRANCH  24  25
ENDBRANCH  23  24
TORSDOF 8
ENDMDL
MODEL 7
REMARK VINA RESULT:     -10.2      1.836      3.235
REMARK  Name = 
REMARK  8 active torsions:
REMARK  status: ('A' for Active; 'I' for Inactive)
REMARK    1  A    between atoms: C_2  and  C_4
REMARK    2  A    between atoms: C_6  and  C_7
REMARK    3  A    between atoms: C_7  and  C_8
REMARK    4  A    between atoms: C_11  and  C_13
REMARK    5  A    between atoms: C_23  and  C_24
REMARK    6  A    between atoms: C_24  and  N_25
REMARK    7  A    between atoms: N_25  and  C_26
REMARK    8  A    between atoms: C_26  and  C_27
REMARK                            x       y       z     vdW  Elec       q    Type
REMARK                         _______ _______ _______ _____ _____    ______ ____
ROOT
ATOM      4  C   UNL     1      -0.523   1.183  24.314  0.00  0.00    +0.006 C 
ATOM      5  C   UNL     1      -0.486   1.986  24.497  0.00  0.00    +0.005 C 
ATOM      6  C   UNL     1      -0.451   2.229  25.284  0.00  0.00    +0.027 C 
ATOM     20  C   UNL     1      -0.454   1.669  25.889  0.00  0.00    -0.048 C 
ATOM     21  C   UNL     1      -0.419   1.911  26.677  0.00  0.00    +0.026 C 
ATOM     22  C   UNL     1      -0.490   0.864  25.706  0.00  0.00    -0.033 C 
ATOM     23  C   UNL     1      -0.525   0.622  24.919  0.00  0.00    +0.039 C 
ENDROOT
BRANCH   4   2
ATOM      1  C   UNL     1       0.118   0.642  23.157  0.00  0.00    +0.000 C 
ATOM      2  C   UNL     1      -0.557   0.940  23.526  0.00  0.00    +0.000 C 
ATOM      3  C   UNL     1      -1.266   0.995  23.108  0.00  0.00    +0.000 C 
ENDBRANCH   4   2
BRANCH   6   7
ATOM      7  C   UNL     1      -0.415   3.033  25.467  0.00  0.00    +0.091 C 
BRANCH   7   8
ATOM      8  C   UNL     1      -1.083   3.508  25.374  0.00  0.00    +0.227 A 
ATOM      9  N   UNL     1      -1.085   4.309  25.176  0.00  0.00    -0.111 NA
ATOM     10  N   UNL     1      -1.870   4.562  25.144  0.00  0.00    -0.107 NA
ATOM     11  C   UNL     1      -2.353   3.917  25.322  0.00  0.00    +0.250 A 
ATOM     12  O   UNL     1      -1.867   3.266  25.465  0.00  0.00    -0.420 OA
BRANCH  11  13
ATOM     13  C   UNL     1      -3.177   3.922  25.352  0.00  0.00    +0.055 A 
ATOM     14  C   UNL     1      -3.562   3.976  26.080  0.00  0.00    +0.004 A 
ATOM     15  C   UNL     1      -4.387   3.981  26.111  0.00  0.00    -0.004 A 
ATOM     16  C   UNL     1      -4.825   3.933  25.415  0.00  0.00    -0.022 A 
ATOM     17  C   UNL     1      -5.650   3.938  25.445  0.00  0.00    +0.031 C 
ATOM     18  C   UNL     1      -4.440   3.879  24.687  0.00  0.00    -0.004 A 
ATOM     19  C   UNL     1      -3.616   3.874  24.656  0.00  0.00    +0.004 A 
ENDBRANCH  11  13
ENDBRANCH   7   8
ENDBRANCH   6   7
BRANCH  23  24
ATOM     24  C   UNL     1      -0.562  -0.182  24.736  0.00  0.00    +0.093 C 
BRANCH  24  25
ATOM     25  N   UNL     1      -1.093  -0.672  25.133  0.00  0.00    -0.211 NA
BRANCH  25  26
ATOM     26  C   UNL     1      -1.115  -1.478  24.964  0.00  0.00    +0.134 C 
BRANCH  26  27
ATOM     27  C   UNL     1      -1.841  -1.869  24.906  0.00  0.00    +0.077 A 
ATOM     28  N   UNL     1      -1.954  -2.445  24.327  0.00  0.00    -0.247 NA
ATOM     29  C   UNL     1      -2.679  -2.835  24.269  0.00  0.00    +0.098 A 
ATOM     30  C   UNL     1      -3.291  -2.648  24.791  0.00  0.00    +0.021 A 
ATOM     31  C   UNL     1      -3.176  -2.072  25.370  0.00  0.00    +0.003 A 
ATOM     32  C   UNL     1      -2.452  -1.682  25.427  0.00  0.00    +0.016 A 
ENDBRANCH  26  27
ENDBRANCH  25  26
ENDBRANCH  24  25
ENDBRANCH  23  24
TORSDOF 8
ENDMDL
MODEL 8
REMARK VINA RESULT:     -10.2      1.187      2.041
REMARK  Name = 
REMARK  8 active torsions:
REMARK  status: ('A' for Active; 'I' for Inactive)
REMARK    1  A    between atoms: C_2  and  C_4
REMARK    2  A    between atoms: C_6  and  C_7
REMARK    3  A    between atoms: C_7  and  C_8
REMARK    4  A    between atoms: C_11  and  C_13
REMARK    5  A    between atoms: C_23  and  C_24
REMARK    6  A    between atoms: C_24  and  N_25
REMARK    7  A    between atoms: N_25  and  C_26
REMARK    8  A    between atoms: C_26  and  C_27
REMARK                            x       y       z     vdW  Elec       q    Type
REMARK                         _______ _______ _______ _____ _____    ______ ____
ROOT
ATOM      4  C   UNL     1      -4.628   1.692  24.592  0.00  0.00    +0.006 C 
ATOM      5  C   UNL     1      -4.271   2.428  24.485  0.00  0.00    +0.005 C 
ATOM      6  C   UNL     1      -3.673   2.518  23.925  0.00  0.00    +0.027 C 
ATOM     20  C   UNL     1      -3.431   1.873  23.471  0.00  0.00    -0.048 C 
ATOM     21  C   UNL     1      -2.833   1.963  22.911  0.00  0.00    +0.026 C 
ATOM     22  C   UNL     1      -3.789   1.136  23.578  0.00  0.00    -0.033 C 
ATOM     23  C   UNL     1      -4.387   1.046  24.138  0.00  0.00    +0.039 C 
ENDROOT
BRANCH   4   2
ATOM      1  C   UNL     1      -5.037   1.392  25.928  0.00  0.00    +0.000 C 
ATOM      2  C   UNL     1      -5.227   1.602  25.153  0.00  0.00    +0.000 C 
ATOM      3  C   UNL     1      -6.014   1.721  24.938  0.00  0.00    +0.000 C 
ENDBRANCH   4   2
BRANCH   6   7
ATOM      7  C   UNL     1      -3.316   3.254  23.817  0.00  0.00    +0.091 C 
BRANCH   7   8
ATOM      8  C   UNL     1      -2.742   3.516  24.350  0.00  0.00    +0.227 A 
ATOM      9  N   UNL     1      -2.657   4.287  24.631  0.00  0.00    -0.111 NA
ATOM     10  N   UNL     1      -2.015   4.300  25.149  0.00  0.00    -0.107 NA
ATOM     11  C   UNL     1      -1.703   3.537  25.188  0.00  0.00    +0.250 A 
ATOM     12  O   UNL     1      -2.152   3.052  24.694  0.00  0.00    -0.420 OA
BRANCH  11  13
ATOM     13  C   UNL     1      -1.056   3.300  25.642  0.00  0.00    +0.055 A 
ATOM     14  C   UNL     1      -0.289   3.436  25.368  0.00  0.00    +0.004 A 
ATOM     15  C   UNL     1       0.358   3.199  25.821  0.00  0.00    -0.004 A 
ATOM     16  C   UNL     1       0.239   2.827  26.547  0.00  0.00    -0.022 A 
ATOM     17  C   UNL     1       0.886   2.590  27.001  0.00  0.00    +0.031 C 
ATOM     18  C   UNL     1      -0.528   2.692  26.821  0.00  0.00    -0.004 A 
ATOM     19  C   UNL     1      -1.175   2.929  26.368  0.00  0.00    +0.004 A 
ENDBRANCH  11  13
ENDBRANCH   7   8
ENDBRANCH   6   7
BRANCH  23  24
ATOM     24  C   UNL     1      -4.744   0.311  24.246  0.00  0.00    +0.093 C 
BRANCH  24  25
ATOM     25  N   UNL     1      -4.315  -0.381  24.112  0.00  0.00    -0.211 NA
BRANCH  25  26
ATOM     26  C   UNL     1      -4.666  -1.115  24.241  0.00  0.00    +0.134 C 
BRANCH  26  27
ATOM     27  C   UNL     1      -4.195  -1.782  24.367  0.00  0.00    +0.077 A 
ATOM     28  N   UNL     1      -3.773  -1.862  25.072  0.00  0.00    -0.247 NA
ATOM     29  C   UNL     1      -3.303  -2.527  25.198  0.00  0.00    +0.098 A 
ATOM     30  C   UNL     1      -3.253  -3.113  24.618  0.00  0.00    +0.021 A 
ATOM     31  C   UNL     1      -3.674  -3.033  23.914  0.00  0.00    +0.003 A 
ATOM     32  C   UNL     1      -4.145  -2.367  23.788  0.00  0.00    +0.016 A 
ENDBRANCH  26  27
ENDBRANCH  25  26
ENDBRANCH  24  25
ENDBRANCH  23  24
TORSDOF 8
ENDMDL
MODEL 9
REMARK VINA RESULT:     -10.1      2.261      4.904
REMARK  Name = 
REMARK  8 active torsions:
REMARK  status: ('A' for Active; 'I' for Inactive)
REMARK    1  A    between atoms: C_2  and  C_4
REMARK    2  A    between atoms: C_6  and  C_7
REMARK    3  A    between atoms: C_7  and  C_8
REMARK    4  A    between atoms: C_11  and  C_13
REMARK    5  A    between atoms: C_23  and  C_24
REMARK    6  A    between atoms: C_24  and  N_25
REMARK    7  A    between atoms: N_25  and  C_26
REMARK    8  A    between atoms: C_26  and  C_27
REMARK                            x       y       z     vdW  Elec       q    Type
REMARK                         _______ _______ _______ _____ _____    ______ ____
ROOT
ATOM      4  C   UNL     1      -2.257   3.483  24.839  0.00  0.00    +0.006 C 
ATOM      5  C   UNL     1      -1.601   3.139  24.476  0.00  0.00    +0.005 C 
ATOM      6  C   UNL     1      -1.697   2.689  23.793  0.00  0.00    +0.027 C 
ATOM     20  C   UNL     1      -2.449   2.581  23.471  0.00  0.00    -0.048 C 
ATOM     21  C   UNL     1      -2.545   2.130  22.787  0.00  0.00    +0.026 C 
ATOM     22  C   UNL     1      -3.106   2.926  23.835  0.00  0.00    -0.033 C 
ATOM     23  C   UNL     1      -3.010   3.376  24.518  0.00  0.00    +0.039 C 
ENDROOT
BRANCH   4   2
ATOM      1  C   UNL     1      -2.093   4.755  25.470  0.00  0.00    +0.000 C 
ATOM      2  C   UNL     1      -2.161   3.934  25.524  0.00  0.00    +0.000 C 
ATOM      3  C   UNL     1      -2.132   3.565  26.260  0.00  0.00    +0.000 C 
ENDBRANCH   4   2
BRANCH   6   7
ATOM      7  C   UNL     1      -1.040   2.344  23.430  0.00  0.00    +0.091 C 
BRANCH   7   8
ATOM      8  C   UNL     1      -0.658   1.707  23.788  0.00  0.00    +0.227 A 
ATOM      9  N   UNL     1       0.131   1.688  24.027  0.00  0.00    -0.111 NA
ATOM     10  N   UNL     1       0.280   0.946  24.357  0.00  0.00    -0.107 NA
ATOM     11  C   UNL     1      -0.417   0.507  24.321  0.00  0.00    +0.250 A 
ATOM     12  O   UNL     1      -0.997   0.977  23.970  0.00  0.00    -0.420 OA
BRANCH  11  13
ATOM     13  C   UNL     1      -0.518  -0.267  24.590  0.00  0.00    +0.055 A 
ATOM     14  C   UNL     1      -0.910  -0.408  25.303  0.00  0.00    +0.004 A 
ATOM     15  C   UNL     1      -1.011  -1.181  25.571  0.00  0.00    -0.004 A 
ATOM     16  C   UNL     1      -0.720  -1.813  25.129  0.00  0.00    -0.022 A 
ATOM     17  C   UNL     1      -0.820  -2.586  25.398  0.00  0.00    +0.031 C 
ATOM     18  C   UNL     1      -0.327  -1.672  24.417  0.00  0.00    -0.004 A 
ATOM     19  C   UNL     1      -0.227  -0.898  24.148  0.00  0.00    +0.004 A 
ENDBRANCH  11  13
ENDBRANCH   7   8
ENDBRANCH   6   7
BRANCH  23  24
ATOM     24  C   UNL     1      -3.665   3.720  24.881  0.00  0.00    +0.093 C 
BRANCH  24  25
ATOM     25  N   UNL     1      -4.417   3.400  24.766  0.00  0.00    -0.211 NA
BRANCH  25  26
ATOM     26  C   UNL     1      -5.011   3.535  25.321  0.00  0.00    +0.134 C 
BRANCH  26  27
ATOM     27  C   UNL     1      -5.519   2.921  25.540  0.00  0.00    +0.077 A 
ATOM     28  N   UNL     1      -5.695   2.797  26.336  0.00  0.00    -0.247 NA
ATOM     29  C   UNL     1      -6.201   2.184  26.555  0.00  0.00    +0.098 A 
ATOM     30  C   UNL     1      -6.533   1.695  25.978  0.00  0.00    +0.021 A 
ATOM     31  C   UNL     1      -6.356   1.821  25.182  0.00  0.00    +0.003 A 
ATOM     32  C   UNL     1      -5.849   2.434  24.963  0.00  0.00    +0.016 A 
ENDBRANCH  26  27
ENDBRANCH  25  26
ENDBRANCH  24  25
ENDBRANCH  23  24
TORSDOF 8
ENDMDL
MODEL 10
REMARK VINA RESULT:     -10.0      1.509      5.538
REMARK  Name = 
REMARK  8 active torsions:
REMARK  status: ('A' for Active; 'I' for Inactive)
REMARK    1  A    between atoms: C_2  and  C_4
REMARK    2  A    between atoms: C_6  and  C_7
REMARK    3  A    between atoms: C_7  and  C_8
REMARK    4  A    between atoms: C_11  and  C_13
REMARK    5  A    between atoms: C_23  and  C_24
REMARK    6  A    between atoms: C_24  and  N_25
REMARK    7  A    between atoms: N_25  and  C_26
REMARK    8  A    between atoms: C_26  and  C_27
REMARK                            x       y       z     vdW  Elec       q    Type
REMARK                         _______ _______ _______ _____ _____    ______ ____
ROOT
ATOM      4  C   UNL     1      -4.529   2.148  24.903  0.00  0.00    +0.006 C 
ATOM      5  C   UNL     1      -4.598   1.376  24.621  0.00  0.00    +0.005 C 
ATOM      6  C   UNL     1      -4.138   1.126  23.985  0.00  0.00    +0.027 C 
ATOM     20  C   UNL     1      -3.608   1.648  23.629  0.00  0.00    -0.048 C 
ATOM     21  C   UNL     1      -3.148   1.399  22.991  0.00  0.00    +0.026 C 
ATOM     22  C   UNL     1      -3.539   2.421  23.910  0.00  0.00    -0.033 C 
ATOM     23  C   UNL     1      -3.998   2.671  24.547  0.00  0.00    +0.039 C 
ENDROOT
BRANCH   4   2
ATOM      1  C   UNL     1      -5.732   2.732  25.407  0.00  0.00    +0.000 C 
ATOM      2  C   UNL     1      -4.989   2.398  25.541  0.00  0.00    +0.000 C 
ATOM      3  C   UNL     1      -4.707   2.313  26.311  0.00  0.00    +0.000 C 
ENDBRANCH   4   2
BRANCH   6   7
ATOM      7  C   UNL     1      -4.208   0.353  23.703  0.00  0.00    +0.091 C 
BRANCH   7   8
ATOM      8  C   UNL     1      -3.854  -0.269  24.113  0.00  0.00    +0.227 A 
ATOM      9  N   UNL     1      -4.248  -0.866  24.523  0.00  0.00    -0.111 NA
ATOM     10  N   UNL     1      -3.680  -1.370  24.848  0.00  0.00    -0.107 NA
ATOM     11  C   UNL     1      -2.935  -1.083  24.639  0.00  0.00    +0.250 A 
ATOM     12  O   UNL     1      -3.042  -0.403  24.184  0.00  0.00    -0.420 OA
BRANCH  11  13
ATOM     13  C   UNL     1      -2.211  -1.418  24.847  0.00  0.00    +0.055 A 
ATOM     14  C   UNL     1      -1.981  -2.139  24.519  0.00  0.00    +0.004 A 
ATOM     15  C   UNL     1      -1.256  -2.474  24.728  0.00  0.00    -0.004 A 
ATOM     16  C   UNL     1      -0.763  -2.088  25.264  0.00  0.00    -0.022 A 
ATOM     17  C   UNL     1      -0.038  -2.423  25.472  0.00  0.00    +0.031 C 
ATOM     18  C   UNL     1      -0.993  -1.367  25.592  0.00  0.00    -0.004 A 
ATOM     19  C   UNL     1      -1.717  -1.032  25.383  0.00  0.00    +0.004 A 
ENDBRANCH  11  13
ENDBRANCH   7   8
ENDBRANCH   6   7
BRANCH  23  24
ATOM     24  C   UNL     1      -3.929   3.443  24.829  0.00  0.00    +0.093 C 
BRANCH  24  25
ATOM     25  N   UNL     1      -3.255   3.887  24.657  0.00  0.00    -0.211 NA
BRANCH  25  26
ATOM     26  C   UNL     1      -2.905   4.349  25.243  0.00  0.00    +0.134 C 
BRANCH  26  27
ATOM     27  C   UNL     1      -2.127   4.609  25.154  0.00  0.00    +0.077 A 
ATOM     28  N   UNL     1      -1.501   4.081  25.258  0.00  0.00    -0.247 NA
ATOM     29  C   UNL     1      -0.723   4.341  25.168  0.00  0.00    +0.098 A 
ATOM     30  C   UNL     1      -0.571   5.129  24.975  0.00  0.00    +0.021 A 
ATOM     31  C   UNL     1      -1.197   5.656  24.871  0.00  0.00    +0.003 A 
ATOM     32  C   UNL     1      -1.975   5.396  24.961  0.00  0.00    +0.016 A 
ENDBRANCH  26  27
ENDBRANCH  25  26
ENDBRANCH  24  25
ENDBRANCH  23  24
TORSDOF 8
ENDMDL
