MODEL 1
REMARK VINA RESULT:     -11.1      0.000      0.000
REMARK  Name = 
REMARK  8 active torsions:
REMARK  status: ('A' for Active; 'I' for Inactive)
REMARK    1  A    between atoms: O_2  and  C_3
REMARK    2  A    between atoms: C_3  and  C_4
REMARK    3  A    between atoms: C_4  and  O_5
REMARK    4  A    between atoms: O_5  and  C_6
REMARK    5  A    between atoms: C_7  and  C_12
REMARK    6  A    between atoms: C_15  and  C_17
REMARK    7  A    between atoms: N_21  and  C_22
REMARK    8  A    between atoms: C_22  and  C_23
REMARK                            x       y       z     vdW  Elec       q    Type
REMARK                         _______ _______ _______ _____ _____    ______ ____
ROOT
ATOM     12  C   UNL     1      -2.822   3.110  24.522  0.00  0.00    +0.208 A 
ATOM     13  N   UNL     1      -3.142   3.057  23.762  0.00  0.00    -0.056 NA
ATOM     14  O   UNL     1      -3.791   2.548  23.794  0.00  0.00    -0.336 OA
ATOM     15  C   UNL     1      -3.872   2.286  24.572  0.00  0.00    +0.251 A 
ATOM     16  N   UNL     1      -3.273   2.633  25.021  0.00  0.00    -0.189 NA
ENDROOT
BRANCH  12   7
ATOM      6  C   UNL     1      -1.407   3.244  24.669  0.00  0.00    +0.228 A 
ATOM      7  C   UNL     1      -2.166   3.559  24.741  0.00  0.00    +0.092 A 
ATOM      8  C   UNL     1      -2.269   4.323  25.033  0.00  0.00    +0.009 A 
ATOM      9  C   UNL     1      -1.614   4.773  25.253  0.00  0.00    +0.021 A 
ATOM     10  C   UNL     1      -0.854   4.459  25.181  0.00  0.00    +0.102 A 
ATOM     11  N   UNL     1      -0.751   3.694  24.888  0.00  0.00    -0.210 NA
BRANCH   6   5
ATOM      5  O   UNL     1      -1.304   2.480  24.377  0.00  0.00    -0.457 OA
BRANCH   5   4
ATOM      4  C   UNL     1      -0.565   2.114  24.428  0.00  0.00    +0.239 C 
BRANCH   4   3
ATOM      3  C   UNL     1      -0.409   1.436  23.986  0.00  0.00    +0.189 C 
BRANCH   3   2
ATOM      1  C   UNL     1      -0.044   0.056  23.924  0.00  0.00    +0.174 C 
ATOM      2  O   UNL     1      -0.193   0.736  24.365  0.00  0.00    -0.347 OA
ENDBRANCH   3   2
ENDBRANCH   4   3
ENDBRANCH   5   4
ENDBRANCH   6   5
ENDBRANCH  12   7
BRANCH  15  17
ATOM     17  C   UNL     1      -4.449   1.768  24.852  0.00  0.00    +0.138 C 
ATOM     18  C   UNL     1      -5.150   1.983  25.232  0.00  0.00    +0.027 C 
ATOM     19  C   UNL     1      -5.562   1.292  25.416  0.00  0.00    +0.019 C 
ATOM     20  C   UNL     1      -5.117   0.651  25.149  0.00  0.00    +0.073 C 
ATOM     21  N   UNL     1      -4.429   0.945  24.800  0.00  0.00    -0.266 NA
BRANCH  21  22
ATOM     22  C   UNL     1      -3.828   0.495  24.460  0.00  0.00    +0.072 C 
BRANCH  22  23
ATOM     23  C   UNL     1      -3.814  -0.322  24.565  0.00  0.00    +0.016 C 
ATOM     24  C   UNL     1      -4.128  -0.819  23.985  0.00  0.00    +0.001 C 
ATOM     25  C   UNL     1      -4.114  -1.636  24.091  0.00  0.00    +0.000 C 
ATOM     26  C   UNL     1      -3.787  -1.959  24.776  0.00  0.00    +0.000 C 
ATOM     27  C   UNL     1      -3.472  -1.463  25.356  0.00  0.00    +0.000 C 
ATOM     28  C   UNL     1      -3.486  -0.645  25.250  0.00  0.00    +0.001 C 
ENDBRANCH  22  23
ENDBRANCH  21  22
ENDBRANCH  15  17
TORSDOF 8
ENDMDL
MODEL 2
REMARK VINA RESULT:     -10.6      1.403      2.885
REMARK  Name = 
REMARK  8 active torsions:
REMARK  status: ('A' for Active; 'I' for Inactive)
REMARK    1  A    between atoms: O_2  and  C_3
REMARK    2  A    between atoms: C_3  and  C_4
REMARK    3  A    between atoms: C_4  and  O_5
REMARK    4  A    between atoms: O_5  and  C_6
REMARK    5  A    between atoms: C_7  and  C_12
REMARK    6  A    between atoms: C_15  and  C_17
REMARK    7  A    between atoms: N_21  and  C_22
REMARK    8  A    between atoms: C_22  and  C_23
REMARK                            x       y       z     vdW  Elec       q    Type
REMARK                         _______ _______ _______ _____ _____    ______ ____
ROOT
ATOM     12  C   UNL     1      -3.742   2.079  24.527  0.00  0.00    +0.208 A 
ATOM     13  N   UNL     1      -3.597   2.049  23.715  0.00  0.00    -0.056 NA
ATOM     14  O   UNL     1      -3.060   1.438  23.574  0.00  0.00    -0.336 OA
ATOM     15  C   UNL     1      -2.873   1.091  24.299  0.00  0.00    +0.251 A 
ATOM     16  N   UNL     1      -3.294   1.487  24.887  0.00  0.00    -0.189 NA
ENDROOT
BRANCH  12   7
ATOM      6  C   UNL     1      -3.944   3.309  25.225  0.00  0.00    +0.228 A 
ATOM      7  C   UNL     1      -4.245   2.608  24.910  0.00  0.00    +0.092 A 
ATOM      8  C   UNL     1      -5.049   2.436  24.979  0.00  0.00    +0.009 A 
ATOM      9  C   UNL     1      -5.552   2.965  25.362  0.00  0.00    +0.021 A 
ATOM     10  C   UNL     1      -5.253   3.666  25.677  0.00  0.00    +0.102 A 
ATOM     11  N   UNL     1      -4.448   3.838  25.609  0.00  0.00    -0.210 NA
BRANCH   6   5
ATOM      5  O   UNL     1      -3.141   3.480  25.157  0.00  0.00    -0.457 OA
BRANCH   5   4
ATOM      4  C   UNL     1      -2.848   4.201  25.432  0.00  0.00    +0.239 C 
BRANCH   4   3
ATOM      3  C   UNL     1      -2.034   4.314  25.507  0.00  0.00    +0.189 C 
BRANCH   3   2
ATOM      1  C   UNL     1      -0.921   5.024  24.962  0.00  0.00    +0.174 C 
ATOM      2  O   UNL     1      -1.690   5.021  25.257  0.00  0.00    -0.347 OA
ENDBRANCH   3   2
ENDBRANCH   4   3
ENDBRANCH   5   4
ENDBRANCH   6   5
ENDBRANCH  12   7
BRANCH  15  17
ATOM     17  C   UNL     1      -2.355   0.459  24.415  0.00  0.00    +0.138 C 
ATOM     18  C   UNL     1      -1.532   0.493  24.372  0.00  0.00    +0.027 C 
ATOM     19  C   UNL     1      -1.238  -0.263  24.525  0.00  0.00    +0.019 C 
ATOM     20  C   UNL     1      -1.879  -0.763  24.662  0.00  0.00    +0.073 C 
ATOM     21  N   UNL     1      -2.570  -0.317  24.594  0.00  0.00    -0.266 NA
BRANCH  21  22
ATOM     22  C   UNL     1      -3.340  -0.598  24.689  0.00  0.00    +0.072 C 
BRANCH  22  23
ATOM     23  C   UNL     1      -3.501  -1.400  24.592  0.00  0.00    +0.016 C 
ATOM     24  C   UNL     1      -3.862  -1.668  23.899  0.00  0.00    +0.001 C 
ATOM     25  C   UNL     1      -4.023  -2.471  23.802  0.00  0.00    +0.000 C 
ATOM     26  C   UNL     1      -3.824  -3.007  24.396  0.00  0.00    +0.000 C 
ATOM     27  C   UNL     1      -3.464  -2.740  25.089  0.00  0.00    +0.000 C 
ATOM     28  C   UNL     1      -3.302  -1.936  25.186  0.00  0.00    +0.001 C 
ENDBRANCH  22  23
ENDBRANCH  21  22
ENDBRANCH  15  17
TORSDOF 8
ENDMDL
MODEL 3
REMARK VINA RESULT:     -10.5      1.213      2.906
REMARK  Name = 
REMARK  8 active torsions:
REMARK  status: ('A' for Active; 'I' for Inactive)
REMARK    1  A    between atoms: O_2  and  C_3
REMARK    2  A    between atoms: C_3  and  C_4
REMARK    3  A    between atoms: C_4  and  O_5
REMARK    4  A    between atoms: O_5  and  C_6
REMARK    5  A    between atoms: C_7  and  C_12
REMARK    6  A    between atoms: C_15  and  C_17
REMARK    7  A    between atoms: N_21  and  C_22
REMARK    8  A    between atoms: C_22  and  C_23
REMARK                            x       y       z     vdW  Elec       q    Type
REMARK                         _______ _______ _______ _____ _____    ______ ____
ROOT
ATOM     12  C   UNL     1      -1.572   2.502  24.331  0.00  0.00    +0.208 A 
ATOM     13  N   UNL     1      -1.770   2.309  23.553  0.00  0.00    -0.056 NA
ATOM     14  O   UNL     1      -1.630   1.502  23.448  0.00  0.00    -0.336 OA
ATOM     15  C   UNL     1      -1.347   1.197  24.161  0.00  0.00    +0.251 A 
ATOM     16  N   UNL     1      -1.310   1.816  24.706  0.00  0.00    -0.189 NA
ENDROOT
BRANCH  12   7
ATOM      6  C   UNL     1      -2.355   3.530  24.941  0.00  0.00    +0.228 A 
ATOM      7  C   UNL     1      -1.626   3.251  24.673  0.00  0.00    +0.092 A 
ATOM      8  C   UNL     1      -0.952   3.720  24.747  0.00  0.00    +0.009 A 
ATOM      9  C   UNL     1      -1.006   4.469  25.089  0.00  0.00    +0.021 A 
ATOM     10  C   UNL     1      -1.734   4.749  25.357  0.00  0.00    +0.102 A 
ATOM     11  N   UNL     1      -2.409   4.279  25.282  0.00  0.00    -0.210 NA
BRANCH   6   5
ATOM      5  O   UNL     1      -3.029   3.062  24.867  0.00  0.00    -0.457 OA
BRANCH   5   4
ATOM      4  C   UNL     1      -3.739   3.301  25.212  0.00  0.00    +0.239 C 
BRANCH   4   3
ATOM      3  C   UNL     1      -4.447   2.939  24.995  0.00  0.00    +0.189 C 
BRANCH   3   2
ATOM      1  C   UNL     1      -5.662   2.280  25.356  0.00  0.00    +0.174 C 
ATOM      2  O   UNL     1      -4.954   2.641  25.573  0.00  0.00    -0.347 OA
ENDBRANCH   3   2
ENDBRANCH   4   3
ENDBRANCH   5   4
ENDBRANCH   6   5
ENDBRANCH  12   7
BRANCH  15  17
ATOM     17  C   UNL     1      -1.136   0.413  24.303  0.00  0.00    +0.138 C 
ATOM     18  C   UNL     1      -0.375   0.098  24.250  0.00  0.00    +0.027 C 
ATOM     19  C   UNL     1      -0.418  -0.705  24.438  0.00  0.00    +0.019 C 
ATOM     20  C   UNL     1      -1.205  -0.886  24.606  0.00  0.00    +0.073 C 
ATOM     21  N   UNL     1      -1.649  -0.195  24.523  0.00  0.00    -0.266 NA
BRANCH  21  22
ATOM     22  C   UNL     1      -2.462  -0.125  24.639  0.00  0.00    +0.072 C 
BRANCH  22  23
ATOM     23  C   UNL     1      -2.926  -0.801  24.727  0.00  0.00    +0.016 C 
ATOM     24  C   UNL     1      -3.315  -1.122  24.073  0.00  0.00    +0.001 C 
ATOM     25  C   UNL     1      -3.779  -1.797  24.160  0.00  0.00    +0.000 C 
ATOM     26  C   UNL     1      -3.855  -2.153  24.900  0.00  0.00    +0.000 C 
ATOM     27  C   UNL     1      -3.467  -1.833  25.554  0.00  0.00    +0.000 C 
ATOM     28  C   UNL     1      -3.002  -1.157  25.467  0.00  0.00    +0.001 C 
ENDBRANCH  22  23
ENDBRANCH  21  22
ENDBRANCH  15  17
TORSDOF 8
ENDMDL
MODEL 4
REMARK VINA RESULT:     -10.3      1.205      4.081
REMARK  Name = 
REMARK  8 active torsions:
REMARK  status: ('A' for Active; 'I' for Inactive)
REMARK    1  A    between atoms: O_2  and  C_3
REMARK    2  A    between atoms: C_3  and  C_4
REMARK    3  A    between atoms: C_4  and  O_5
REMARK    4  A    between atoms: O_5  and  C_6
REMARK    5  A    between atoms: C_7  and  C_12
REMARK    6  A    between atoms: C_15  and  C_17
REMARK    7  A    between atoms: N_21  and  C_22
REMARK    8  A    between atoms: C_22  and  C_23
REMARK                            x       y       z     vdW  Elec       q    Type
REMARK                         _______ _______ _______ _____ _____    ______ ____
ROOT
ATOM     12  C   UNL     1      -3.642  -0.271  24.342  0.00  0.00    +0.208 A 
ATOM     13  N   UNL     1      -3.696   0.102  23.607  0.00  0.00    -0.056 NA
ATOM     14  O   UNL     1      -3.976   0.868  23.730  0.00  0.00    -0.336 OA
ATOM     15  C   UNL     1      -4.096   0.969  24.540  0.00  0.00    +0.251 A 
ATOM     16  N   UNL     1      -3.889   0.265  24.918  0.00  0.00    -0.189 NA
ENDROOT
BRANCH  12   7
ATOM      6  C   UNL     1      -2.582  -1.200  24.572  0.00  0.00    +0.228 A 
ATOM      7  C   UNL     1      -3.386  -1.044  24.476  0.00  0.00    +0.092 A 
ATOM      8  C   UNL     1      -3.934  -1.658  24.514  0.00  0.00    +0.009 A 
ATOM      9  C   UNL     1      -3.678  -2.431  24.648  0.00  0.00    +0.021 A 
ATOM     10  C   UNL     1      -2.874  -2.589  24.744  0.00  0.00    +0.102 A 
ATOM     11  N   UNL     1      -2.326  -1.973  24.706  0.00  0.00    -0.210 NA
BRANCH   6   5
ATOM      5  O   UNL     1      -2.034  -0.586  24.534  0.00  0.00    -0.457 OA
BRANCH   5   4
ATOM      4  C   UNL     1      -1.226  -0.752  24.538  0.00  0.00    +0.239 C 
BRANCH   4   3
ATOM      3  C   UNL     1      -0.679  -0.140  24.619  0.00  0.00    +0.189 C 
BRANCH   3   2
ATOM      1  C   UNL     1       0.227   0.769  23.989  0.00  0.00    +0.174 C 
ATOM      2  O   UNL     1      -0.175   0.049  23.993  0.00  0.00    -0.347 OA
ENDBRANCH   3   2
ENDBRANCH   4   3
ENDBRANCH   5   4
ENDBRANCH   6   5
ENDBRANCH  12   7
BRANCH  15  17
ATOM     17  C   UNL     1      -4.373   1.653  24.908  0.00  0.00    +0.138 C 
ATOM     18  C   UNL     1      -5.115   1.750  25.256  0.00  0.00    +0.027 C 
ATOM     19  C   UNL     1      -5.157   2.518  25.556  0.00  0.00    +0.019 C 
ATOM     20  C   UNL     1      -4.442   2.895  25.393  0.00  0.00    +0.073 C 
ATOM     21  N   UNL     1      -3.957   2.361  24.993  0.00  0.00    -0.266 NA
BRANCH  21  22
ATOM     22  C   UNL     1      -3.191   2.508  24.725  0.00  0.00    +0.072 C 
BRANCH  22  23
ATOM     23  C   UNL     1      -2.769   3.154  25.016  0.00  0.00    +0.016 C 
ATOM     24  C   UNL     1      -2.863   3.898  24.671  0.00  0.00    +0.001 C 
ATOM     25  C   UNL     1      -2.441   4.544  24.962  0.00  0.00    +0.000 C 
ATOM     26  C   UNL     1      -1.926   4.448  25.598  0.00  0.00    +0.000 C 
ATOM     27  C   UNL     1      -1.832   3.705  25.944  0.00  0.00    +0.000 C 
ATOM     28  C   UNL     1      -2.254   3.058  25.653  0.00  0.00    +0.001 C 
ENDBRANCH  22  23
ENDBRANCH  21  22
ENDBRANCH  15  17
TORSDOF 8
ENDMDL
MODEL 5
REMARK VINA RESULT:     -10.0      1.410      5.035
REMARK  Name = 
REMARK  8 active torsions:
REMARK  status: ('A' for Active; 'I' for Inactive)
REMARK    1  A    between atoms: O_2  and  C_3
REMARK    2  A    between atoms: C_3  and  C_4
REMARK    3  A    between atoms: C_4  and  O_5
REMARK    4  A    between atoms: O_5  and  C_6
REMARK    5  A    between atoms: C_7  and  C_12
REMARK    6  A    between atoms: C_15  and  C_17
REMARK    7  A    between atoms: N_21  and  C_22
REMARK    8  A    between atoms: C_22  and  C_23
REMARK                            x       y       z     vdW  Elec       q    Type
REMARK                         _______ _______ _______ _____ _____    ______ ____
ROOT
ATOM     12  C   UNL     1      -2.046   0.128  24.784  0.00  0.00    +0.208 A 
ATOM     13  N   UNL     1      -1.732   0.408  24.074  0.00  0.00    -0.056 NA
ATOM     14  O   UNL     1      -1.216   1.028  24.251  0.00  0.00    -0.336 OA
ATOM     15  C   UNL     1      -1.211   1.129  25.070  0.00  0.00    +0.251 A 
ATOM     16  N   UNL     1      -1.724   0.573  25.399  0.00  0.00    -0.189 NA
ENDROOT
BRANCH  12   7
ATOM      6  C   UNL     1      -3.395  -0.328  24.904  0.00  0.00    +0.228 A 
ATOM      7  C   UNL     1      -2.587  -0.490  24.865  0.00  0.00    +0.092 A 
ATOM      8  C   UNL     1      -2.320  -1.269  24.905  0.00  0.00    +0.009 A 
ATOM      9  C   UNL     1      -2.861  -1.887  24.985  0.00  0.00    +0.021 A 
ATOM     10  C   UNL     1      -3.669  -1.726  25.025  0.00  0.00    +0.102 A 
ATOM     11  N   UNL     1      -3.936  -0.945  24.984  0.00  0.00    -0.210 NA
BRANCH   6   5
ATOM      5  O   UNL     1      -3.662   0.451  24.864  0.00  0.00    -0.457 OA
BRANCH   5   4
ATOM      4  C   UNL     1      -4.459   0.622  24.993  0.00  0.00    +0.239 C 
BRANCH   4   3
ATOM      3  C   UNL     1      -4.749   1.378  24.839  0.00  0.00    +0.189 C 
BRANCH   3   2
ATOM      1  C   UNL     1      -5.643   2.440  25.179  0.00  0.00    +0.174 C 
ATOM      2  O   UNL     1      -5.238   1.753  25.388  0.00  0.00    -0.347 OA
ENDBRANCH   3   2
ENDBRANCH   4   3
ENDBRANCH   5   4
ENDBRANCH   6   5
ENDBRANCH  12   7
BRANCH  15  17
ATOM     17  C   UNL     1      -0.770   1.689  25.486  0.00  0.00    +0.138 C 
ATOM     18  C   UNL     1      -0.178   1.527  26.038  0.00  0.00    +0.027 C 
ATOM     19  C   UNL     1       0.114   2.246  26.317  0.00  0.00    +0.019 C 
ATOM     20  C   UNL     1      -0.297   2.852  25.938  0.00  0.00    +0.073 C 
ATOM     21  N   UNL     1      -0.844   2.508  25.424  0.00  0.00    -0.266 NA
BRANCH  21  22
ATOM     22  C   UNL     1      -1.370   2.912  24.935  0.00  0.00    +0.072 C 
BRANCH  22  23
ATOM     23  C   UNL     1      -1.498   3.719  25.044  0.00  0.00    +0.016 C 
ATOM     24  C   UNL     1      -2.163   3.979  25.459  0.00  0.00    +0.001 C 
ATOM     25  C   UNL     1      -2.291   4.786  25.568  0.00  0.00    +0.000 C 
ATOM     26  C   UNL     1      -1.756   5.334  25.263  0.00  0.00    +0.000 C 
ATOM     27  C   UNL     1      -1.092   5.075  24.848  0.00  0.00    +0.000 C 
ATOM     28  C   UNL     1      -0.963   4.267  24.739  0.00  0.00    +0.001 C 
ENDBRANCH  22  23
ENDBRANCH  21  22
ENDBRANCH  15  17
TORSDOF 8
ENDMDL
MODEL 6
REMARK VINA RESULT:      -9.5      1.958      3.653
REMARK  Name = 
REMARK  8 active torsions:
REMARK  status: ('A' for Active; 'I' for Inactive)
REMARK    1  A    between atoms: O_2  and  C_3
REMARK    2  A    between atoms: C_3  and  C_4
REMARK    3  A    between atoms: C_4  and  O_5
REMARK    4  A    between atoms: O_5  and  C_6
REMARK    5  A    between atoms: C_7  and  C_12
REMARK    6  A    between atoms: C_15  and  C_17
REMARK    7  A    between atoms: N_21  and  C_22
REMARK    8  A    between atoms: C_22  and  C_23
REMARK                            x       y       z     vdW  Elec       q    Type
REMARK                         _______ _______ _______ _____ _____    ______ ____
ROOT
ATOM     12  C   UNL     1      -1.411   0.594  24.820  0.00  0.00    +0.208 A 
ATOM     13  N   UNL     1      -1.092   1.300  25.104  0.00  0.00    -0.056 NA
ATOM     14  O   UNL     1      -1.534   1.924  24.791  0.00  0.00    -0.336 OA
ATOM     15  C   UNL     1      -2.126   1.602  24.314  0.00  0.00    +0.251 A 
ATOM     16  N   UNL     1      -2.050   0.781  24.332  0.00  0.00    -0.189 NA
ENDROOT
BRANCH  12   7
ATOM      6  C   UNL     1      -0.501  -0.480  24.575  0.00  0.00    +0.228 A 
ATOM      7  C   UNL     1      -1.139  -0.165  24.993  0.00  0.00    +0.092 A 
ATOM      8  C   UNL     1      -1.505  -0.609  25.584  0.00  0.00    +0.009 A 
ATOM      9  C   UNL     1      -1.233  -1.368  25.758  0.00  0.00    +0.021 A 
ATOM     10  C   UNL     1      -0.595  -1.684  25.341  0.00  0.00    +0.102 A 
ATOM     11  N   UNL     1      -0.229  -1.239  24.749  0.00  0.00    -0.210 NA
BRANCH   6   5
ATOM      5  O   UNL     1      -0.135  -0.036  23.985  0.00  0.00    -0.457 OA
BRANCH   5   4
ATOM      4  C   UNL     1       0.463  -0.372  23.526  0.00  0.00    +0.239 C 
BRANCH   4   3
ATOM      3  C   UNL     1       0.960   0.110  23.079  0.00  0.00    +0.189 C 
BRANCH   3   2
ATOM      1  C   UNL     1       2.227   0.118  22.418  0.00  0.00    +0.174 C 
ATOM      2  O   UNL     1       1.488  -0.227  22.542  0.00  0.00    -0.347 OA
ENDBRANCH   3   2
ENDBRANCH   4   3
ENDBRANCH   5   4
ENDBRANCH   6   5
ENDBRANCH  12   7
BRANCH  15  17
ATOM     17  C   UNL     1      -2.693   2.027  23.893  0.00  0.00    +0.138 C 
ATOM     18  C   UNL     1      -2.643   2.250  23.100  0.00  0.00    +0.027 C 
ATOM     19  C   UNL     1      -3.330   2.665  22.908  0.00  0.00    +0.019 C 
ATOM     20  C   UNL     1      -3.805   2.699  23.582  0.00  0.00    +0.073 C 
ATOM     21  N   UNL     1      -3.411   2.305  24.191  0.00  0.00    -0.266 NA
BRANCH  21  22
ATOM     22  C   UNL     1      -3.687   2.206  24.962  0.00  0.00    +0.072 C 
BRANCH  22  23
ATOM     23  C   UNL     1      -4.474   2.372  25.143  0.00  0.00    +0.016 C 
ATOM     24  C   UNL     1      -4.686   3.121  25.418  0.00  0.00    +0.001 C 
ATOM     25  C   UNL     1      -5.473   3.286  25.598  0.00  0.00    +0.000 C 
ATOM     26  C   UNL     1      -6.050   2.704  25.505  0.00  0.00    +0.000 C 
ATOM     27  C   UNL     1      -5.839   1.955  25.230  0.00  0.00    +0.000 C 
ATOM     28  C   UNL     1      -5.051   1.789  25.049  0.00  0.00    +0.001 C 
ENDBRANCH  22  23
ENDBRANCH  21  22
ENDBRANCH  15  17
TORSDOF 8
ENDMDL
MODEL 7
REMARK VINA RESULT:      -9.4      1.249      3.652
REMARK  Name = 
REMARK  8 active torsions:
REMARK  status: ('A' for Active; 'I' for Inactive)
REMARK    1  A    between atoms: O_2  and  C_3
REMARK    2  A    between atoms: C_3  and  C_4
REMARK    3  A    between atoms: C_4  and  O_5
REMARK    4  A    between atoms: O_5  and  C_6
REMARK    5  A    between atoms: C_7  and  C_12
REMARK    6  A    between atoms: C_15  and  C_17
REMARK    7  A    between atoms: N_21  and  C_22
REMARK    8  A    between atoms: C_22  and  C_23
REMARK                            x       y       z     vdW  Elec       q    Type
REMARK                         _______ _______ _______ _____ _____    ______ ____
ROOT
ATOM     12  C   UNL     1      -3.502   2.672  24.842  0.00  0.00    +0.208 A 
ATOM     13  N   UNL     1      -3.214   2.945  24.119  0.00  0.00    -0.056 NA
ATOM     14  O   UNL     1      -2.391   2.882  24.133  0.00  0.00    -0.336 OA
ATOM     15  C   UNL     1      -2.171   2.570  24.864  0.00  0.00    +0.251 A 
ATOM     16  N   UNL     1      -2.859   2.440  25.303  0.00  0.00    -0.189 NA
ENDROOT
BRANCH  12   7
ATOM      6  C   UNL     1      -4.718   1.933  24.976  0.00  0.00    +0.228 A 
ATOM      7  C   UNL     1      -4.296   2.637  25.065  0.00  0.00    +0.092 A 
ATOM      8  C   UNL     1      -4.667   3.304  25.376  0.00  0.00    +0.009 A 
ATOM      9  C   UNL     1      -5.460   3.269  25.599  0.00  0.00    +0.021 A 
ATOM     10  C   UNL     1      -5.883   2.566  25.511  0.00  0.00    +0.102 A 
ATOM     11  N   UNL     1      -5.512   1.898  25.199  0.00  0.00    -0.210 NA
BRANCH   6   5
ATOM      5  O   UNL     1      -4.347   1.265  24.665  0.00  0.00    -0.457 OA
BRANCH   5   4
ATOM      4  C   UNL     1      -4.718   0.529  24.708  0.00  0.00    +0.239 C 
BRANCH   4   3
ATOM      3  C   UNL     1      -4.444  -0.098  24.249  0.00  0.00    +0.189 C 
BRANCH   3   2
ATOM      1  C   UNL     1      -4.225  -1.503  24.104  0.00  0.00    +0.174 C 
ATOM      2  O   UNL     1      -4.345  -0.845  24.586  0.00  0.00    -0.347 OA
ENDBRANCH   3   2
ENDBRANCH   4   3
ENDBRANCH   5   4
ENDBRANCH   6   5
ENDBRANCH  12   7
BRANCH  15  17
ATOM     17  C   UNL     1      -1.401   2.415  25.114  0.00  0.00    +0.138 C 
ATOM     18  C   UNL     1      -0.956   2.880  25.632  0.00  0.00    +0.027 C 
ATOM     19  C   UNL     1      -0.220   2.520  25.728  0.00  0.00    +0.019 C 
ATOM     20  C   UNL     1      -0.209   1.834  25.271  0.00  0.00    +0.073 C 
ATOM     21  N   UNL     1      -0.939   1.769  24.891  0.00  0.00    -0.266 NA
BRANCH  21  22
ATOM     22  C   UNL     1      -1.166   1.164  24.379  0.00  0.00    +0.072 C 
BRANCH  22  23
ATOM     23  C   UNL     1      -0.787   0.433  24.410  0.00  0.00    +0.016 C 
ATOM     24  C   UNL     1      -0.220   0.238  23.843  0.00  0.00    +0.001 C 
ATOM     25  C   UNL     1       0.160  -0.493  23.873  0.00  0.00    +0.000 C 
ATOM     26  C   UNL     1      -0.028  -1.031  24.471  0.00  0.00    +0.000 C 
ATOM     27  C   UNL     1      -0.595  -0.837  25.038  0.00  0.00    +0.000 C 
ATOM     28  C   UNL     1      -0.974  -0.104  25.007  0.00  0.00    +0.001 C 
ENDBRANCH  22  23
ENDBRANCH  21  22
ENDBRANCH  15  17
TORSDOF 8
ENDMDL
