REMARK  Name = 
REMARK  2 active torsions:
REMARK  status: ('A' for Active; 'I' for Inactive)
REMARK    1  A    between atoms: C_3  and  C_4
REMARK    2  A    between atoms: C_4  and  N_5
REMARK                            x       y       z     vdW  Elec       q    Type
REMARK                         _______ _______ _______ _____ _____    ______ ____
ROOT
ATOM      4  C   UNL     1       3.033  -1.885   0.000  0.00  0.00    +0.103 C 
ENDROOT
BRANCH   4   5
ATOM      5  N   UNL     1       3.646  -2.437   0.000  0.00  0.00    -0.264 NA
ATOM      6  C   UNL     1       4.409  -2.124   0.000  0.00  0.00    +0.105 C 
ATOM      7  C   UNL     1       5.130  -2.526   0.000  0.00  0.00    +0.160 C 
ATOM      8  O   UNL     1       5.265  -3.340   0.000  0.00  0.00    -0.350 OA
ATOM      9  C   UNL     1       4.713  -3.953   0.000  0.00  0.00    +0.176 C 
ATOM     10  C   UNL     1       3.889  -3.904   0.000  0.00  0.00    +0.197 C 
ATOM     11  O   UNL     1       3.488  -4.625   0.000  0.00  0.00    -0.219 OA
ATOM     12  C   UNL     1       3.414  -3.229   0.000  0.00  0.00    +0.108 C 
ENDBRANCH   4   5
BRANCH   4   3
ATOM      1  C   UNL     1       1.581  -0.830   0.000  0.00  0.00    +0.075 C 
ATOM      2  C   UNL     1       1.581  -1.655   0.000  0.00  0.00    +0.152 A 
ATOM      3  C   UNL     1       2.248  -2.140   0.000  0.00  0.00    +0.043 A 
ATOM     13  C   UNL     1       1.993  -2.925   0.000  0.00  0.00    +0.098 A 
ATOM     14  C   UNL     1       2.478  -3.592   0.000  0.00  0.00    +0.055 C 
ATOM     15  N   UNL     1       1.168  -2.925   0.000  0.00  0.00    -0.082 NA
ATOM     16  O   UNL     1       0.913  -2.140   0.000  0.00  0.00    -0.358 OA
ENDBRANCH   4   3
TORSDOF 2
