REMARK  Name = 
REMARK  8 active torsions:
REMARK  status: ('A' for Active; 'I' for Inactive)
REMARK    1  A    between atoms: C_3  and  C_4
REMARK    2  A    between atoms: C_4  and  N_5
REMARK    3  A    between atoms: C_9  and  C_22
REMARK    4  A    between atoms: C_11  and  C_12
REMARK    5  A    between atoms: C_12  and  C_13
REMARK    6  A    between atoms: N_24  and  C_25
REMARK    7  A    between atoms: C_25  and  C_26
REMARK    8  A    between atoms: C_26  and  N_27
REMARK                            x       y       z     vdW  Elec       q    Type
REMARK                         _______ _______ _______ _____ _____    ______ ____
ROOT
ATOM      5  N   UNL     1      -3.390   5.381   0.000  0.00  0.00    -0.315 N 
ATOM      6  C   UNL     1      -2.657   5.001   0.000  0.00  0.00    +0.072 A 
ATOM      7  C   UNL     1      -2.792   4.187   0.000  0.00  0.00    -0.002 A 
ATOM      8  C   UNL     1      -2.188   3.626   0.000  0.00  0.00    +0.055 C 
ATOM      9  C   UNL     1      -2.249   2.804   0.000  0.00  0.00    +0.155 C 
ATOM     10  N   UNL     1      -2.931   2.339   0.000  0.00  0.00    -0.207 NA
ATOM     11  C   UNL     1      -3.719   2.582   0.000  0.00  0.00    +0.095 C 
ATOM     16  C   UNL     1      -4.021   3.350   0.000  0.00  0.00    -0.005 A 
ATOM     17  C   UNL     1      -4.886   3.425   0.000  0.00  0.00    -0.003 A 
ATOM     18  C   UNL     1      -5.255   4.163   0.000  0.00  0.00    +0.001 A 
ATOM     19  C   UNL     1      -4.801   4.852   0.000  0.00  0.00    +0.017 A 
ATOM     20  C   UNL     1      -3.977   4.802   0.000  0.00  0.00    +0.060 A 
ATOM     21  C   UNL     1      -3.608   4.064   0.000  0.00  0.00    +0.011 A 
ENDROOT
BRANCH   9  22
ATOM     22  C   UNL     1      -1.535   2.391   0.000  0.00  0.00    +0.258 C 
ATOM     23  O   UNL     1      -1.535   1.566   0.000  0.00  0.00    -0.272 OA
ATOM     24  N   UNL     1      -0.820   2.804   0.000  0.00  0.00    -0.203 NA
BRANCH  24  25
ATOM     25  C   UNL     1      -0.106   2.391   0.000  0.00  0.00    +0.132 C 
BRANCH  25  26
ATOM     26  C   UNL     1       0.609   2.804   0.000  0.00  0.00    +0.096 C 
BRANCH  26  27
ATOM     27  N   UNL     1       1.323   2.391   0.000  0.00  0.00    -0.269 NA
ATOM     28  C   UNL     1       2.038   2.804   0.000  0.00  0.00    +0.090 C 
ATOM     29  C   UNL     1       1.323   1.566   0.000  0.00  0.00    +0.090 C 
ENDBRANCH  26  27
ENDBRANCH  25  26
ENDBRANCH  24  25
ENDBRANCH   9  22
BRANCH   5   4
ATOM      4  C   UNL     1      -3.513   6.197   0.000  0.00  0.00    +0.183 C 
BRANCH   4   3
ATOM      1  C   UNL     1      -5.816   7.101   0.000  0.00  0.00    +0.090 C 
ATOM      2  C   UNL     1      -5.048   6.800   0.000  0.00  0.00    -0.088 C 
ATOM      3  C   UNL     1      -4.280   6.498   0.000  0.00  0.00    -0.066 C 
ENDBRANCH   4   3
ENDBRANCH   5   4
BRANCH  11  12
ATOM     12  C   UNL     1      -4.280   1.977   0.000  0.00  0.00    +0.022 C 
BRANCH  12  13
ATOM     13  C   UNL     1      -4.037   1.189   0.000  0.00  0.00    +0.002 C 
ATOM     14  C   UNL     1      -3.233   1.005   0.000  0.00  0.00    +0.000 C 
ATOM     15  C   UNL     1      -4.598   0.584   0.000  0.00  0.00    +0.000 C 
ENDBRANCH  12  13
ENDBRANCH  11  12
TORSDOF 8
