MODEL 1
REMARK VINA RESULT:     -10.8      0.000      0.000
REMARK  Name = 
REMARK  5 active torsions:
REMARK  status: ('A' for Active; 'I' for Inactive)
REMARK    1  A    between atoms: C_2  and  C_3
REMARK    2  A    between atoms: C_3  and  N_4
REMARK    3  A    between atoms: C_5  and  C_7
REMARK    4  A    between atoms: C_18  and  C_19
REMARK    5  A    between atoms: C_19  and  C_20
REMARK                            x       y       z     vdW  Elec       q    Type
REMARK                         _______ _______ _______ _____ _____    ______ ____
ROOT
ATOM      7  C   UNL     1      -3.031   1.773  24.124  0.00  0.00    +0.155 C 
ATOM      8  C   UNL     1      -3.188   2.554  24.336  0.00  0.00    +0.055 C 
ATOM      9  C   UNL     1      -3.855   2.859  24.713  0.00  0.00    +0.000 A 
ATOM     10  C   UNL     1      -3.947   3.659  24.896  0.00  0.00    +0.095 A 
ATOM     11  N   UNL     1      -4.677   3.752  25.269  0.00  0.00    -0.244 NA
ATOM     12  C   UNL     1      -5.037   3.011  25.316  0.00  0.00    +0.081 A 
ATOM     13  C   UNL     1      -4.529   2.459  24.973  0.00  0.00    +0.013 A 
ATOM     14  C   UNL     1      -4.701   1.655  24.918  0.00  0.00    -0.005 A 
ATOM     15  C   UNL     1      -5.469   1.420  25.252  0.00  0.00    -0.003 A 
ATOM     16  C   UNL     1      -5.977   1.972  25.595  0.00  0.00    +0.001 A 
ATOM     17  C   UNL     1      -5.761   2.768  25.627  0.00  0.00    +0.019 A 
ATOM     18  C   UNL     1      -4.244   1.051  24.591  0.00  0.00    +0.095 C 
ATOM     23  N   UNL     1      -3.501   1.104  24.238  0.00  0.00    -0.207 NA
ENDROOT
BRANCH   7   5
ATOM      4  N   UNL     1      -1.622   1.547  24.197  0.00  0.00    -0.204 NA
ATOM      5  C   UNL     1      -2.307   1.642  23.749  0.00  0.00    +0.258 C 
ATOM      6  O   UNL     1      -2.270   1.607  22.925  0.00  0.00    -0.272 OA
BRANCH   4   3
ATOM      3  C   UNL     1      -0.898   1.417  23.822  0.00  0.00    +0.115 C 
BRANCH   3   2
ATOM      1  C   UNL     1       0.472   1.572  24.195  0.00  0.00    +0.002 C 
ATOM      2  C   UNL     1      -0.245   1.169  24.261  0.00  0.00    +0.023 C 
ENDBRANCH   3   2
ENDBRANCH   4   3
ENDBRANCH   7   5
BRANCH  18  19
ATOM     19  C   UNL     1      -4.574   0.295  24.621  0.00  0.00    +0.022 C 
BRANCH  19  20
ATOM     20  C   UNL     1      -4.084  -0.365  24.693  0.00  0.00    +0.002 C 
ATOM     21  C   UNL     1      -3.734  -0.543  25.419  0.00  0.00    +0.000 C 
ATOM     22  C   UNL     1      -3.945  -0.847  24.039  0.00  0.00    +0.000 C 
ENDBRANCH  19  20
ENDBRANCH  18  19
TORSDOF 5
ENDMDL
MODEL 2
REMARK VINA RESULT:     -10.8      1.736      3.546
REMARK  Name = 
REMARK  5 active torsions:
REMARK  status: ('A' for Active; 'I' for Inactive)
REMARK    1  A    between atoms: C_2  and  C_3
REMARK    2  A    between atoms: C_3  and  N_4
REMARK    3  A    between atoms: C_5  and  C_7
REMARK    4  A    between atoms: C_18  and  C_19
REMARK    5  A    between atoms: C_19  and  C_20
REMARK                            x       y       z     vdW  Elec       q    Type
REMARK                         _______ _______ _______ _____ _____    ______ ____
ROOT
ATOM      7  C   UNL     1      -1.853   0.167  24.525  0.00  0.00    +0.155 C 
ATOM      8  C   UNL     1      -1.532  -0.584  24.634  0.00  0.00    +0.055 C 
ATOM      9  C   UNL     1      -1.912  -1.316  24.604  0.00  0.00    +0.000 A 
ATOM     10  C   UNL     1      -1.526  -2.035  24.724  0.00  0.00    +0.095 A 
ATOM     11  N   UNL     1      -2.082  -2.639  24.650  0.00  0.00    -0.244 NA
ATOM     12  C   UNL     1      -2.813  -2.294  24.485  0.00  0.00    +0.081 A 
ATOM     13  C   UNL     1      -2.708  -1.476  24.456  0.00  0.00    +0.013 A 
ATOM     14  C   UNL     1      -3.320  -0.945  24.303  0.00  0.00    -0.005 A 
ATOM     15  C   UNL     1      -4.098  -1.308  24.172  0.00  0.00    -0.003 A 
ATOM     16  C   UNL     1      -4.203  -2.126  24.201  0.00  0.00    +0.001 A 
ATOM     17  C   UNL     1      -3.560  -2.619  24.357  0.00  0.00    +0.019 A 
ATOM     18  C   UNL     1      -3.287  -0.121  24.260  0.00  0.00    +0.095 C 
ATOM     23  N   UNL     1      -2.635   0.373  24.359  0.00  0.00    -0.207 NA
ENDROOT
BRANCH   7   5
ATOM      4  N   UNL     1      -1.144   1.107  25.335  0.00  0.00    -0.204 NA
ATOM      5  C   UNL     1      -1.323   0.796  24.592  0.00  0.00    +0.258 C 
ATOM      6  O   UNL     1      -0.973   1.114  23.916  0.00  0.00    -0.272 OA
BRANCH   4   3
ATOM      3  C   UNL     1      -0.614   1.737  25.401  0.00  0.00    +0.115 C 
BRANCH   3   2
ATOM      1  C   UNL     1       0.108   2.596  26.283  0.00  0.00    +0.002 C 
ATOM      2  C   UNL     1      -0.573   2.168  26.103  0.00  0.00    +0.023 C 
ENDBRANCH   3   2
ENDBRANCH   4   3
ENDBRANCH   7   5
BRANCH  18  19
ATOM     19  C   UNL     1      -4.002   0.257  24.096  0.00  0.00    +0.022 C 
BRANCH  19  20
ATOM     20  C   UNL     1      -4.183   0.972  24.466  0.00  0.00    +0.002 C 
ATOM     21  C   UNL     1      -4.459   0.977  25.243  0.00  0.00    +0.000 C 
ATOM     22  C   UNL     1      -4.089   1.682  24.057  0.00  0.00    +0.000 C 
ENDBRANCH  19  20
ENDBRANCH  18  19
TORSDOF 5
ENDMDL
MODEL 3
REMARK VINA RESULT:     -10.7      1.118      2.811
REMARK  Name = 
REMARK  5 active torsions:
REMARK  status: ('A' for Active; 'I' for Inactive)
REMARK    1  A    between atoms: C_2  and  C_3
REMARK    2  A    between atoms: C_3  and  N_4
REMARK    3  A    between atoms: C_5  and  C_7
REMARK    4  A    between atoms: C_18  and  C_19
REMARK    5  A    between atoms: C_19  and  C_20
REMARK                            x       y       z     vdW  Elec       q    Type
REMARK                         _______ _______ _______ _____ _____    ______ ____
ROOT
ATOM      7  C   UNL     1      -4.120   0.639  24.527  0.00  0.00    +0.155 C 
ATOM      8  C   UNL     1      -4.816   0.873  24.902  0.00  0.00    +0.055 C 
ATOM      9  C   UNL     1      -5.036   1.629  25.150  0.00  0.00    +0.000 A 
ATOM     10  C   UNL     1      -5.754   1.793  25.522  0.00  0.00    +0.095 A 
ATOM     11  N   UNL     1      -5.777   2.601  25.686  0.00  0.00    -0.244 NA
ATOM     12  C   UNL     1      -5.074   2.937  25.415  0.00  0.00    +0.081 A 
ATOM     13  C   UNL     1      -4.616   2.336  25.083  0.00  0.00    +0.013 A 
ATOM     14  C   UNL     1      -3.871   2.461  24.753  0.00  0.00    -0.005 A 
ATOM     15  C   UNL     1      -3.593   3.285  24.776  0.00  0.00    -0.003 A 
ATOM     16  C   UNL     1      -4.051   3.886  25.107  0.00  0.00    +0.001 A 
ATOM     17  C   UNL     1      -4.792   3.712  25.427  0.00  0.00    +0.019 A 
ATOM     18  C   UNL     1      -3.362   1.912  24.407  0.00  0.00    +0.095 C 
ATOM     23  N   UNL     1      -3.473   1.101  24.307  0.00  0.00    -0.207 NA
ENDROOT
BRANCH   7   5
ATOM      4  N   UNL     1      -3.743  -0.688  24.901  0.00  0.00    -0.204 NA
ATOM      5  C   UNL     1      -4.063  -0.165  24.349  0.00  0.00    +0.258 C 
ATOM      6  O   UNL     1      -4.326  -0.445  23.618  0.00  0.00    -0.272 OA
BRANCH   4   3
ATOM      3  C   UNL     1      -3.686  -1.492  24.722  0.00  0.00    +0.115 C 
BRANCH   3   2
ATOM      1  C   UNL     1      -3.301  -2.816  25.092  0.00  0.00    +0.002 C 
ATOM      2  C   UNL     1      -3.327  -2.008  25.256  0.00  0.00    +0.023 C 
ENDBRANCH   3   2
ENDBRANCH   4   3
ENDBRANCH   7   5
BRANCH  18  19
ATOM     19  C   UNL     1      -2.648   2.214  24.124  0.00  0.00    +0.022 C 
BRANCH  19  20
ATOM     20  C   UNL     1      -2.287   1.870  23.467  0.00  0.00    +0.002 C 
ATOM     21  C   UNL     1      -2.600   1.990  22.714  0.00  0.00    +0.000 C 
ATOM     22  C   UNL     1      -1.613   1.404  23.564  0.00  0.00    +0.000 C 
ENDBRANCH  19  20
ENDBRANCH  18  19
TORSDOF 5
ENDMDL
MODEL 4
REMARK VINA RESULT:     -10.5      1.515      4.138
REMARK  Name = 
REMARK  5 active torsions:
REMARK  status: ('A' for Active; 'I' for Inactive)
REMARK    1  A    between atoms: C_2  and  C_3
REMARK    2  A    between atoms: C_3  and  N_4
REMARK    3  A    between atoms: C_5  and  C_7
REMARK    4  A    between atoms: C_18  and  C_19
REMARK    5  A    between atoms: C_19  and  C_20
REMARK                            x       y       z     vdW  Elec       q    Type
REMARK                         _______ _______ _______ _____ _____    ______ ____
ROOT
ATOM      7  C   UNL     1      -3.535   0.487  24.450  0.00  0.00    +0.155 C 
ATOM      8  C   UNL     1      -4.018  -0.132  24.198  0.00  0.00    +0.055 C 
ATOM      9  C   UNL     1      -3.860  -0.942  24.204  0.00  0.00    +0.000 A 
ATOM     10  C   UNL     1      -4.394  -1.510  23.935  0.00  0.00    +0.095 A 
ATOM     11  N   UNL     1      -4.044  -2.252  24.027  0.00  0.00    -0.244 NA
ATOM     12  C   UNL     1      -3.294  -2.142  24.353  0.00  0.00    +0.081 A 
ATOM     13  C   UNL     1      -3.181  -1.332  24.462  0.00  0.00    +0.013 A 
ATOM     14  C   UNL     1      -2.491  -1.008  24.779  0.00  0.00    -0.005 A 
ATOM     15  C   UNL     1      -1.879  -1.586  24.994  0.00  0.00    -0.003 A 
ATOM     16  C   UNL     1      -1.993  -2.396  24.885  0.00  0.00    +0.001 A 
ATOM     17  C   UNL     1      -2.701  -2.674  24.564  0.00  0.00    +0.019 A 
ATOM     18  C   UNL     1      -2.311  -0.215  24.915  0.00  0.00    +0.095 C 
ATOM     23  N   UNL     1      -2.775   0.450  24.769  0.00  0.00    -0.207 NA
ENDROOT
BRANCH   7   5
ATOM      4  N   UNL     1      -4.298   1.570  24.987  0.00  0.00    -0.204 NA
ATOM      5  C   UNL     1      -3.855   1.245  24.372  0.00  0.00    +0.258 C 
ATOM      6  O   UNL     1      -3.730   1.676  23.680  0.00  0.00    -0.272 OA
BRANCH   4   3
ATOM      3  C   UNL     1      -4.617   2.327  24.909  0.00  0.00    +0.115 C 
BRANCH   3   2
ATOM      1  C   UNL     1      -5.233   3.422  25.589  0.00  0.00    +0.002 C 
ATOM      2  C   UNL     1      -5.150   2.609  25.472  0.00  0.00    +0.023 C 
ENDBRANCH   3   2
ENDBRANCH   4   3
ENDBRANCH   7   5
BRANCH  18  19
ATOM     19  C   UNL     1      -1.567  -0.068  25.241  0.00  0.00    +0.022 C 
BRANCH  19  20
ATOM     20  C   UNL     1      -1.148   0.607  25.022  0.00  0.00    +0.002 C 
ATOM     21  C   UNL     1      -0.793   0.650  24.278  0.00  0.00    +0.000 C 
ATOM     22  C   UNL     1      -1.082   1.240  25.547  0.00  0.00    +0.000 C 
ENDBRANCH  19  20
ENDBRANCH  18  19
TORSDOF 5
ENDMDL
MODEL 5
REMARK VINA RESULT:     -10.5      1.476      3.515
REMARK  Name = 
REMARK  5 active torsions:
REMARK  status: ('A' for Active; 'I' for Inactive)
REMARK    1  A    between atoms: C_2  and  C_3
REMARK    2  A    between atoms: C_3  and  N_4
REMARK    3  A    between atoms: C_5  and  C_7
REMARK    4  A    between atoms: C_18  and  C_19
REMARK    5  A    between atoms: C_19  and  C_20
REMARK                            x       y       z     vdW  Elec       q    Type
REMARK                         _______ _______ _______ _____ _____    ______ ____
ROOT
ATOM      7  C   UNL     1      -2.705   1.715  24.619  0.00  0.00    +0.155 C 
ATOM      8  C   UNL     1      -1.910   1.786  24.414  0.00  0.00    +0.055 C 
ATOM      9  C   UNL     1      -1.414   2.440  24.497  0.00  0.00    +0.000 A 
ATOM     10  C   UNL     1      -0.621   2.442  24.268  0.00  0.00    +0.095 A 
ATOM     11  N   UNL     1      -0.309   3.187  24.436  0.00  0.00    -0.244 NA
ATOM     12  C   UNL     1      -0.909   3.646  24.768  0.00  0.00    +0.081 A 
ATOM     13  C   UNL     1      -1.592   3.185  24.806  0.00  0.00    +0.013 A 
ATOM     14  C   UNL     1      -2.308   3.458  25.107  0.00  0.00    -0.005 A 
ATOM     15  C   UNL     1      -2.299   4.280  25.389  0.00  0.00    -0.003 A 
ATOM     16  C   UNL     1      -1.616   4.742  25.352  0.00  0.00    +0.001 A 
ATOM     17  C   UNL     1      -0.920   4.424  25.041  0.00  0.00    +0.019 A 
ATOM     18  C   UNL     1      -3.025   3.056  25.175  0.00  0.00    +0.095 C 
ATOM     23  N   UNL     1      -3.202   2.280  24.958  0.00  0.00    -0.207 NA
ENDROOT
BRANCH   7   5
ATOM      4  N   UNL     1      -3.077   0.406  25.056  0.00  0.00    -0.204 NA
ATOM      5  C   UNL     1      -3.050   0.981  24.465  0.00  0.00    +0.258 C 
ATOM      6  O   UNL     1      -3.368   0.823  23.720  0.00  0.00    -0.272 OA
BRANCH   4   3
ATOM      3  C   UNL     1      -3.422  -0.328  24.901  0.00  0.00    +0.115 C 
BRANCH   3   2
ATOM      1  C   UNL     1      -3.532  -1.672  25.371  0.00  0.00    +0.002 C 
ATOM      2  C   UNL     1      -3.550  -0.860  25.518  0.00  0.00    +0.023 C 
ENDBRANCH   3   2
ENDBRANCH   4   3
ENDBRANCH   7   5
BRANCH  18  19
ATOM     19  C   UNL     1      -3.648   3.486  25.504  0.00  0.00    +0.022 C 
BRANCH  19  20
ATOM     20  C   UNL     1      -4.418   3.369  25.232  0.00  0.00    +0.002 C 
ATOM     21  C   UNL     1      -4.638   3.642  24.485  0.00  0.00    +0.000 C 
ATOM     22  C   UNL     1      -4.968   2.978  25.707  0.00  0.00    +0.000 C 
ENDBRANCH  19  20
ENDBRANCH  18  19
TORSDOF 5
ENDMDL
MODEL 6
REMARK VINA RESULT:     -10.3      1.284      2.489
REMARK  Name = 
REMARK  5 active torsions:
REMARK  status: ('A' for Active; 'I' for Inactive)
REMARK    1  A    between atoms: C_2  and  C_3
REMARK    2  A    between atoms: C_3  and  N_4
REMARK    3  A    between atoms: C_5  and  C_7
REMARK    4  A    between atoms: C_18  and  C_19
REMARK    5  A    between atoms: C_19  and  C_20
REMARK                            x       y       z     vdW  Elec       q    Type
REMARK                         _______ _______ _______ _____ _____    ______ ____
ROOT
ATOM      7  C   UNL     1      -2.777   1.743  24.428  0.00  0.00    +0.155 C 
ATOM      8  C   UNL     1      -3.495   1.338  24.465  0.00  0.00    +0.055 C 
ATOM      9  C   UNL     1      -4.227   1.613  24.727  0.00  0.00    +0.000 A 
ATOM     10  C   UNL     1      -4.910   1.150  24.737  0.00  0.00    +0.095 A 
ATOM     11  N   UNL     1      -5.526   1.611  25.032  0.00  0.00    -0.244 NA
ATOM     12  C   UNL     1      -5.225   2.359  25.206  0.00  0.00    +0.081 A 
ATOM     13  C   UNL     1      -4.422   2.361  25.018  0.00  0.00    +0.013 A 
ATOM     14  C   UNL     1      -3.933   3.017  25.117  0.00  0.00    -0.005 A 
ATOM     15  C   UNL     1      -4.325   3.722  25.440  0.00  0.00    -0.003 A 
ATOM     16  C   UNL     1      -5.129   3.721  25.629  0.00  0.00    +0.001 A 
ATOM     17  C   UNL     1      -5.579   3.039  25.512  0.00  0.00    +0.019 A 
ATOM     18  C   UNL     1      -3.128   3.089  24.951  0.00  0.00    +0.095 C 
ATOM     23  N   UNL     1      -2.614   2.522  24.645  0.00  0.00    -0.207 NA
ENDROOT
BRANCH   7   5
ATOM      4  N   UNL     1      -1.760   0.757  24.617  0.00  0.00    -0.204 NA
ATOM      5  C   UNL     1      -2.137   1.311  24.136  0.00  0.00    +0.258 C 
ATOM      6  O   UNL     1      -1.875   1.433  23.363  0.00  0.00    -0.272 OA
BRANCH   4   3
ATOM      3  C   UNL     1      -1.120   0.325  24.325  0.00  0.00    +0.115 C 
BRANCH   3   2
ATOM      1  C   UNL     1      -0.363  -0.868  24.531  0.00  0.00    +0.002 C 
ATOM      2  C   UNL     1      -0.697  -0.175  24.827  0.00  0.00    +0.023 C 
ENDBRANCH   3   2
ENDBRANCH   4   3
ENDBRANCH   7   5
BRANCH  18  19
ATOM     19  C   UNL     1      -2.794   3.826  25.113  0.00  0.00    +0.022 C 
BRANCH  19  20
ATOM     20  C   UNL     1      -2.023   3.873  25.403  0.00  0.00    +0.002 C 
ATOM     21  C   UNL     1      -1.857   3.637  26.176  0.00  0.00    +0.000 C 
ATOM     22  C   UNL     1      -1.417   4.157  24.920  0.00  0.00    +0.000 C 
ENDBRANCH  19  20
ENDBRANCH  18  19
TORSDOF 5
ENDMDL
