MODEL 1
REMARK VINA RESULT:     -11.2      0.000      0.000
REMARK  Name = 
REMARK  6 active torsions:
REMARK  status: ('A' for Active; 'I' for Inactive)
REMARK    1  A    between atoms: O_2  and  C_3
REMARK    2  A    between atoms: C_9  and  C_10
REMARK    3  A    between atoms: C_10  and  C_11
REMARK    4  A    between atoms: C_16  and  C_17
REMARK    5  A    between atoms: C_17  and  C_18
REMARK    6  A    between atoms: C_21  and  C_23
REMARK                            x       y       z     vdW  Elec       q    Type
REMARK                         _______ _______ _______ _____ _____    ______ ____
ROOT
ATOM     11  C   UNL     1      -3.893   1.211  24.831  0.00  0.00    +0.026 C 
ATOM     12  C   UNL     1      -3.123   1.475  24.706  0.00  0.00    +0.094 C 
ATOM     13  N   UNL     1      -2.926   2.262  24.860  0.00  0.00    -0.274 N 
ATOM     14  C   UNL     1      -3.501   2.783  25.138  0.00  0.00    +0.094 C 
ATOM     15  C   UNL     1      -4.272   2.519  25.263  0.00  0.00    +0.022 C 
ATOM     16  C   UNL     1      -4.469   1.733  25.109  0.00  0.00    +0.015 C 
ATOM     21  C   UNL     1      -2.155   2.526  24.735  0.00  0.00    +0.284 C 
ATOM     22  O   UNL     1      -1.580   2.004  24.457  0.00  0.00    -0.267 OA
ENDROOT
BRANCH  21  23
ATOM     23  C   UNL     1      -1.958   3.312  24.889  0.00  0.00    +0.199 A 
ATOM     24  C   UNL     1      -1.530   3.588  25.539  0.00  0.00    +0.045 A 
ATOM     25  C   UNL     1      -1.463   4.407  25.473  0.00  0.00    +0.044 A 
ATOM     26  C   UNL     1      -1.849   4.638  24.781  0.00  0.00    +0.180 A 
ATOM     27  O   UNL     1      -2.155   3.962  24.421  0.00  0.00    -0.446 OA
ENDBRANCH  21  23
BRANCH  11  10
ATOM     10  C   UNL     1      -4.090   0.425  24.677  0.00  0.00    +0.047 C 
BRANCH  10   9
ATOM      3  C   UNL     1      -3.816  -2.499  24.195  0.00  0.00    +0.138 A 
ATOM      4  C   UNL     1      -3.377  -2.336  24.874  0.00  0.00    +0.033 A 
ATOM      5  C   UNL     1      -3.336  -1.565  25.165  0.00  0.00    -0.016 A 
ATOM      6  C   UNL     1      -3.734  -0.955  24.776  0.00  0.00    +0.009 A 
ATOM      7  C   UNL     1      -4.173  -1.118  24.096  0.00  0.00    +0.004 A 
ATOM      8  C   UNL     1      -4.214  -1.889  23.805  0.00  0.00    +0.037 A 
ATOM      9  C   UNL     1      -3.693  -0.185  25.066  0.00  0.00    +0.053 C 
ATOM     28  N   UNL     1      -3.254  -0.023  25.745  0.00  0.00    -0.274 NA
ATOM     29  C   UNL     1      -2.856  -0.632  26.135  0.00  0.00    +0.130 C 
ATOM     30  C   UNL     1      -2.897  -1.403  25.844  0.00  0.00    +0.053 C 
BRANCH   3   2
ATOM      1  C   UNL     1      -4.454  -3.479  23.375  0.00  0.00    +0.252 C 
ATOM      2  O   UNL     1      -3.857  -3.269  23.904  0.00  0.00    -0.471 OA
ENDBRANCH   3   2
ENDBRANCH  10   9
ENDBRANCH  11  10
BRANCH  16  17
ATOM     17  C   UNL     1      -5.240   1.468  25.234  0.00  0.00    +0.114 C 
BRANCH  17  18
ATOM     18  C   UNL     1      -5.841   2.010  25.393  0.00  0.00    +0.365 C 
ATOM     19  O   UNL     1      -6.305   2.305  24.778  0.00  0.00    -0.246 OA
ATOM     20  O   UNL     1      -5.978   2.258  26.169  0.00  0.00    -0.246 OA
ENDBRANCH  17  18
ENDBRANCH  16  17
TORSDOF 6
ENDMDL
MODEL 2
REMARK VINA RESULT:     -10.9      1.030      4.794
REMARK  Name = 
REMARK  6 active torsions:
REMARK  status: ('A' for Active; 'I' for Inactive)
REMARK    1  A    between atoms: O_2  and  C_3
REMARK    2  A    between atoms: C_9  and  C_10
REMARK    3  A    between atoms: C_10  and  C_11
REMARK    4  A    between atoms: C_16  and  C_17
REMARK    5  A    between atoms: C_17  and  C_18
REMARK    6  A    between atoms: C_21  and  C_23
REMARK                            x       y       z     vdW  Elec       q    Type
REMARK                         _______ _______ _______ _____ _____    ______ ____
ROOT
ATOM     11  C   UNL     1      -3.704   1.216  24.850  0.00  0.00    +0.026 C 
ATOM     12  C   UNL     1      -3.194   0.571  24.797  0.00  0.00    +0.094 C 
ATOM     13  N   UNL     1      -3.499  -0.194  24.751  0.00  0.00    -0.274 N 
ATOM     14  C   UNL     1      -4.315  -0.313  24.758  0.00  0.00    +0.094 C 
ATOM     15  C   UNL     1      -4.826   0.332  24.811  0.00  0.00    +0.022 C 
ATOM     16  C   UNL     1      -4.521   1.097  24.857  0.00  0.00    +0.015 C 
ATOM     21  C   UNL     1      -2.988  -0.840  24.698  0.00  0.00    +0.284 C 
ATOM     22  O   UNL     1      -2.172  -0.720  24.691  0.00  0.00    -0.267 OA
ENDROOT
BRANCH  21  23
ATOM     23  C   UNL     1      -3.293  -1.604  24.652  0.00  0.00    +0.199 A 
ATOM     24  C   UNL     1      -3.304  -2.161  25.262  0.00  0.00    +0.045 A 
ATOM     25  C   UNL     1      -3.659  -2.848  24.975  0.00  0.00    +0.044 A 
ATOM     26  C   UNL     1      -3.868  -2.716  24.188  0.00  0.00    +0.180 A 
ATOM     27  O   UNL     1      -3.643  -1.949  23.988  0.00  0.00    -0.446 OA
ENDBRANCH  21  23
BRANCH  11  10
ATOM     10  C   UNL     1      -3.400   1.981  24.896  0.00  0.00    +0.047 C 
BRANCH  10   9
ATOM      3  C   UNL     1      -1.208   3.991  25.007  0.00  0.00    +0.138 A 
ATOM      4  C   UNL     1      -1.171   3.652  24.256  0.00  0.00    +0.033 A 
ATOM      5  C   UNL     1      -1.709   3.064  24.040  0.00  0.00    -0.016 A 
ATOM      6  C   UNL     1      -2.286   2.816  24.576  0.00  0.00    +0.009 A 
ATOM      7  C   UNL     1      -2.323   3.155  25.327  0.00  0.00    +0.004 A 
ATOM      8  C   UNL     1      -1.786   3.743  25.544  0.00  0.00    +0.037 A 
ATOM      9  C   UNL     1      -2.823   2.229  24.361  0.00  0.00    +0.053 C 
ATOM     28  N   UNL     1      -2.785   1.891  23.610  0.00  0.00    -0.274 NA
ATOM     29  C   UNL     1      -2.208   2.139  23.074  0.00  0.00    +0.130 C 
ATOM     30  C   UNL     1      -1.670   2.726  23.290  0.00  0.00    +0.053 C 
BRANCH   3   2
ATOM      1  C   UNL     1      -0.795   5.358  24.988  0.00  0.00    +0.252 C 
ATOM      2  O   UNL     1      -0.671   4.578  25.223  0.00  0.00    -0.471 OA
ENDBRANCH   3   2
ENDBRANCH  10   9
ENDBRANCH  11  10
BRANCH  16  17
ATOM     17  C   UNL     1      -5.032   1.742  24.911  0.00  0.00    +0.114 C 
BRANCH  17  18
ATOM     18  C   UNL     1      -5.807   1.634  25.170  0.00  0.00    +0.365 C 
ATOM     19  O   UNL     1      -5.978   1.643  25.977  0.00  0.00    -0.246 OA
ATOM     20  O   UNL     1      -6.413   1.516  24.621  0.00  0.00    -0.246 OA
ENDBRANCH  17  18
ENDBRANCH  16  17
TORSDOF 6
ENDMDL
MODEL 3
REMARK VINA RESULT:     -10.3      1.762      5.564
REMARK  Name = 
REMARK  6 active torsions:
REMARK  status: ('A' for Active; 'I' for Inactive)
REMARK    1  A    between atoms: O_2  and  C_3
REMARK    2  A    between atoms: C_9  and  C_10
REMARK    3  A    between atoms: C_10  and  C_11
REMARK    4  A    between atoms: C_16  and  C_17
REMARK    5  A    between atoms: C_17  and  C_18
REMARK    6  A    between atoms: C_21  and  C_23
REMARK                            x       y       z     vdW  Elec       q    Type
REMARK                         _______ _______ _______ _____ _____    ______ ____
ROOT
ATOM     11  C   UNL     1      -1.740   0.433  24.667  0.00  0.00    +0.026 C 
ATOM     12  C   UNL     1      -2.476   0.117  24.859  0.00  0.00    +0.094 C 
ATOM     13  N   UNL     1      -2.627  -0.685  24.736  0.00  0.00    -0.274 N 
ATOM     14  C   UNL     1      -2.039  -1.170  24.420  0.00  0.00    +0.094 C 
ATOM     15  C   UNL     1      -1.303  -0.855  24.228  0.00  0.00    +0.022 C 
ATOM     16  C   UNL     1      -1.152  -0.053  24.350  0.00  0.00    +0.015 C 
ATOM     21  C   UNL     1      -3.364  -1.001  24.929  0.00  0.00    +0.284 C 
ATOM     22  O   UNL     1      -3.951  -0.514  25.245  0.00  0.00    -0.267 OA
ENDROOT
BRANCH  21  23
ATOM     23  C   UNL     1      -3.514  -1.802  24.806  0.00  0.00    +0.199 A 
ATOM     24  C   UNL     1      -3.907  -2.129  24.158  0.00  0.00    +0.045 A 
ATOM     25  C   UNL     1      -3.934  -2.947  24.260  0.00  0.00    +0.044 A 
ATOM     26  C   UNL     1      -3.557  -3.126  24.972  0.00  0.00    +0.180 A 
ATOM     27  O   UNL     1      -3.298  -2.419  25.309  0.00  0.00    -0.446 OA
ENDBRANCH  21  23
BRANCH  11  10
ATOM     10  C   UNL     1      -1.589   1.235  24.789  0.00  0.00    +0.047 C 
BRANCH  10   9
ATOM      3  C   UNL     1      -2.062   4.124  25.321  0.00  0.00    +0.138 A 
ATOM      4  C   UNL     1      -2.565   3.919  24.700  0.00  0.00    +0.033 A 
ATOM      5  C   UNL     1      -2.573   3.146  24.411  0.00  0.00    -0.016 A 
ATOM      6  C   UNL     1      -2.077   2.576  24.744  0.00  0.00    +0.009 A 
ATOM      7  C   UNL     1      -1.574   2.781  25.366  0.00  0.00    +0.004 A 
ATOM      8  C   UNL     1      -1.566   3.554  25.655  0.00  0.00    +0.037 A 
ATOM      9  C   UNL     1      -2.084   1.804  24.456  0.00  0.00    +0.053 C 
ATOM     28  N   UNL     1      -2.587   1.600  23.835  0.00  0.00    -0.274 NA
ATOM     29  C   UNL     1      -3.083   2.170  23.502  0.00  0.00    +0.130 C 
ATOM     30  C   UNL     1      -3.075   2.942  23.790  0.00  0.00    +0.053 C 
BRANCH   3   2
ATOM      1  C   UNL     1      -1.599   5.472  25.234  0.00  0.00    +0.252 C 
ATOM      2  O   UNL     1      -2.054   4.896  25.609  0.00  0.00    -0.471 OA
ENDBRANCH   3   2
ENDBRANCH  10   9
ENDBRANCH  11  10
BRANCH  16  17
ATOM     17  C   UNL     1      -0.415   0.262  24.158  0.00  0.00    +0.114 C 
BRANCH  17  18
ATOM     18  C   UNL     1       0.157  -0.213  23.802  0.00  0.00    +0.365 C 
ATOM     19  O   UNL     1       0.548  -0.790  24.243  0.00  0.00    -0.246 OA
ATOM     20  O   UNL     1       0.339  -0.112  23.002  0.00  0.00    -0.246 OA
ENDBRANCH  17  18
ENDBRANCH  16  17
TORSDOF 6
ENDMDL
MODEL 4
REMARK VINA RESULT:     -10.3      1.924      5.083
REMARK  Name = 
REMARK  6 active torsions:
REMARK  status: ('A' for Active; 'I' for Inactive)
REMARK    1  A    between atoms: O_2  and  C_3
REMARK    2  A    between atoms: C_9  and  C_10
REMARK    3  A    between atoms: C_10  and  C_11
REMARK    4  A    between atoms: C_16  and  C_17
REMARK    5  A    between atoms: C_17  and  C_18
REMARK    6  A    between atoms: C_21  and  C_23
REMARK                            x       y       z     vdW  Elec       q    Type
REMARK                         _______ _______ _______ _____ _____    ______ ____
ROOT
ATOM     11  C   UNL     1      -1.686   1.521  24.837  0.00  0.00    +0.026 C 
ATOM     12  C   UNL     1      -2.145   0.839  24.896  0.00  0.00    +0.094 C 
ATOM     13  N   UNL     1      -1.787   0.096  24.858  0.00  0.00    -0.274 N 
ATOM     14  C   UNL     1      -0.970   0.037  24.761  0.00  0.00    +0.094 C 
ATOM     15  C   UNL     1      -0.511   0.718  24.702  0.00  0.00    +0.022 C 
ATOM     16  C   UNL     1      -0.868   1.461  24.740  0.00  0.00    +0.015 C 
ATOM     21  C   UNL     1      -2.247  -0.587  24.917  0.00  0.00    +0.284 C 
ATOM     22  O   UNL     1      -3.064  -0.526  25.014  0.00  0.00    -0.267 OA
ENDROOT
BRANCH  21  23
ATOM     23  C   UNL     1      -1.889  -1.329  24.878  0.00  0.00    +0.199 A 
ATOM     24  C   UNL     1      -1.984  -1.883  24.274  0.00  0.00    +0.045 A 
ATOM     25  C   UNL     1      -1.527  -2.545  24.459  0.00  0.00    +0.044 A 
ATOM     26  C   UNL     1      -1.150  -2.400  25.179  0.00  0.00    +0.180 A 
ATOM     27  O   UNL     1      -1.374  -1.649  25.438  0.00  0.00    -0.446 OA
ENDBRANCH  21  23
BRANCH  11  10
ATOM     10  C   UNL     1      -2.043   2.263  24.875  0.00  0.00    +0.047 C 
BRANCH  10   9
ATOM      3  C   UNL     1      -4.648   3.664  25.202  0.00  0.00    +0.138 A 
ATOM      4  C   UNL     1      -4.601   3.449  24.406  0.00  0.00    +0.033 A 
ATOM      5  C   UNL     1      -3.938   3.045  24.125  0.00  0.00    -0.016 A 
ATOM      6  C   UNL     1      -3.321   2.856  24.641  0.00  0.00    +0.009 A 
ATOM      7  C   UNL     1      -3.368   3.071  25.436  0.00  0.00    +0.004 A 
ATOM      8  C   UNL     1      -4.031   3.475  25.717  0.00  0.00    +0.037 A 
ATOM      9  C   UNL     1      -2.659   2.452  24.360  0.00  0.00    +0.053 C 
ATOM     28  N   UNL     1      -2.613   2.238  23.566  0.00  0.00    -0.274 NA
ATOM     29  C   UNL     1      -3.230   2.427  23.050  0.00  0.00    +0.130 C 
ATOM     30  C   UNL     1      -3.892   2.830  23.331  0.00  0.00    +0.053 C 
BRANCH   3   2
ATOM      1  C   UNL     1      -5.960   3.646  25.765  0.00  0.00    +0.252 C 
ATOM      2  O   UNL     1      -5.310   4.067  25.482  0.00  0.00    -0.471 OA
ENDBRANCH   3   2
ENDBRANCH  10   9
ENDBRANCH  11  10
BRANCH  16  17
ATOM     17  C   UNL     1      -0.409   2.144  24.681  0.00  0.00    +0.114 C 
BRANCH  17  18
ATOM     18  C   UNL     1       0.398   2.113  24.851  0.00  0.00    +0.365 C 
ATOM     19  O   UNL     1       0.940   1.952  24.250  0.00  0.00    -0.246 OA
ATOM     20  O   UNL     1       0.663   2.245  25.622  0.00  0.00    -0.246 OA
ENDBRANCH  17  18
ENDBRANCH  16  17
TORSDOF 6
ENDMDL
MODEL 5
REMARK VINA RESULT:     -10.2      2.138      4.005
REMARK  Name = 
REMARK  6 active torsions:
REMARK  status: ('A' for Active; 'I' for Inactive)
REMARK    1  A    between atoms: O_2  and  C_3
REMARK    2  A    between atoms: C_9  and  C_10
REMARK    3  A    between atoms: C_10  and  C_11
REMARK    4  A    between atoms: C_16  and  C_17
REMARK    5  A    between atoms: C_17  and  C_18
REMARK    6  A    between atoms: C_21  and  C_23
REMARK                            x       y       z     vdW  Elec       q    Type
REMARK                         _______ _______ _______ _____ _____    ______ ____
ROOT
ATOM     11  C   UNL     1      -2.767   0.157  24.710  0.00  0.00    +0.026 C 
ATOM     12  C   UNL     1      -3.096   0.904  24.599  0.00  0.00    +0.094 C 
ATOM     13  N   UNL     1      -3.880   1.047  24.817  0.00  0.00    -0.274 N 
ATOM     14  C   UNL     1      -4.332   0.441  25.146  0.00  0.00    +0.094 C 
ATOM     15  C   UNL     1      -4.003  -0.307  25.256  0.00  0.00    +0.022 C 
ATOM     16  C   UNL     1      -3.220  -0.450  25.039  0.00  0.00    +0.015 C 
ATOM     21  C   UNL     1      -4.209   1.795  24.706  0.00  0.00    +0.284 C 
ATOM     22  O   UNL     1      -3.755   2.401  24.378  0.00  0.00    -0.267 OA
ENDROOT
BRANCH  21  23
ATOM     23  C   UNL     1      -4.991   1.937  24.924  0.00  0.00    +0.199 A 
ATOM     24  C   UNL     1      -5.242   2.336  25.602  0.00  0.00    +0.045 A 
ATOM     25  C   UNL     1      -6.067   2.351  25.600  0.00  0.00    +0.044 A 
ATOM     26  C   UNL     1      -6.326   1.961  24.920  0.00  0.00    +0.180 A 
ATOM     27  O   UNL     1      -5.662   1.706  24.503  0.00  0.00    -0.446 OA
ENDBRANCH  21  23
BRANCH  11  10
ATOM     10  C   UNL     1      -1.984   0.014  24.492  0.00  0.00    +0.047 C 
BRANCH  10   9
ATOM      3  C   UNL     1       0.739   0.659  23.481  0.00  0.00    +0.138 A 
ATOM      4  C   UNL     1       0.629   1.122  24.155  0.00  0.00    +0.033 A 
ATOM      5  C   UNL     1      -0.079   1.077  24.577  0.00  0.00    -0.016 A 
ATOM      6  C   UNL     1      -0.678   0.568  24.324  0.00  0.00    +0.009 A 
ATOM      7  C   UNL     1      -0.568   0.105  23.650  0.00  0.00    +0.004 A 
ATOM      8  C   UNL     1       0.140   0.149  23.228  0.00  0.00    +0.037 A 
ATOM      9  C   UNL     1      -1.386   0.523  24.745  0.00  0.00    +0.053 C 
ATOM     28  N   UNL     1      -1.495   0.986  25.418  0.00  0.00    -0.274 NA
ATOM     29  C   UNL     1      -0.896   1.495  25.671  0.00  0.00    +0.130 C 
ATOM     30  C   UNL     1      -0.189   1.540  25.250  0.00  0.00    +0.053 C 
BRANCH   3   2
ATOM      1  C   UNL     1       1.752   0.031  22.694  0.00  0.00    +0.252 C 
ATOM      2  O   UNL     1       1.446   0.704  23.060  0.00  0.00    -0.471 OA
ENDBRANCH   3   2
ENDBRANCH  10   9
ENDBRANCH  11  10
BRANCH  16  17
ATOM     17  C   UNL     1      -2.891  -1.198  25.149  0.00  0.00    +0.114 C 
BRANCH  17  18
ATOM     18  C   UNL     1      -3.381  -1.850  25.267  0.00  0.00    +0.365 C 
ATOM     19  O   UNL     1      -3.698  -2.251  24.619  0.00  0.00    -0.246 OA
ATOM     20  O   UNL     1      -3.554  -2.104  26.033  0.00  0.00    -0.246 OA
ENDBRANCH  17  18
ENDBRANCH  16  17
TORSDOF 6
ENDMDL
MODEL 6
REMARK VINA RESULT:     -10.1      1.380      2.554
REMARK  Name = 
REMARK  6 active torsions:
REMARK  status: ('A' for Active; 'I' for Inactive)
REMARK    1  A    between atoms: O_2  and  C_3
REMARK    2  A    between atoms: C_9  and  C_10
REMARK    3  A    between atoms: C_10  and  C_11
REMARK    4  A    between atoms: C_16  and  C_17
REMARK    5  A    between atoms: C_17  and  C_18
REMARK    6  A    between atoms: C_21  and  C_23
REMARK                            x       y       z     vdW  Elec       q    Type
REMARK                         _______ _______ _______ _____ _____    ______ ____
ROOT
ATOM     11  C   UNL     1      -3.622   1.048  24.026  0.00  0.00    +0.026 C 
ATOM     12  C   UNL     1      -4.182   1.228  24.603  0.00  0.00    +0.094 C 
ATOM     13  N   UNL     1      -4.382   2.015  24.753  0.00  0.00    -0.274 N 
ATOM     14  C   UNL     1      -4.021   2.620  24.325  0.00  0.00    +0.094 C 
ATOM     15  C   UNL     1      -3.460   2.440  23.749  0.00  0.00    +0.022 C 
ATOM     16  C   UNL     1      -3.260   1.654  23.598  0.00  0.00    +0.015 C 
ATOM     21  C   UNL     1      -4.943   2.195  25.330  0.00  0.00    +0.284 C 
ATOM     22  O   UNL     1      -5.305   1.588  25.758  0.00  0.00    -0.267 OA
ENDROOT
BRANCH  21  23
ATOM     23  C   UNL     1      -5.143   2.981  25.480  0.00  0.00    +0.199 A 
ATOM     24  C   UNL     1      -5.871   3.336  25.321  0.00  0.00    +0.045 A 
ATOM     25  C   UNL     1      -5.828   4.125  25.558  0.00  0.00    +0.044 A 
ATOM     26  C   UNL     1      -5.073   4.258  25.863  0.00  0.00    +0.180 A 
ATOM     27  O   UNL     1      -4.650   3.551  25.815  0.00  0.00    -0.446 OA
ENDBRANCH  21  23
BRANCH  11  10
ATOM     10  C   UNL     1      -3.422   0.262  23.876  0.00  0.00    +0.047 C 
BRANCH  10   9
ATOM      3  C   UNL     1      -3.708  -2.626  24.535  0.00  0.00    +0.138 A 
ATOM      4  C   UNL     1      -3.236  -2.300  25.129  0.00  0.00    +0.033 A 
ATOM      5  C   UNL     1      -3.046  -1.497  25.113  0.00  0.00    -0.016 A 
ATOM      6  C   UNL     1      -3.329  -1.019  24.502  0.00  0.00    +0.009 A 
ATOM      7  C   UNL     1      -3.801  -1.344  23.909  0.00  0.00    +0.004 A 
ATOM      8  C   UNL     1      -3.991  -2.147  23.925  0.00  0.00    +0.037 A 
ATOM      9  C   UNL     1      -3.139  -0.217  24.486  0.00  0.00    +0.053 C 
ATOM     28  N   UNL     1      -2.667   0.108  25.079  0.00  0.00    -0.274 NA
ATOM     29  C   UNL     1      -2.384  -0.371  25.689  0.00  0.00    +0.130 C 
ATOM     30  C   UNL     1      -2.574  -1.173  25.706  0.00  0.00    +0.053 C 
BRANCH   3   2
ATOM      1  C   UNL     1      -3.963  -3.851  23.847  0.00  0.00    +0.252 C 
ATOM      2  O   UNL     1      -3.898  -3.428  24.552  0.00  0.00    -0.471 OA
ENDBRANCH   3   2
ENDBRANCH  10   9
ENDBRANCH  11  10
BRANCH  16  17
ATOM     17  C   UNL     1      -2.699   1.474  23.021  0.00  0.00    +0.114 C 
BRANCH  17  18
ATOM     18  C   UNL     1      -2.355   2.078  22.578  0.00  0.00    +0.365 C 
ATOM     19  O   UNL     1      -1.700   2.484  22.871  0.00  0.00    -0.246 OA
ATOM     20  O   UNL     1      -2.667   2.277  21.839  0.00  0.00    -0.246 OA
ENDBRANCH  17  18
ENDBRANCH  16  17
TORSDOF 6
ENDMDL
MODEL 7
REMARK VINA RESULT:     -10.0      2.102      3.794
REMARK  Name = 
REMARK  6 active torsions:
REMARK  status: ('A' for Active; 'I' for Inactive)
REMARK    1  A    between atoms: O_2  and  C_3
REMARK    2  A    between atoms: C_9  and  C_10
REMARK    3  A    between atoms: C_10  and  C_11
REMARK    4  A    between atoms: C_16  and  C_17
REMARK    5  A    between atoms: C_17  and  C_18
REMARK    6  A    between atoms: C_21  and  C_23
REMARK                            x       y       z     vdW  Elec       q    Type
REMARK                         _______ _______ _______ _____ _____    ______ ____
ROOT
ATOM     11  C   UNL     1      -2.227   2.080  24.854  0.00  0.00    +0.026 C 
ATOM     12  C   UNL     1      -2.870   1.596  24.677  0.00  0.00    +0.094 C 
ATOM     13  N   UNL     1      -3.636   1.846  24.857  0.00  0.00    -0.274 N 
ATOM     14  C   UNL     1      -3.757   2.580  25.214  0.00  0.00    +0.094 C 
ATOM     15  C   UNL     1      -3.113   3.064  25.390  0.00  0.00    +0.022 C 
ATOM     16  C   UNL     1      -2.348   2.815  25.211  0.00  0.00    +0.015 C 
ATOM     21  C   UNL     1      -4.281   1.362  24.681  0.00  0.00    +0.284 C 
ATOM     22  O   UNL     1      -4.159   0.628  24.324  0.00  0.00    -0.267 OA
ENDROOT
BRANCH  21  23
ATOM     23  C   UNL     1      -5.045   1.612  24.861  0.00  0.00    +0.199 A 
ATOM     24  C   UNL     1      -5.486   1.390  25.522  0.00  0.00    +0.045 A 
ATOM     25  C   UNL     1      -6.218   1.769  25.482  0.00  0.00    +0.044 A 
ATOM     26  C   UNL     1      -6.230   2.225  24.794  0.00  0.00    +0.180 A 
ATOM     27  O   UNL     1      -5.506   2.128  24.411  0.00  0.00    -0.446 OA
ENDBRANCH  21  23
BRANCH  11  10
ATOM     10  C   UNL     1      -1.461   1.830  24.674  0.00  0.00    +0.047 C 
BRANCH  10   9
ATOM      3  C   UNL     1       0.399  -0.120  23.414  0.00  0.00    +0.138 A 
ATOM      4  C   UNL     1       0.098  -0.491  24.086  0.00  0.00    +0.033 A 
ATOM      5  C   UNL     1      -0.442  -0.097  24.570  0.00  0.00    -0.016 A 
ATOM      6  C   UNL     1      -0.682   0.670  24.381  0.00  0.00    +0.009 A 
ATOM      7  C   UNL     1      -0.381   1.042  23.708  0.00  0.00    +0.004 A 
ATOM      8  C   UNL     1       0.159   0.648  23.224  0.00  0.00    +0.037 A 
ATOM      9  C   UNL     1      -1.222   1.064  24.864  0.00  0.00    +0.053 C 
ATOM     28  N   UNL     1      -1.521   0.693  25.536  0.00  0.00    -0.274 NA
ATOM     29  C   UNL     1      -1.281  -0.075  25.725  0.00  0.00    +0.130 C 
ATOM     30  C   UNL     1      -0.742  -0.468  25.242  0.00  0.00    +0.053 C 
BRANCH   3   2
ATOM      1  C   UNL     1       1.565  -0.100  22.589  0.00  0.00    +0.252 C 
ATOM      2  O   UNL     1       0.938  -0.514  22.931  0.00  0.00    -0.471 OA
ENDBRANCH   3   2
ENDBRANCH  10   9
ENDBRANCH  11  10
BRANCH  16  17
ATOM     17  C   UNL     1      -1.704   3.299  25.387  0.00  0.00    +0.114 C 
BRANCH  17  18
ATOM     18  C   UNL     1      -1.819   4.102  25.530  0.00  0.00    +0.365 C 
ATOM     19  O   UNL     1      -2.101   4.356  26.263  0.00  0.00    -0.246 OA
ATOM     20  O   UNL     1      -1.653   4.654  24.938  0.00  0.00    -0.246 OA
ENDBRANCH  17  18
ENDBRANCH  16  17
TORSDOF 6
ENDMDL
MODEL 8
REMARK VINA RESULT:      -9.9      1.738      4.533
REMARK  Name = 
REMARK  6 active torsions:
REMARK  status: ('A' for Active; 'I' for Inactive)
REMARK    1  A    between atoms: O_2  and  C_3
REMARK    2  A    between atoms: C_9  and  C_10
REMARK    3  A    between atoms: C_10  and  C_11
REMARK    4  A    between atoms: C_16  and  C_17
REMARK    5  A    between atoms: C_17  and  C_18
REMARK    6  A    between atoms: C_21  and  C_23
REMARK                            x       y       z     vdW  Elec       q    Type
REMARK                         _______ _______ _______ _____ _____    ______ ____
ROOT
ATOM     11  C   UNL     1      -3.359  -0.246  24.536  0.00  0.00    +0.026 C 
ATOM     12  C   UNL     1      -2.607  -0.059  24.813  0.00  0.00    +0.094 C 
ATOM     13  N   UNL     1      -2.027  -0.645  24.863  0.00  0.00    -0.274 N 
ATOM     14  C   UNL     1      -2.202  -1.418  24.635  0.00  0.00    +0.094 C 
ATOM     15  C   UNL     1      -2.955  -1.605  24.357  0.00  0.00    +0.022 C 
ATOM     16  C   UNL     1      -3.535  -1.020  24.307  0.00  0.00    +0.015 C 
ATOM     21  C   UNL     1      -1.273  -0.457  25.141  0.00  0.00    +0.284 C 
ATOM     22  O   UNL     1      -1.099   0.317  25.369  0.00  0.00    -0.267 OA
ENDROOT
BRANCH  21  23
ATOM     23  C   UNL     1      -0.695  -1.042  25.191  0.00  0.00    +0.199 A 
ATOM     24  C   UNL     1      -0.109  -1.195  24.630  0.00  0.00    +0.045 A 
ATOM     25  C   UNL     1       0.348  -1.826  24.902  0.00  0.00    +0.044 A 
ATOM     26  C   UNL     1       0.045  -2.063  25.632  0.00  0.00    +0.180 A 
ATOM     27  O   UNL     1      -0.599  -1.579  25.810  0.00  0.00    -0.446 OA
ENDBRANCH  21  23
BRANCH  11  10
ATOM     10  C   UNL     1      -3.939   0.339  24.485  0.00  0.00    +0.047 C 
BRANCH  10   9
ATOM      3  C   UNL     1      -4.724   3.155  25.041  0.00  0.00    +0.138 A 
ATOM      4  C   UNL     1      -4.231   3.180  24.379  0.00  0.00    +0.033 A 
ATOM      5  C   UNL     1      -3.911   2.483  24.075  0.00  0.00    -0.016 A 
ATOM      6  C   UNL     1      -4.085   1.759  24.432  0.00  0.00    +0.009 A 
ATOM      7  C   UNL     1      -4.577   1.734  25.094  0.00  0.00    +0.004 A 
ATOM      8  C   UNL     1      -4.897   2.431  25.398  0.00  0.00    +0.037 A 
ATOM      9  C   UNL     1      -3.765   1.062  24.128  0.00  0.00    +0.053 C 
ATOM     28  N   UNL     1      -3.273   1.088  23.468  0.00  0.00    -0.274 NA
ATOM     29  C   UNL     1      -3.100   1.812  23.110  0.00  0.00    +0.130 C 
ATOM     30  C   UNL     1      -3.419   2.509  23.414  0.00  0.00    +0.053 C 
BRANCH   3   2
ATOM      1  C   UNL     1      -5.777   3.839  25.721  0.00  0.00    +0.252 C 
ATOM      2  O   UNL     1      -5.043   3.851  25.345  0.00  0.00    -0.471 OA
ENDBRANCH   3   2
ENDBRANCH  10   9
ENDBRANCH  11  10
BRANCH  16  17
ATOM     17  C   UNL     1      -4.288  -1.208  24.029  0.00  0.00    +0.114 C 
BRANCH  17  18
ATOM     18  C   UNL     1      -4.454  -1.973  23.772  0.00  0.00    +0.365 C 
ATOM     19  O   UNL     1      -4.384  -2.164  22.972  0.00  0.00    -0.246 OA
ATOM     20  O   UNL     1      -4.690  -2.549  24.315  0.00  0.00    -0.246 OA
ENDBRANCH  17  18
ENDBRANCH  16  17
TORSDOF 6
ENDMDL
MODEL 9
REMARK VINA RESULT:      -9.5      1.614      2.370
REMARK  Name = 
REMARK  6 active torsions:
REMARK  status: ('A' for Active; 'I' for Inactive)
REMARK    1  A    between atoms: O_2  and  C_3
REMARK    2  A    between atoms: C_9  and  C_10
REMARK    3  A    between atoms: C_10  and  C_11
REMARK    4  A    between atoms: C_16  and  C_17
REMARK    5  A    between atoms: C_17  and  C_18
REMARK    6  A    between atoms: C_21  and  C_23
REMARK                            x       y       z     vdW  Elec       q    Type
REMARK                         _______ _______ _______ _____ _____    ______ ____
ROOT
ATOM     11  C   UNL     1      -2.491   1.624  23.827  0.00  0.00    +0.026 C 
ATOM     12  C   UNL     1      -2.207   1.981  24.513  0.00  0.00    +0.094 C 
ATOM     13  N   UNL     1      -1.976   2.773  24.501  0.00  0.00    -0.274 N 
ATOM     14  C   UNL     1      -2.030   3.207  23.802  0.00  0.00    +0.094 C 
ATOM     15  C   UNL     1      -2.314   2.850  23.116  0.00  0.00    +0.022 C 
ATOM     16  C   UNL     1      -2.545   2.059  23.127  0.00  0.00    +0.015 C 
ATOM     21  C   UNL     1      -1.692   3.131  25.189  0.00  0.00    +0.284 C 
ATOM     22  O   UNL     1      -1.638   2.695  25.888  0.00  0.00    -0.267 OA
ENDROOT
BRANCH  21  23
ATOM     23  C   UNL     1      -1.461   3.922  25.176  0.00  0.00    +0.199 A 
ATOM     24  C   UNL     1      -1.928   4.567  25.394  0.00  0.00    +0.045 A 
ATOM     25  C   UNL     1      -1.479   5.253  25.297  0.00  0.00    +0.044 A 
ATOM     26  C   UNL     1      -0.734   5.031  25.019  0.00  0.00    +0.180 A 
ATOM     27  O   UNL     1      -0.723   4.209  24.944  0.00  0.00    -0.446 OA
ENDBRANCH  21  23
BRANCH  11  10
ATOM     10  C   UNL     1      -2.722   0.832  23.839  0.00  0.00    +0.047 C 
BRANCH  10   9
ATOM      3  C   UNL     1      -3.411  -1.757  25.133  0.00  0.00    +0.138 A 
ATOM      4  C   UNL     1      -3.993  -1.221  25.367  0.00  0.00    +0.033 A 
ATOM      5  C   UNL     1      -3.967  -0.440  25.102  0.00  0.00    -0.016 A 
ATOM      6  C   UNL     1      -3.357  -0.194  24.603  0.00  0.00    +0.009 A 
ATOM      7  C   UNL     1      -2.775  -0.730  24.369  0.00  0.00    +0.004 A 
ATOM      8  C   UNL     1      -2.801  -1.511  24.633  0.00  0.00    +0.037 A 
ATOM      9  C   UNL     1      -3.331   0.586  24.338  0.00  0.00    +0.053 C 
ATOM     28  N   UNL     1      -3.913   1.121  24.572  0.00  0.00    -0.274 NA
ATOM     29  C   UNL     1      -4.523   0.875  25.071  0.00  0.00    +0.130 C 
ATOM     30  C   UNL     1      -4.549   0.095  25.336  0.00  0.00    +0.053 C 
BRANCH   3   2
ATOM      1  C   UNL     1      -3.349  -3.158  24.863  0.00  0.00    +0.252 C 
ATOM      2  O   UNL     1      -3.438  -2.537  25.398  0.00  0.00    -0.471 OA
ENDBRANCH   3   2
ENDBRANCH  10   9
ENDBRANCH  11  10
BRANCH  16  17
ATOM     17  C   UNL     1      -2.829   1.701  22.440  0.00  0.00    +0.114 C 
BRANCH  17  18
ATOM     18  C   UNL     1      -2.733   2.075  21.712  0.00  0.00    +0.365 C 
ATOM     19  O   UNL     1      -3.249   2.678  21.485  0.00  0.00    -0.246 OA
ATOM     20  O   UNL     1      -2.120   1.845  21.208  0.00  0.00    -0.246 OA
ENDBRANCH  17  18
ENDBRANCH  16  17
TORSDOF 6
ENDMDL
MODEL 10
REMARK VINA RESULT:      -9.2      1.280      2.659
REMARK  Name = 
REMARK  6 active torsions:
REMARK  status: ('A' for Active; 'I' for Inactive)
REMARK    1  A    between atoms: O_2  and  C_3
REMARK    2  A    between atoms: C_9  and  C_10
REMARK    3  A    between atoms: C_10  and  C_11
REMARK    4  A    between atoms: C_16  and  C_17
REMARK    5  A    between atoms: C_17  and  C_18
REMARK    6  A    between atoms: C_21  and  C_23
REMARK                            x       y       z     vdW  Elec       q    Type
REMARK                         _______ _______ _______ _____ _____    ______ ____
ROOT
ATOM     11  C   UNL     1      -2.191   0.755  24.795  0.00  0.00    +0.026 C 
ATOM     12  C   UNL     1      -2.964   1.037  24.756  0.00  0.00    +0.094 C 
ATOM     13  N   UNL     1      -3.110   1.848  24.808  0.00  0.00    -0.274 N 
ATOM     14  C   UNL     1      -2.482   2.375  24.898  0.00  0.00    +0.094 C 
ATOM     15  C   UNL     1      -1.709   2.093  24.937  0.00  0.00    +0.022 C 
ATOM     16  C   UNL     1      -1.562   1.283  24.885  0.00  0.00    +0.015 C 
ATOM     21  C   UNL     1      -3.884   2.131  24.769  0.00  0.00    +0.284 C 
ATOM     22  O   UNL     1      -4.512   1.602  24.678  0.00  0.00    -0.267 OA
ENDROOT
BRANCH  21  23
ATOM     23  C   UNL     1      -4.030   2.940  24.820  0.00  0.00    +0.199 A 
ATOM     24  C   UNL     1      -4.310   3.342  25.485  0.00  0.00    +0.045 A 
ATOM     25  C   UNL     1      -4.375   4.142  25.292  0.00  0.00    +0.044 A 
ATOM     26  C   UNL     1      -4.135   4.234  24.508  0.00  0.00    +0.180 A 
ATOM     27  O   UNL     1      -3.923   3.493  24.217  0.00  0.00    -0.446 OA
ENDBRANCH  21  23
BRANCH  11  10
ATOM     10  C   UNL     1      -2.044  -0.055  24.744  0.00  0.00    +0.047 C 
BRANCH  10   9
ATOM      3  C   UNL     1      -3.518  -2.604  24.316  0.00  0.00    +0.138 A 
ATOM      4  C   UNL     1      -3.551  -2.453  25.127  0.00  0.00    +0.033 A 
ATOM      5  C   UNL     1      -3.192  -1.778  25.437  0.00  0.00    -0.016 A 
ATOM      6  C   UNL     1      -2.797  -1.253  24.935  0.00  0.00    +0.009 A 
ATOM      7  C   UNL     1      -2.763  -1.405  24.125  0.00  0.00    +0.004 A 
ATOM      8  C   UNL     1      -3.123  -2.080  23.815  0.00  0.00    +0.037 A 
ATOM      9  C   UNL     1      -2.438  -0.579  25.245  0.00  0.00    +0.053 C 
ATOM     28  N   UNL     1      -2.472  -0.428  26.054  0.00  0.00    -0.274 NA
ATOM     29  C   UNL     1      -2.866  -0.953  26.556  0.00  0.00    +0.130 C 
ATOM     30  C   UNL     1      -3.226  -1.627  26.247  0.00  0.00    +0.053 C 
BRANCH   3   2
ATOM      1  C   UNL     1      -4.528  -3.206  23.506  0.00  0.00    +0.252 C 
ATOM      2  O   UNL     1      -3.877  -3.279  24.007  0.00  0.00    -0.471 OA
ENDBRANCH   3   2
ENDBRANCH  10   9
ENDBRANCH  11  10
BRANCH  16  17
ATOM     17  C   UNL     1      -0.788   1.000  24.924  0.00  0.00    +0.114 C 
BRANCH  17  18
ATOM     18  C   UNL     1      -0.155   1.525  24.873  0.00  0.00    +0.365 C 
ATOM     19  O   UNL     1       0.129   1.898  25.552  0.00  0.00    -0.246 OA
ATOM     20  O   UNL     1       0.197   1.678  24.141  0.00  0.00    -0.246 OA
ENDBRANCH  17  18
ENDBRANCH  16  17
TORSDOF 6
ENDMDL
