REMARK  Name = 
REMARK  6 active torsions:
REMARK  status: ('A' for Active; 'I' for Inactive)
REMARK    1  A    between atoms: O_2  and  C_3
REMARK    2  A    between atoms: C_6  and  C_7
REMARK    3  A    between atoms: C_7  and  N_8
REMARK    4  A    between atoms: C_9  and  C_11
REMARK    5  A    between atoms: C_11  and  C_12
REMARK    6  A    between atoms: C_14  and  C_15
REMARK                            x       y       z     vdW  Elec       q    Type
REMARK                         _______ _______ _______ _____ _____    ______ ____
ROOT
ATOM      8  N   UNL     1       0.000   2.475   0.000  0.00  0.00    -0.200 NA
ATOM      9  C   UNL     1       0.715   2.062   0.000  0.00  0.00    +0.244 C 
ATOM     10  O   UNL     1       0.715   1.238   0.000  0.00  0.00    -0.273 OA
ENDROOT
BRANCH   8   7
ATOM      7  C   UNL     1      -0.715   2.062   0.000  0.00  0.00    +0.141 C 
BRANCH   7   6
ATOM      3  C   UNL     1      -2.858   3.300   0.000  0.00  0.00    +0.139 A 
ATOM      4  C   UNL     1      -2.143   3.712   0.000  0.00  0.00    +0.037 A 
ATOM      5  C   UNL     1      -1.429   3.300   0.000  0.00  0.00    +0.001 A 
ATOM      6  C   UNL     1      -1.429   2.475   0.000  0.00  0.00    -0.000 A 
ATOM     21  C   UNL     1      -2.143   2.062   0.000  0.00  0.00    +0.001 A 
ATOM     22  C   UNL     1      -2.858   2.475   0.000  0.00  0.00    +0.037 A 
BRANCH   3   2
ATOM      1  C   UNL     1      -4.287   3.300   0.000  0.00  0.00    +0.252 C 
ATOM      2  O   UNL     1      -3.572   3.712   0.000  0.00  0.00    -0.471 OA
ENDBRANCH   3   2
ENDBRANCH   7   6
ENDBRANCH   8   7
BRANCH   9  11
ATOM     11  C   UNL     1       1.429   2.475   0.000  0.00  0.00    +0.119 C 
BRANCH  11  12
ATOM     12  C   UNL     1       2.143   2.062   0.000  0.00  0.00    +0.157 C 
ATOM     13  O   UNL     1       2.897   2.398   0.000  0.00  0.00    -0.351 OA
ATOM     14  C   UNL     1       3.449   1.785   0.000  0.00  0.00    +0.167 C 
ATOM     17  C   UNL     1       3.037   1.071   0.000  0.00  0.00    +0.213 C 
ATOM     18  O   UNL     1       3.372   0.317   0.000  0.00  0.00    -0.218 OA
ATOM     19  C   UNL     1       2.230   1.242   0.000  0.00  0.00    +0.212 C 
ATOM     20  O   UNL     1       1.617   0.690   0.000  0.00  0.00    -0.218 OA
BRANCH  14  15
ATOM     15  C   UNL     1       4.270   1.871   0.000  0.00  0.00    +0.141 C 
ATOM     16  N   UNL     1       4.605   2.625   0.000  0.00  0.00    -0.129 NA
ENDBRANCH  14  15
ENDBRANCH  11  12
ENDBRANCH   9  11
TORSDOF 6
