MODEL 1
REMARK VINA RESULT:      -8.5      0.000      0.000
REMARK  Name = 
REMARK  6 active torsions:
REMARK  status: ('A' for Active; 'I' for Inactive)
REMARK    1  A    between atoms: C_2  and  C_5
REMARK    2  A    between atoms: C_5  and  C_6
REMARK    3  A    between atoms: N_8  and  C_9
REMARK    4  A    between atoms: C_9  and  C_10
REMARK    5  A    between atoms: C_13  and  N_14
REMARK    6  A    between atoms: N_14  and  C_15
REMARK                            x       y       z     vdW  Elec       q    Type
REMARK                         _______ _______ _______ _____ _____    ______ ____
ROOT
ATOM     10  C   UNL     1      -2.105   1.362  24.944  0.00  0.00    +0.169 C 
ATOM     11  O   UNL     1      -2.679   1.919  24.745  0.00  0.00    -0.350 OA
ATOM     12  C   UNL     1      -2.402   2.663  24.969  0.00  0.00    +0.162 C 
ATOM     13  C   UNL     1      -1.655   2.565  25.307  0.00  0.00    +0.135 C 
ATOM     19  C   UNL     1      -1.472   1.761  25.291  0.00  0.00    +0.199 C 
ATOM     20  O   UNL     1      -0.778   1.415  25.573  0.00  0.00    -0.219 OA
ENDROOT
BRANCH  10   9
ATOM      9  C   UNL     1      -2.155   0.549  24.818  0.00  0.00    +0.147 C 
BRANCH   9   8
ATOM      6  C   UNL     1      -2.938  -0.645  24.747  0.00  0.00    +0.241 C 
ATOM      7  O   UNL     1      -2.288  -1.054  24.447  0.00  0.00    -0.273 OA
ATOM      8  N   UNL     1      -2.872   0.156  24.933  0.00  0.00    -0.203 NA
BRANCH   6   5
ATOM      5  C   UNL     1      -3.655  -1.037  24.862  0.00  0.00    +0.087 C 
BRANCH   5   2
ATOM      1  C   UNL     1      -3.883  -2.543  24.228  0.00  0.00    +0.000 C 
ATOM      2  C   UNL     1      -3.769  -1.790  24.545  0.00  0.00    +0.009 C 
ATOM      3  C   UNL     1      -3.419  -2.125  25.214  0.00  0.00    +0.000 C 
ATOM      4  C   UNL     1      -4.118  -1.457  23.877  0.00  0.00    +0.000 C 
ENDBRANCH   5   2
ENDBRANCH   6   5
ENDBRANCH   9   8
ENDBRANCH  10   9
BRANCH  13  14
ATOM     14  N   UNL     1      -1.176   3.166  25.607  0.00  0.00    -0.211 NA
BRANCH  14  15
ATOM     15  C   UNL     1      -1.313   3.949  25.389  0.00  0.00    +0.132 C 
ATOM     16  C   UNL     1      -1.885   4.516  25.574  0.00  0.00    +0.162 C 
ATOM     17  O   UNL     1      -1.506   5.058  25.081  0.00  0.00    -0.351 OA
ATOM     18  C   UNL     1      -0.934   4.493  24.897  0.00  0.00    +0.162 C 
ENDBRANCH  14  15
ENDBRANCH  13  14
TORSDOF 6
ENDMDL
MODEL 2
REMARK VINA RESULT:      -8.3      1.165      5.170
REMARK  Name = 
REMARK  6 active torsions:
REMARK  status: ('A' for Active; 'I' for Inactive)
REMARK    1  A    between atoms: C_2  and  C_5
REMARK    2  A    between atoms: C_5  and  C_6
REMARK    3  A    between atoms: N_8  and  C_9
REMARK    4  A    between atoms: C_9  and  C_10
REMARK    5  A    between atoms: C_13  and  N_14
REMARK    6  A    between atoms: N_14  and  C_15
REMARK                            x       y       z     vdW  Elec       q    Type
REMARK                         _______ _______ _______ _____ _____    ______ ____
ROOT
ATOM     10  C   UNL     1      -3.164   1.167  24.664  0.00  0.00    +0.169 C 
ATOM     11  O   UNL     1      -2.542   0.626  24.682  0.00  0.00    -0.350 OA
ATOM     12  C   UNL     1      -2.863  -0.133  24.690  0.00  0.00    +0.162 C 
ATOM     13  C   UNL     1      -3.686  -0.063  24.677  0.00  0.00    +0.135 C 
ATOM     19  C   UNL     1      -3.871   0.741  24.661  0.00  0.00    +0.199 C 
ATOM     20  O   UNL     1      -4.631   1.064  24.644  0.00  0.00    -0.219 OA
ENDROOT
BRANCH  10   9
ATOM      9  C   UNL     1      -3.093   1.988  24.651  0.00  0.00    +0.147 C 
BRANCH   9   8
ATOM      6  C   UNL     1      -2.383   3.172  25.022  0.00  0.00    +0.241 C 
ATOM      7  O   UNL     1      -2.864   3.617  24.520  0.00  0.00    -0.273 OA
ATOM      8  N   UNL     1      -2.498   2.357  25.087  0.00  0.00    -0.203 NA
BRANCH   6   5
ATOM      5  C   UNL     1      -1.788   3.541  25.458  0.00  0.00    +0.087 C 
BRANCH   5   2
ATOM      1  C   UNL     1      -1.310   5.072  25.071  0.00  0.00    +0.000 C 
ATOM      2  C   UNL     1      -1.550   4.306  25.265  0.00  0.00    +0.009 C 
ATOM      3  C   UNL     1      -0.896   4.001  24.863  0.00  0.00    +0.000 C 
ATOM      4  C   UNL     1      -2.202   4.613  25.666  0.00  0.00    +0.000 C 
ENDBRANCH   5   2
ENDBRANCH   6   5
ENDBRANCH   9   8
ENDBRANCH  10   9
BRANCH  13  14
ATOM     14  N   UNL     1      -4.226  -0.685  24.680  0.00  0.00    -0.211 NA
BRANCH  14  15
ATOM     15  C   UNL     1      -3.964  -1.459  24.564  0.00  0.00    +0.132 C 
ATOM     16  C   UNL     1      -3.974  -1.990  23.931  0.00  0.00    +0.162 C 
ATOM     17  O   UNL     1      -3.594  -2.553  24.400  0.00  0.00    -0.351 OA
ATOM     18  C   UNL     1      -3.584  -2.023  25.031  0.00  0.00    +0.162 C 
ENDBRANCH  14  15
ENDBRANCH  13  14
TORSDOF 6
ENDMDL
MODEL 3
REMARK VINA RESULT:      -8.3      1.251      1.646
REMARK  Name = 
REMARK  6 active torsions:
REMARK  status: ('A' for Active; 'I' for Inactive)
REMARK    1  A    between atoms: C_2  and  C_5
REMARK    2  A    between atoms: C_5  and  C_6
REMARK    3  A    between atoms: N_8  and  C_9
REMARK    4  A    between atoms: C_9  and  C_10
REMARK    5  A    between atoms: C_13  and  N_14
REMARK    6  A    between atoms: N_14  and  C_15
REMARK                            x       y       z     vdW  Elec       q    Type
REMARK                         _______ _______ _______ _____ _____    ______ ____
ROOT
ATOM     10  C   UNL     1      -3.531   1.338  24.618  0.00  0.00    +0.169 C 
ATOM     11  O   UNL     1      -2.718   1.450  24.693  0.00  0.00    -0.350 OA
ATOM     12  C   UNL     1      -2.579   2.258  24.787  0.00  0.00    +0.162 C 
ATOM     13  C   UNL     1      -3.308   2.646  24.772  0.00  0.00    +0.135 C 
ATOM     19  C   UNL     1      -3.896   2.077  24.667  0.00  0.00    +0.199 C 
ATOM     20  O   UNL     1      -4.707   2.220  24.620  0.00  0.00    -0.219 OA
ENDROOT
BRANCH  10   9
ATOM      9  C   UNL     1      -3.913   0.615  24.514  0.00  0.00    +0.147 C 
BRANCH   9   8
ATOM      6  C   UNL     1      -3.848  -0.786  24.240  0.00  0.00    +0.241 C 
ATOM      7  O   UNL     1      -4.639  -0.866  24.462  0.00  0.00    -0.273 OA
ATOM      8  N   UNL     1      -3.486  -0.045  24.266  0.00  0.00    -0.203 NA
BRANCH   6   5
ATOM      5  C   UNL     1      -3.421  -1.447  23.992  0.00  0.00    +0.087 C 
BRANCH   5   2
ATOM      1  C   UNL     1      -3.787  -2.940  24.590  0.00  0.00    +0.000 C 
ATOM      2  C   UNL     1      -3.604  -2.193  24.291  0.00  0.00    +0.009 C 
ATOM      3  C   UNL     1      -3.029  -2.100  24.876  0.00  0.00    +0.000 C 
ATOM      4  C   UNL     1      -4.178  -2.287  23.707  0.00  0.00    +0.000 C 
ENDBRANCH   5   2
ENDBRANCH   6   5
ENDBRANCH   9   8
ENDBRANCH  10   9
BRANCH  13  14
ATOM     14  N   UNL     1      -3.427   3.458  24.847  0.00  0.00    -0.211 NA
BRANCH  14  15
ATOM     15  C   UNL     1      -2.870   3.921  25.242  0.00  0.00    +0.132 C 
ATOM     16  C   UNL     1      -2.765   4.169  26.023  0.00  0.00    +0.162 C 
ATOM     17  O   UNL     1      -2.082   4.576  25.801  0.00  0.00    -0.351 OA
ATOM     18  C   UNL     1      -2.188   4.329  25.021  0.00  0.00    +0.162 C 
ENDBRANCH  14  15
ENDBRANCH  13  14
TORSDOF 6
ENDMDL
