MODEL 1
REMARK VINA RESULT:     -12.2      0.000      0.000
REMARK  Name = 
REMARK  6 active torsions:
REMARK  status: ('A' for Active; 'I' for Inactive)
REMARK    1  A    between atoms: C_2  and  O_14
REMARK    2  A    between atoms: N_3  and  C_4
REMARK    3  A    between atoms: O_14  and  C_15
REMARK    4  A    between atoms: C_19  and  N_23
REMARK    5  A    between atoms: C_27  and  S_28
REMARK    6  A    between atoms: S_28  and  C_29
REMARK                            x       y       z     vdW  Elec       q    Type
REMARK                         _______ _______ _______ _____ _____    ______ ____
ROOT
ATOM     15  C   UNL     1      -0.860   0.828  24.835  0.00  0.00    +0.229 C 
ATOM     16  C   UNL     1      -0.898   0.964  25.647  0.00  0.00    +0.188 C 
ATOM     17  O   UNL     1      -1.210   1.719  25.765  0.00  0.00    -0.348 OA
ATOM     18  C   UNL     1      -1.365   2.048  25.025  0.00  0.00    +0.171 C 
ATOM     19  C   UNL     1      -1.654   2.718  24.640  0.00  0.00    +0.168 C 
ATOM     20  C   UNL     1      -1.616   2.582  23.827  0.00  0.00    +0.169 C 
ATOM     21  O   UNL     1      -1.304   1.827  23.710  0.00  0.00    -0.348 OA
ATOM     22  C   UNL     1      -1.148   1.497  24.450  0.00  0.00    +0.187 C 
ENDROOT
BRANCH  19  23
ATOM     23  N   UNL     1      -1.932   3.404  25.003  0.00  0.00    -0.205 N 
ATOM     24  N   UNL     1      -1.477   3.949  25.425  0.00  0.00    -0.042 NA
ATOM     25  N   UNL     1      -1.978   4.547  25.692  0.00  0.00    -0.022 NA
ATOM     26  N   UNL     1      -2.742   4.374  25.435  0.00  0.00    -0.101 NA
ATOM     27  C   UNL     1      -2.714   3.667  25.009  0.00  0.00    +0.215 A 
BRANCH  27  28
ATOM     28  S   UNL     1      -3.355   3.290  24.653  0.00  0.00    -0.047 S 
BRANCH  28  29
ATOM     29  C   UNL     1      -4.103   3.334  24.998  0.00  0.00    +0.032 A 
ATOM     30  C   UNL     1      -4.532   4.037  24.967  0.00  0.00    +0.007 A 
ATOM     31  C   UNL     1      -5.280   4.081  25.312  0.00  0.00    +0.001 A 
ATOM     32  C   UNL     1      -5.599   3.419  25.690  0.00  0.00    +0.000 A 
ATOM     33  C   UNL     1      -5.170   2.716  25.720  0.00  0.00    +0.001 A 
ATOM     34  C   UNL     1      -4.422   2.672  25.375  0.00  0.00    +0.007 A 
ENDBRANCH  28  29
ENDBRANCH  27  28
ENDBRANCH  19  23
BRANCH  15  14
ATOM     14  O   UNL     1      -0.581   0.141  24.471  0.00  0.00    -0.432 OA
BRANCH  14   2
ATOM      1  O   UNL     1      -0.626  -1.066  25.233  0.00  0.00    -0.224 OA
ATOM      2  C   UNL     1      -0.934  -0.586  24.638  0.00  0.00    +0.425 C 
ATOM      3  N   UNL     1      -1.594  -0.832  24.209  0.00  0.00    -0.142 NA
BRANCH   3   4
ATOM      4  C   UNL     1      -1.947  -1.559  24.376  0.00  0.00    +0.077 A 
ATOM      5  C   UNL     1      -1.489  -2.182  24.663  0.00  0.00    +0.017 A 
ATOM      6  C   UNL     1      -1.840  -2.910  24.831  0.00  0.00    +0.001 A 
ATOM      7  C   UNL     1      -2.650  -3.013  24.711  0.00  0.00    +0.000 A 
ATOM      8  C   UNL     1      -3.108  -2.390  24.424  0.00  0.00    +0.001 A 
ATOM      9  C   UNL     1      -3.917  -2.494  24.305  0.00  0.00    +0.000 A 
ATOM     10  C   UNL     1      -4.375  -1.870  24.018  0.00  0.00    +0.000 A 
ATOM     11  C   UNL     1      -4.023  -1.143  23.850  0.00  0.00    +0.000 A 
ATOM     12  C   UNL     1      -3.214  -1.039  23.970  0.00  0.00    +0.001 A 
ATOM     13  C   UNL     1      -2.756  -1.662  24.257  0.00  0.00    +0.015 A 
ENDBRANCH   3   4
ENDBRANCH  14   2
ENDBRANCH  15  14
TORSDOF 6
ENDMDL
MODEL 2
REMARK VINA RESULT:     -12.2      1.564      5.306
REMARK  Name = 
REMARK  6 active torsions:
REMARK  status: ('A' for Active; 'I' for Inactive)
REMARK    1  A    between atoms: C_2  and  O_14
REMARK    2  A    between atoms: N_3  and  C_4
REMARK    3  A    between atoms: O_14  and  C_15
REMARK    4  A    between atoms: C_19  and  N_23
REMARK    5  A    between atoms: C_27  and  S_28
REMARK    6  A    between atoms: S_28  and  C_29
REMARK                            x       y       z     vdW  Elec       q    Type
REMARK                         _______ _______ _______ _____ _____    ______ ____
ROOT
ATOM     15  C   UNL     1      -0.194   1.188  25.091  0.00  0.00    +0.229 C 
ATOM     16  C   UNL     1      -0.069   1.062  24.285  0.00  0.00    +0.188 C 
ATOM     17  O   UNL     1      -0.319   0.296  24.105  0.00  0.00    -0.348 OA
ATOM     18  C   UNL     1      -0.598  -0.050  24.799  0.00  0.00    +0.171 C 
ATOM     19  C   UNL     1      -0.924  -0.738  25.117  0.00  0.00    +0.168 C 
ATOM     20  C   UNL     1      -1.049  -0.612  25.924  0.00  0.00    +0.169 C 
ATOM     21  O   UNL     1      -0.800   0.153  26.103  0.00  0.00    -0.348 OA
ATOM     22  C   UNL     1      -0.521   0.501  25.408  0.00  0.00    +0.187 C 
ENDROOT
BRANCH  19  23
ATOM     23  N   UNL     1      -1.096  -1.430  24.703  0.00  0.00    -0.205 N 
ATOM     24  N   UNL     1      -0.550  -1.907  24.308  0.00  0.00    -0.042 NA
ATOM     25  N   UNL     1      -0.960  -2.539  23.972  0.00  0.00    -0.022 NA
ATOM     26  N   UNL     1      -1.759  -2.452  24.158  0.00  0.00    -0.101 NA
ATOM     27  C   UNL     1      -1.843  -1.767  24.610  0.00  0.00    +0.215 A 
BRANCH  27  28
ATOM     28  S   UNL     1      -2.550  -1.471  24.916  0.00  0.00    -0.047 S 
BRANCH  28  29
ATOM     29  C   UNL     1      -3.264  -1.642  24.540  0.00  0.00    +0.032 A 
ATOM     30  C   UNL     1      -3.567  -2.409  24.558  0.00  0.00    +0.007 A 
ATOM     31  C   UNL     1      -4.282  -2.580  24.183  0.00  0.00    +0.001 A 
ATOM     32  C   UNL     1      -4.694  -1.983  23.789  0.00  0.00    +0.000 A 
ATOM     33  C   UNL     1      -4.390  -1.217  23.771  0.00  0.00    +0.001 A 
ATOM     34  C   UNL     1      -3.676  -1.045  24.146  0.00  0.00    +0.007 A 
ENDBRANCH  28  29
ENDBRANCH  27  28
ENDBRANCH  19  23
BRANCH  15  14
ATOM     14  O   UNL     1      -0.023   1.880  25.506  0.00  0.00    -0.432 OA
BRANCH  14   2
ATOM      1  O   UNL     1      -0.131   2.863  24.474  0.00  0.00    -0.224 OA
ATOM      2  C   UNL     1      -0.311   2.605  25.236  0.00  0.00    +0.425 C 
ATOM      3  N   UNL     1      -0.781   3.071  25.730  0.00  0.00    -0.142 NA
BRANCH   3   4
ATOM      4  C   UNL     1      -1.070   3.795  25.460  0.00  0.00    +0.077 A 
ATOM      5  C   UNL     1      -0.578   4.301  25.031  0.00  0.00    +0.017 A 
ATOM      6  C   UNL     1      -0.866   5.025  24.761  0.00  0.00    +0.001 A 
ATOM      7  C   UNL     1      -1.645   5.244  24.919  0.00  0.00    +0.000 A 
ATOM      8  C   UNL     1      -2.137   4.738  25.348  0.00  0.00    +0.001 A 
ATOM      9  C   UNL     1      -2.916   4.957  25.507  0.00  0.00    +0.000 A 
ATOM     10  C   UNL     1      -3.408   4.452  25.935  0.00  0.00    +0.000 A 
ATOM     11  C   UNL     1      -3.119   3.727  26.205  0.00  0.00    +0.000 A 
ATOM     12  C   UNL     1      -2.340   3.509  26.047  0.00  0.00    +0.001 A 
ATOM     13  C   UNL     1      -1.849   4.014  25.618  0.00  0.00    +0.015 A 
ENDBRANCH   3   4
ENDBRANCH  14   2
ENDBRANCH  15  14
TORSDOF 6
ENDMDL
MODEL 3
REMARK VINA RESULT:     -11.6      1.772      2.999
REMARK  Name = 
REMARK  6 active torsions:
REMARK  status: ('A' for Active; 'I' for Inactive)
REMARK    1  A    between atoms: C_2  and  O_14
REMARK    2  A    between atoms: N_3  and  C_4
REMARK    3  A    between atoms: O_14  and  C_15
REMARK    4  A    between atoms: C_19  and  N_23
REMARK    5  A    between atoms: C_27  and  S_28
REMARK    6  A    between atoms: S_28  and  C_29
REMARK                            x       y       z     vdW  Elec       q    Type
REMARK                         _______ _______ _______ _____ _____    ______ ____
ROOT
ATOM     15  C   UNL     1      -4.390   0.705  24.643  0.00  0.00    +0.229 C 
ATOM     16  C   UNL     1      -4.116   0.816  23.873  0.00  0.00    +0.188 C 
ATOM     17  O   UNL     1      -4.002   1.625  23.757  0.00  0.00    -0.348 OA
ATOM     18  C   UNL     1      -4.206   2.013  24.456  0.00  0.00    +0.171 C 
ATOM     19  C   UNL     1      -4.261   2.753  24.816  0.00  0.00    +0.168 C 
ATOM     20  C   UNL     1      -4.536   2.641  25.587  0.00  0.00    +0.169 C 
ATOM     21  O   UNL     1      -4.650   1.833  25.702  0.00  0.00    -0.348 OA
ATOM     22  C   UNL     1      -4.446   1.444  25.003  0.00  0.00    +0.187 C 
ENDROOT
BRANCH  19  23
ATOM     23  N   UNL     1      -4.076   3.477  24.468  0.00  0.00    -0.205 N 
ATOM     24  N   UNL     1      -4.518   3.865  23.889  0.00  0.00    -0.042 NA
ATOM     25  N   UNL     1      -4.131   4.569  23.701  0.00  0.00    -0.022 NA
ATOM     26  N   UNL     1      -3.450   4.616  24.164  0.00  0.00    -0.101 NA
ATOM     27  C   UNL     1      -3.416   3.942  24.638  0.00  0.00    +0.215 A 
BRANCH  27  28
ATOM     28  S   UNL     1      -2.825   3.763  25.186  0.00  0.00    -0.047 S 
BRANCH  28  29
ATOM     29  C   UNL     1      -2.074   4.093  25.103  0.00  0.00    +0.032 A 
ATOM     30  C   UNL     1      -1.948   4.887  25.289  0.00  0.00    +0.007 A 
ATOM     31  C   UNL     1      -1.197   5.217  25.207  0.00  0.00    +0.001 A 
ATOM     32  C   UNL     1      -0.569   4.752  24.938  0.00  0.00    +0.000 A 
ATOM     33  C   UNL     1      -0.695   3.959  24.753  0.00  0.00    +0.001 A 
ATOM     34  C   UNL     1      -1.446   3.629  24.835  0.00  0.00    +0.007 A 
ENDBRANCH  28  29
ENDBRANCH  27  28
ENDBRANCH  19  23
BRANCH  15  14
ATOM     14  O   UNL     1      -4.576  -0.020  24.991  0.00  0.00    -0.432 OA
BRANCH  14   2
ATOM      1  O   UNL     1      -4.408  -1.111  24.083  0.00  0.00    -0.224 OA
ATOM      2  C   UNL     1      -4.175  -0.703  24.761  0.00  0.00    +0.425 C 
ATOM      3  N   UNL     1      -3.538  -0.978  25.209  0.00  0.00    -0.142 NA
BRANCH   3   4
ATOM      4  C   UNL     1      -3.137  -1.661  24.979  0.00  0.00    +0.077 A 
ATOM      5  C   UNL     1      -3.559  -2.311  24.695  0.00  0.00    +0.017 A 
ATOM      6  C   UNL     1      -3.158  -2.994  24.465  0.00  0.00    +0.001 A 
ATOM      7  C   UNL     1      -2.335  -3.028  24.519  0.00  0.00    +0.000 A 
ATOM      8  C   UNL     1      -1.914  -2.378  24.803  0.00  0.00    +0.001 A 
ATOM      9  C   UNL     1      -1.091  -2.411  24.857  0.00  0.00    +0.000 A 
ATOM     10  C   UNL     1      -0.669  -1.761  25.141  0.00  0.00    +0.000 A 
ATOM     11  C   UNL     1      -1.071  -1.078  25.371  0.00  0.00    +0.000 A 
ATOM     12  C   UNL     1      -1.893  -1.045  25.317  0.00  0.00    +0.001 A 
ATOM     13  C   UNL     1      -2.314  -1.694  25.033  0.00  0.00    +0.015 A 
ENDBRANCH   3   4
ENDBRANCH  14   2
ENDBRANCH  15  14
TORSDOF 6
ENDMDL
MODEL 4
REMARK VINA RESULT:     -11.4      1.343      5.052
REMARK  Name = 
REMARK  6 active torsions:
REMARK  status: ('A' for Active; 'I' for Inactive)
REMARK    1  A    between atoms: C_2  and  O_14
REMARK    2  A    between atoms: N_3  and  C_4
REMARK    3  A    between atoms: O_14  and  C_15
REMARK    4  A    between atoms: C_19  and  N_23
REMARK    5  A    between atoms: C_27  and  S_28
REMARK    6  A    between atoms: S_28  and  C_29
REMARK                            x       y       z     vdW  Elec       q    Type
REMARK                         _______ _______ _______ _____ _____    ______ ____
ROOT
ATOM     15  C   UNL     1      -0.678   1.786  25.097  0.00  0.00    +0.229 C 
ATOM     16  C   UNL     1      -0.627   1.493  25.866  0.00  0.00    +0.188 C 
ATOM     17  O   UNL     1      -0.589   0.669  25.822  0.00  0.00    -0.348 OA
ATOM     18  C   UNL     1      -0.616   0.455  25.027  0.00  0.00    +0.171 C 
ATOM     19  C   UNL     1      -0.609  -0.186  24.507  0.00  0.00    +0.168 C 
ATOM     20  C   UNL     1      -0.660   0.108  23.738  0.00  0.00    +0.169 C 
ATOM     21  O   UNL     1      -0.698   0.931  23.782  0.00  0.00    -0.348 OA
ATOM     22  C   UNL     1      -0.671   1.146  24.578  0.00  0.00    +0.187 C 
ENDROOT
BRANCH  19  23
ATOM     23  N   UNL     1      -0.560  -0.981  24.719  0.00  0.00    -0.205 N 
ATOM     24  N   UNL     1       0.104  -1.361  25.029  0.00  0.00    -0.042 NA
ATOM     25  N   UNL     1      -0.092  -2.151  25.160  0.00  0.00    -0.022 NA
ATOM     26  N   UNL     1      -0.877  -2.260  24.932  0.00  0.00    -0.101 NA
ATOM     27  C   UNL     1      -1.166  -1.537  24.660  0.00  0.00    +0.215 A 
BRANCH  27  28
ATOM     28  S   UNL     1      -1.929  -1.396  24.377  0.00  0.00    -0.047 S 
BRANCH  28  29
ATOM     29  C   UNL     1      -2.543  -1.909  24.575  0.00  0.00    +0.032 A 
ATOM     30  C   UNL     1      -2.996  -1.773  25.250  0.00  0.00    +0.007 A 
ATOM     31  C   UNL     1      -3.610  -2.286  25.447  0.00  0.00    +0.001 A 
ATOM     32  C   UNL     1      -3.773  -2.938  24.968  0.00  0.00    +0.000 A 
ATOM     33  C   UNL     1      -3.320  -3.074  24.292  0.00  0.00    +0.001 A 
ATOM     34  C   UNL     1      -2.706  -2.561  24.095  0.00  0.00    +0.007 A 
ENDBRANCH  28  29
ENDBRANCH  27  28
ENDBRANCH  19  23
BRANCH  15  14
ATOM     14  O   UNL     1      -0.726   2.582  24.884  0.00  0.00    -0.432 OA
BRANCH  14   2
ATOM      1  O   UNL     1      -1.127   3.484  25.918  0.00  0.00    -0.224 OA
ATOM      2  C   UNL     1      -1.299   3.066  25.228  0.00  0.00    +0.425 C 
ATOM      3  N   UNL     1      -2.045   3.133  24.881  0.00  0.00    -0.142 NA
BRANCH   3   4
ATOM      4  C   UNL     1      -2.618   3.616  25.225  0.00  0.00    +0.077 A 
ATOM      5  C   UNL     1      -2.390   4.285  25.652  0.00  0.00    +0.017 A 
ATOM      6  C   UNL     1      -2.962   4.770  25.996  0.00  0.00    +0.001 A 
ATOM      7  C   UNL     1      -3.762   4.586  25.914  0.00  0.00    +0.000 A 
ATOM      8  C   UNL     1      -3.990   3.917  25.487  0.00  0.00    +0.001 A 
ATOM      9  C   UNL     1      -4.790   3.733  25.405  0.00  0.00    +0.000 A 
ATOM     10  C   UNL     1      -5.018   3.064  24.978  0.00  0.00    +0.000 A 
ATOM     11  C   UNL     1      -4.445   2.580  24.634  0.00  0.00    +0.000 A 
ATOM     12  C   UNL     1      -3.645   2.764  24.717  0.00  0.00    +0.001 A 
ATOM     13  C   UNL     1      -3.418   3.432  25.143  0.00  0.00    +0.015 A 
ENDBRANCH   3   4
ENDBRANCH  14   2
ENDBRANCH  15  14
TORSDOF 6
ENDMDL
MODEL 5
REMARK VINA RESULT:     -10.9      1.638      2.105
REMARK  Name = 
REMARK  6 active torsions:
REMARK  status: ('A' for Active; 'I' for Inactive)
REMARK    1  A    between atoms: C_2  and  O_14
REMARK    2  A    between atoms: N_3  and  C_4
REMARK    3  A    between atoms: O_14  and  C_15
REMARK    4  A    between atoms: C_19  and  N_23
REMARK    5  A    between atoms: C_27  and  S_28
REMARK    6  A    between atoms: S_28  and  C_29
REMARK                            x       y       z     vdW  Elec       q    Type
REMARK                         _______ _______ _______ _____ _____    ______ ____
ROOT
ATOM     15  C   UNL     1      -0.566  -0.359  24.891  0.00  0.00    +0.229 C 
ATOM     16  C   UNL     1      -0.730  -0.345  25.699  0.00  0.00    +0.188 C 
ATOM     17  O   UNL     1      -0.552   0.409  25.984  0.00  0.00    -0.348 OA
ATOM     18  C   UNL     1      -0.277   0.861  25.351  0.00  0.00    +0.171 C 
ATOM     19  C   UNL     1       0.003   1.606  25.135  0.00  0.00    +0.168 C 
ATOM     20  C   UNL     1       0.167   1.592  24.326  0.00  0.00    +0.169 C 
ATOM     21  O   UNL     1      -0.011   0.839  24.043  0.00  0.00    -0.348 OA
ATOM     22  C   UNL     1      -0.286   0.386  24.676  0.00  0.00    +0.187 C 
ENDROOT
BRANCH  19  23
ATOM     23  N   UNL     1       0.101   2.252  25.639  0.00  0.00    -0.205 N 
ATOM     24  N   UNL     1       0.642   2.304  26.260  0.00  0.00    -0.042 NA
ATOM     25  N   UNL     1       0.552   3.043  26.615  0.00  0.00    -0.022 NA
ATOM     26  N   UNL     1      -0.044   3.447  26.214  0.00  0.00    -0.101 NA
ATOM     27  C   UNL     1      -0.323   2.958  25.610  0.00  0.00    +0.215 A 
BRANCH  27  28
ATOM     28  S   UNL     1      -0.921   3.144  25.073  0.00  0.00    -0.047 S 
BRANCH  28  29
ATOM     29  C   UNL     1      -1.390   3.811  25.192  0.00  0.00    +0.032 A 
ATOM     30  C   UNL     1      -2.123   3.741  25.563  0.00  0.00    +0.007 A 
ATOM     31  C   UNL     1      -2.592   4.408  25.683  0.00  0.00    +0.001 A 
ATOM     32  C   UNL     1      -2.327   5.149  25.431  0.00  0.00    +0.000 A 
ATOM     33  C   UNL     1      -1.594   5.219  25.060  0.00  0.00    +0.001 A 
ATOM     34  C   UNL     1      -1.125   4.552  24.940  0.00  0.00    +0.007 A 
ENDBRANCH  28  29
ENDBRANCH  27  28
ENDBRANCH  19  23
BRANCH  15  14
ATOM     14  O   UNL     1      -0.664  -1.004  24.387  0.00  0.00    -0.432 OA
BRANCH  14   2
ATOM      1  O   UNL     1      -1.263  -2.143  25.009  0.00  0.00    -0.224 OA
ATOM      2  C   UNL     1      -1.310  -1.508  24.484  0.00  0.00    +0.425 C 
ATOM      3  N   UNL     1      -2.003  -1.377  24.056  0.00  0.00    -0.142 NA
BRANCH   3   4
ATOM      4  C   UNL     1      -2.649  -1.881  24.153  0.00  0.00    +0.077 A 
ATOM      5  C   UNL     1      -2.527  -2.686  24.288  0.00  0.00    +0.017 A 
ATOM      6  C   UNL     1      -3.173  -3.191  24.385  0.00  0.00    +0.001 A 
ATOM      7  C   UNL     1      -3.940  -2.891  24.348  0.00  0.00    +0.000 A 
ATOM      8  C   UNL     1      -4.062  -2.086  24.213  0.00  0.00    +0.001 A 
ATOM      9  C   UNL     1      -4.829  -1.786  24.175  0.00  0.00    +0.000 A 
ATOM     10  C   UNL     1      -4.951  -0.981  24.041  0.00  0.00    +0.000 A 
ATOM     11  C   UNL     1      -4.306  -0.477  23.943  0.00  0.00    +0.000 A 
ATOM     12  C   UNL     1      -3.538  -0.777  23.981  0.00  0.00    +0.001 A 
ATOM     13  C   UNL     1      -3.417  -1.581  24.115  0.00  0.00    +0.015 A 
ENDBRANCH   3   4
ENDBRANCH  14   2
ENDBRANCH  15  14
TORSDOF 6
ENDMDL
MODEL 6
REMARK VINA RESULT:     -10.9      1.997      5.662
REMARK  Name = 
REMARK  6 active torsions:
REMARK  status: ('A' for Active; 'I' for Inactive)
REMARK    1  A    between atoms: C_2  and  O_14
REMARK    2  A    between atoms: N_3  and  C_4
REMARK    3  A    between atoms: O_14  and  C_15
REMARK    4  A    between atoms: C_19  and  N_23
REMARK    5  A    between atoms: C_27  and  S_28
REMARK    6  A    between atoms: S_28  and  C_29
REMARK                            x       y       z     vdW  Elec       q    Type
REMARK                         _______ _______ _______ _____ _____    ______ ____
ROOT
ATOM     15  C   UNL     1      -4.121   1.980  24.491  0.00  0.00    +0.229 C 
ATOM     16  C   UNL     1      -3.893   1.808  23.718  0.00  0.00    +0.188 C 
ATOM     17  O   UNL     1      -3.893   0.987  23.628  0.00  0.00    -0.348 OA
ATOM     18  C   UNL     1      -4.122   0.653  24.346  0.00  0.00    +0.171 C 
ATOM     19  C   UNL     1      -4.263  -0.061  24.736  0.00  0.00    +0.168 C 
ATOM     20  C   UNL     1      -4.492   0.112  25.510  0.00  0.00    +0.169 C 
ATOM     21  O   UNL     1      -4.491   0.932  25.599  0.00  0.00    -0.348 OA
ATOM     22  C   UNL     1      -4.262   1.267  24.880  0.00  0.00    +0.187 C 
ENDROOT
BRANCH  19  23
ATOM     23  N   UNL     1      -4.190  -0.814  24.409  0.00  0.00    -0.205 N 
ATOM     24  N   UNL     1      -4.693  -1.151  23.848  0.00  0.00    -0.042 NA
ATOM     25  N   UNL     1      -4.415  -1.908  23.678  0.00  0.00    -0.022 NA
ATOM     26  N   UNL     1      -3.740  -2.040  24.133  0.00  0.00    -0.101 NA
ATOM     27  C   UNL     1      -3.601  -1.364  24.585  0.00  0.00    +0.215 A 
BRANCH  27  28
ATOM     28  S   UNL     1      -2.981  -1.257  25.120  0.00  0.00    -0.047 S 
BRANCH  28  29
ATOM     29  C   UNL     1      -2.240  -1.580  24.961  0.00  0.00    +0.032 A 
ATOM     30  C   UNL     1      -2.132  -2.398  24.984  0.00  0.00    +0.007 A 
ATOM     31  C   UNL     1      -1.390  -2.722  24.826  0.00  0.00    +0.001 A 
ATOM     32  C   UNL     1      -0.755  -2.227  24.643  0.00  0.00    +0.000 A 
ATOM     33  C   UNL     1      -0.863  -1.410  24.620  0.00  0.00    +0.001 A 
ATOM     34  C   UNL     1      -1.604  -1.086  24.779  0.00  0.00    +0.007 A 
ENDBRANCH  28  29
ENDBRANCH  27  28
ENDBRANCH  19  23
BRANCH  15  14
ATOM     14  O   UNL     1      -4.194   2.734  24.819  0.00  0.00    -0.432 OA
BRANCH  14   2
ATOM      1  O   UNL     1      -3.546   3.812  24.140  0.00  0.00    -0.224 OA
ATOM      2  C   UNL     1      -3.570   3.270  24.762  0.00  0.00    +0.425 C 
ATOM      3  N   UNL     1      -2.970   3.265  25.328  0.00  0.00    -0.142 NA
BRANCH   3   4
ATOM      4  C   UNL     1      -2.346   3.802  25.271  0.00  0.00    +0.077 A 
ATOM      5  C   UNL     1      -2.496   4.589  25.074  0.00  0.00    +0.017 A 
ATOM      6  C   UNL     1      -1.872   5.127  25.017  0.00  0.00    +0.001 A 
ATOM      7  C   UNL     1      -1.098   4.877  25.157  0.00  0.00    +0.000 A 
ATOM      8  C   UNL     1      -0.948   4.089  25.354  0.00  0.00    +0.001 A 
ATOM      9  C   UNL     1      -0.175   3.839  25.494  0.00  0.00    +0.000 A 
ATOM     10  C   UNL     1      -0.025   3.052  25.691  0.00  0.00    +0.000 A 
ATOM     11  C   UNL     1      -0.649   2.515  25.748  0.00  0.00    +0.000 A 
ATOM     12  C   UNL     1      -1.423   2.765  25.608  0.00  0.00    +0.001 A 
ATOM     13  C   UNL     1      -1.572   3.552  25.411  0.00  0.00    +0.015 A 
ENDBRANCH   3   4
ENDBRANCH  14   2
ENDBRANCH  15  14
TORSDOF 6
ENDMDL
