MODEL 1
REMARK VINA RESULT:     -14.3      0.000      0.000
REMARK  Name = 
REMARK  4 active torsions:
REMARK  status: ('A' for Active; 'I' for Inactive)
REMARK    1  A    between atoms: C_7  and  N_10
REMARK    2  A    between atoms: C_19  and  N_20
REMARK    3  A    between atoms: N_20  and  S_21
REMARK    4  A    between atoms: S_21  and  C_24
REMARK                            x       y       z     vdW  Elec       q    Type
REMARK                         _______ _______ _______ _____ _____    ______ ____
ROOT
ATOM     10  N   UNL     1      -3.890   3.148  24.954  0.00  0.00    -0.273 NA
ATOM     11  C   UNL     1      -4.382   3.782  25.185  0.00  0.00    +0.074 C 
ATOM     12  C   UNL     1      -5.194   3.279  25.437  0.00  0.00    +0.039 C 
ATOM     13  C   UNL     1      -5.926   3.018  25.681  0.00  0.00    +0.011 C 
ATOM     14  C   UNL     1      -5.329   2.738  25.441  0.00  0.00    +0.054 C 
ATOM     15  C   UNL     1      -4.552   3.238  25.201  0.00  0.00    +0.078 C 
ATOM     16  C   UNL     1      -4.944   1.929  25.235  0.00  0.00    +0.041 A 
ATOM     17  C   UNL     1      -5.113   1.122  25.229  0.00  0.00    +0.014 A 
ATOM     18  C   UNL     1      -4.542   0.583  24.978  0.00  0.00    +0.024 A 
ATOM     19  C   UNL     1      -3.801   0.851  24.732  0.00  0.00    +0.147 A 
ATOM     29  C   UNL     1      -3.632   1.658  24.737  0.00  0.00    +0.277 A 
ATOM     30  O   UNL     1      -2.897   1.418  24.451  0.00  0.00    -0.266 OA
ATOM     31  N   UNL     1      -4.203   2.197  24.989  0.00  0.00    -0.298 N 
ATOM     32  C   UNL     1      -4.783   2.439  25.219  0.00  0.00    +0.110 C 
ENDROOT
BRANCH  10   7
ATOM      1  C   UNL     1      -0.614   1.351  24.378  0.00  0.00    +0.095 C 
ATOM      2  C   UNL     1      -1.204   1.580  23.850  0.00  0.00    +0.226 C 
ATOM      3  O   UNL     1      -1.123   1.417  23.045  0.00  0.00    -0.275 OA
ATOM      4  N   UNL     1      -1.875   1.972  24.126  0.00  0.00    -0.279 N 
ATOM      5  C   UNL     1      -2.466   2.201  23.598  0.00  0.00    +0.095 C 
ATOM      6  C   UNL     1      -3.137   2.593  23.873  0.00  0.00    +0.038 C 
ATOM      7  C   UNL     1      -3.218   2.756  24.678  0.00  0.00    +0.061 C 
ATOM      8  C   UNL     1      -2.629   2.527  25.207  0.00  0.00    +0.038 C 
ATOM      9  C   UNL     1      -1.957   2.134  24.931  0.00  0.00    +0.095 C 
ENDBRANCH  10   7
BRANCH  19  20
ATOM     20  N   UNL     1      -3.231   0.311  24.480  0.00  0.00    -0.091 NA
BRANCH  20  21
ATOM     21  S   UNL     1      -3.403  -0.495  24.464  0.00  0.00    +0.099 S 
ATOM     22  O   UNL     1      -3.690  -0.419  23.695  0.00  0.00    -0.148 OA
ATOM     23  O   UNL     1      -3.117  -0.572  25.234  0.00  0.00    -0.148 OA
BRANCH  21  24
ATOM     24  C   UNL     1      -3.576  -1.302  24.449  0.00  0.00    +0.156 A 
ATOM     25  C   UNL     1      -4.074  -1.681  23.912  0.00  0.00    +0.027 A 
ATOM     26  C   UNL     1      -4.086  -2.485  24.099  0.00  0.00    +0.009 A 
ATOM     27  C   UNL     1      -3.597  -2.602  24.753  0.00  0.00    +0.037 A 
ATOM     28  S   UNL     1      -3.281  -1.870  24.969  0.00  0.00    -0.066 S 
ENDBRANCH  21  24
ENDBRANCH  20  21
ENDBRANCH  19  20
TORSDOF 4
ENDMDL
MODEL 2
REMARK VINA RESULT:     -14.1      1.512      3.922
REMARK  Name = 
REMARK  4 active torsions:
REMARK  status: ('A' for Active; 'I' for Inactive)
REMARK    1  A    between atoms: C_7  and  N_10
REMARK    2  A    between atoms: C_19  and  N_20
REMARK    3  A    between atoms: N_20  and  S_21
REMARK    4  A    between atoms: S_21  and  C_24
REMARK                            x       y       z     vdW  Elec       q    Type
REMARK                         _______ _______ _______ _____ _____    ______ ____
ROOT
ATOM     10  N   UNL     1      -2.061  -1.746  24.692  0.00  0.00    -0.273 NA
ATOM     11  C   UNL     1      -2.172  -2.570  24.610  0.00  0.00    +0.074 C 
ATOM     12  C   UNL     1      -3.142  -2.588  24.422  0.00  0.00    +0.039 C 
ATOM     13  C   UNL     1      -3.919  -2.771  24.259  0.00  0.00    +0.011 C 
ATOM     14  C   UNL     1      -3.535  -2.195  24.375  0.00  0.00    +0.054 C 
ATOM     15  C   UNL     1      -2.597  -2.194  24.556  0.00  0.00    +0.078 C 
ATOM     16  C   UNL     1      -3.606  -1.280  24.430  0.00  0.00    +0.041 A 
ATOM     17  C   UNL     1      -4.164  -0.676  24.367  0.00  0.00    +0.014 A 
ATOM     18  C   UNL     1      -3.934   0.109  24.470  0.00  0.00    +0.024 A 
ATOM     19  C   UNL     1      -3.147   0.291  24.635  0.00  0.00    +0.147 A 
ATOM     29  C   UNL     1      -2.588  -0.313  24.697  0.00  0.00    +0.277 A 
ATOM     30  O   UNL     1      -2.063   0.305  24.844  0.00  0.00    -0.266 OA
ATOM     31  N   UNL     1      -2.818  -1.099  24.595  0.00  0.00    -0.298 N 
ATOM     32  C   UNL     1      -3.206  -1.632  24.480  0.00  0.00    +0.110 C 
ENDROOT
BRANCH  10   7
ATOM      1  C   UNL     1      -0.145   1.511  24.574  0.00  0.00    +0.095 C 
ATOM      2  C   UNL     1      -0.491   1.110  25.206  0.00  0.00    +0.226 C 
ATOM      3  O   UNL     1      -0.443   1.424  25.969  0.00  0.00    -0.275 OA
ATOM      4  N   UNL     1      -0.883   0.397  25.079  0.00  0.00    -0.279 N 
ATOM      5  C   UNL     1      -1.228  -0.004  25.711  0.00  0.00    +0.095 C 
ATOM      6  C   UNL     1      -1.621  -0.718  25.583  0.00  0.00    +0.038 C 
ATOM      7  C   UNL     1      -1.668  -1.032  24.821  0.00  0.00    +0.061 C 
ATOM      8  C   UNL     1      -1.323  -0.632  24.188  0.00  0.00    +0.038 C 
ATOM      9  C   UNL     1      -0.930   0.083  24.316  0.00  0.00    +0.095 C 
ENDBRANCH  10   7
BRANCH  19  20
ATOM     20  N   UNL     1      -2.918   1.076  24.737  0.00  0.00    -0.091 NA
BRANCH  20  21
ATOM     21  S   UNL     1      -3.483   1.677  24.719  0.00  0.00    +0.099 S 
ATOM     22  O   UNL     1      -3.371   1.758  23.906  0.00  0.00    -0.148 OA
ATOM     23  O   UNL     1      -3.595   1.596  25.532  0.00  0.00    -0.148 OA
BRANCH  21  24
ATOM     24  C   UNL     1      -4.049   2.278  24.701  0.00  0.00    +0.156 A 
ATOM     25  C   UNL     1      -4.706   2.338  25.195  0.00  0.00    +0.027 A 
ATOM     26  C   UNL     1      -5.120   3.021  24.985  0.00  0.00    +0.009 A 
ATOM     27  C   UNL     1      -4.717   3.382  24.362  0.00  0.00    +0.037 A 
ATOM     28  S   UNL     1      -4.055   2.922  24.186  0.00  0.00    -0.066 S 
ENDBRANCH  21  24
ENDBRANCH  20  21
ENDBRANCH  19  20
TORSDOF 4
ENDMDL
MODEL 3
REMARK VINA RESULT:     -13.5      1.296      1.452
REMARK  Name = 
REMARK  4 active torsions:
REMARK  status: ('A' for Active; 'I' for Inactive)
REMARK    1  A    between atoms: C_7  and  N_10
REMARK    2  A    between atoms: C_19  and  N_20
REMARK    3  A    between atoms: N_20  and  S_21
REMARK    4  A    between atoms: S_21  and  C_24
REMARK                            x       y       z     vdW  Elec       q    Type
REMARK                         _______ _______ _______ _____ _____    ______ ____
ROOT
ATOM     10  N   UNL     1      -4.387   2.900  24.925  0.00  0.00    -0.273 NA
ATOM     11  C   UNL     1      -5.181   3.158  24.974  0.00  0.00    +0.074 C 
ATOM     12  C   UNL     1      -5.635   2.283  25.041  0.00  0.00    +0.039 C 
ATOM     13  C   UNL     1      -6.151   1.655  25.104  0.00  0.00    +0.011 C 
ATOM     14  C   UNL     1      -5.458   1.754  25.049  0.00  0.00    +0.054 C 
ATOM     15  C   UNL     1      -5.034   2.607  24.984  0.00  0.00    +0.078 C 
ATOM     16  C   UNL     1      -4.665   1.291  25.007  0.00  0.00    +0.041 A 
ATOM     17  C   UNL     1      -4.373   0.520  25.015  0.00  0.00    +0.014 A 
ATOM     18  C   UNL     1      -3.561   0.386  24.960  0.00  0.00    +0.024 A 
ATOM     19  C   UNL     1      -3.041   1.024  24.897  0.00  0.00    +0.147 A 
ATOM     29  C   UNL     1      -3.333   1.795  24.889  0.00  0.00    +0.277 A 
ATOM     30  O   UNL     1      -2.539   2.004  24.821  0.00  0.00    -0.266 OA
ATOM     31  N   UNL     1      -4.146   1.929  24.944  0.00  0.00    -0.298 N 
ATOM     32  C   UNL     1      -4.802   1.808  24.998  0.00  0.00    +0.110 C 
ENDROOT
BRANCH  10   7
ATOM      1  C   UNL     1      -0.640   3.165  25.351  0.00  0.00    +0.095 C 
ATOM      2  C   UNL     1      -1.102   3.084  24.673  0.00  0.00    +0.226 C 
ATOM      3  O   UNL     1      -0.742   3.049  23.930  0.00  0.00    -0.275 OA
ATOM      4  N   UNL     1      -1.923   3.038  24.735  0.00  0.00    -0.279 N 
ATOM      5  C   UNL     1      -2.385   2.957  24.057  0.00  0.00    +0.095 C 
ATOM      6  C   UNL     1      -3.206   2.911  24.119  0.00  0.00    +0.038 C 
ATOM      7  C   UNL     1      -3.566   2.946  24.862  0.00  0.00    +0.061 C 
ATOM      8  C   UNL     1      -3.104   3.027  25.540  0.00  0.00    +0.038 C 
ATOM      9  C   UNL     1      -2.283   3.073  25.477  0.00  0.00    +0.095 C 
ENDBRANCH  10   7
BRANCH  19  20
ATOM     20  N   UNL     1      -2.229   0.890  24.841  0.00  0.00    -0.091 NA
BRANCH  20  21
ATOM     21  S   UNL     1      -1.935   0.120  24.865  0.00  0.00    +0.099 S 
ATOM     22  O   UNL     1      -1.985   0.075  24.043  0.00  0.00    -0.148 OA
ATOM     23  O   UNL     1      -1.886   0.164  25.687  0.00  0.00    -0.148 OA
BRANCH  21  24
ATOM     24  C   UNL     1      -1.641  -0.651  24.889  0.00  0.00    +0.156 A 
ATOM     25  C   UNL     1      -1.906  -1.285  24.433  0.00  0.00    +0.027 A 
ATOM     26  C   UNL     1      -1.459  -1.949  24.637  0.00  0.00    +0.009 A 
ATOM     27  C   UNL     1      -0.919  -1.724  25.218  0.00  0.00    +0.037 A 
ATOM     28  S   UNL     1      -1.031  -0.921  25.375  0.00  0.00    -0.066 S 
ENDBRANCH  21  24
ENDBRANCH  20  21
ENDBRANCH  19  20
TORSDOF 4
ENDMDL
MODEL 4
REMARK VINA RESULT:     -13.5      1.137      2.715
REMARK  Name = 
REMARK  4 active torsions:
REMARK  status: ('A' for Active; 'I' for Inactive)
REMARK    1  A    between atoms: C_7  and  N_10
REMARK    2  A    between atoms: C_19  and  N_20
REMARK    3  A    between atoms: N_20  and  S_21
REMARK    4  A    between atoms: S_21  and  C_24
REMARK                            x       y       z     vdW  Elec       q    Type
REMARK                         _______ _______ _______ _____ _____    ______ ____
ROOT
ATOM     10  N   UNL     1      -2.842   3.521  25.037  0.00  0.00    -0.273 NA
ATOM     11  C   UNL     1      -2.244   4.103  25.034  0.00  0.00    +0.074 C 
ATOM     12  C   UNL     1      -1.451   3.526  24.918  0.00  0.00    +0.039 C 
ATOM     13  C   UNL     1      -0.711   3.196  24.827  0.00  0.00    +0.011 C 
ATOM     14  C   UNL     1      -1.376   2.976  24.866  0.00  0.00    +0.054 C 
ATOM     15  C   UNL     1      -2.133   3.547  24.979  0.00  0.00    +0.078 C 
ATOM     16  C   UNL     1      -1.884   2.210  24.846  0.00  0.00    +0.041 A 
ATOM     17  C   UNL     1      -1.806   1.392  24.772  0.00  0.00    +0.014 A 
ATOM     18  C   UNL     1      -2.477   0.911  24.790  0.00  0.00    +0.024 A 
ATOM     19  C   UNL     1      -3.224   1.248  24.882  0.00  0.00    +0.147 A 
ATOM     29  C   UNL     1      -3.301   2.066  24.956  0.00  0.00    +0.277 A 
ATOM     30  O   UNL     1      -4.107   1.898  25.012  0.00  0.00    -0.266 OA
ATOM     31  N   UNL     1      -2.631   2.547  24.939  0.00  0.00    -0.298 N 
ATOM     32  C   UNL     1      -1.989   2.731  24.899  0.00  0.00    +0.110 C 
ENDROOT
BRANCH  10   7
ATOM      1  C   UNL     1      -6.204   2.033  25.921  0.00  0.00    +0.095 C 
ATOM      2  C   UNL     1      -5.872   2.221  25.190  0.00  0.00    +0.226 C 
ATOM      3  O   UNL     1      -6.298   2.084  24.496  0.00  0.00    -0.275 OA
ATOM      4  N   UNL     1      -5.115   2.546  25.151  0.00  0.00    -0.279 N 
ATOM      5  C   UNL     1      -4.783   2.734  24.420  0.00  0.00    +0.095 C 
ATOM      6  C   UNL     1      -4.026   3.059  24.382  0.00  0.00    +0.038 C 
ATOM      7  C   UNL     1      -3.600   3.196  25.076  0.00  0.00    +0.061 C 
ATOM      8  C   UNL     1      -3.931   3.007  25.807  0.00  0.00    +0.038 C 
ATOM      9  C   UNL     1      -4.689   2.682  25.845  0.00  0.00    +0.095 C 
ENDBRANCH  10   7
BRANCH  19  20
ATOM     20  N   UNL     1      -3.893   0.767  24.900  0.00  0.00    -0.091 NA
BRANCH  20  21
ATOM     21  S   UNL     1      -3.817  -0.050  24.818  0.00  0.00    +0.099 S 
ATOM     22  O   UNL     1      -3.853   0.028  23.998  0.00  0.00    -0.148 OA
ATOM     23  O   UNL     1      -3.781  -0.129  25.638  0.00  0.00    -0.148 OA
BRANCH  21  24
ATOM     24  C   UNL     1      -3.740  -0.868  24.737  0.00  0.00    +0.156 A 
ATOM     25  C   UNL     1      -3.413  -1.381  25.293  0.00  0.00    +0.027 A 
ATOM     26  C   UNL     1      -3.448  -2.147  24.985  0.00  0.00    +0.009 A 
ATOM     27  C   UNL     1      -3.796  -2.105  24.239  0.00  0.00    +0.037 A 
ATOM     28  S   UNL     1      -3.977  -1.314  24.085  0.00  0.00    -0.066 S 
ENDBRANCH  21  24
ENDBRANCH  20  21
ENDBRANCH  19  20
TORSDOF 4
ENDMDL
MODEL 5
REMARK VINA RESULT:     -13.1      1.583      4.286
REMARK  Name = 
REMARK  4 active torsions:
REMARK  status: ('A' for Active; 'I' for Inactive)
REMARK    1  A    between atoms: C_7  and  N_10
REMARK    2  A    between atoms: C_19  and  N_20
REMARK    3  A    between atoms: N_20  and  S_21
REMARK    4  A    between atoms: S_21  and  C_24
REMARK                            x       y       z     vdW  Elec       q    Type
REMARK                         _______ _______ _______ _____ _____    ______ ____
ROOT
ATOM     10  N   UNL     1      -3.733  -1.422  24.434  0.00  0.00    -0.273 NA
ATOM     11  C   UNL     1      -3.822  -2.247  24.341  0.00  0.00    +0.074 C 
ATOM     12  C   UNL     1      -2.883  -2.530  24.464  0.00  0.00    +0.039 C 
ATOM     13  C   UNL     1      -2.171  -2.919  24.541  0.00  0.00    +0.011 C 
ATOM     14  C   UNL     1      -2.406  -2.258  24.566  0.00  0.00    +0.054 C 
ATOM     15  C   UNL     1      -3.318  -2.001  24.445  0.00  0.00    +0.078 C 
ATOM     16  C   UNL     1      -2.118  -1.395  24.693  0.00  0.00    +0.041 A 
ATOM     17  C   UNL     1      -1.431  -0.965  24.843  0.00  0.00    +0.014 A 
ATOM     18  C   UNL     1      -1.466  -0.144  24.915  0.00  0.00    +0.024 A 
ATOM     19  C   UNL     1      -2.188   0.247  24.837  0.00  0.00    +0.147 A 
ATOM     29  C   UNL     1      -2.876  -0.183  24.687  0.00  0.00    +0.277 A 
ATOM     30  O   UNL     1      -3.238   0.558  24.699  0.00  0.00    -0.266 OA
ATOM     31  N   UNL     1      -2.841  -1.004  24.615  0.00  0.00    -0.298 N 
ATOM     32  C   UNL     1      -2.591  -1.625  24.596  0.00  0.00    +0.110 C 
ENDROOT
BRANCH  10   7
ATOM      1  C   UNL     1      -4.822   2.090  25.316  0.00  0.00    +0.095 C 
ATOM      2  C   UNL     1      -4.574   1.765  24.600  0.00  0.00    +0.226 C 
ATOM      3  O   UNL     1      -4.537   2.237  23.924  0.00  0.00    -0.275 OA
ATOM      4  N   UNL     1      -4.364   0.969  24.558  0.00  0.00    -0.279 N 
ATOM      5  C   UNL     1      -4.117   0.644  23.841  0.00  0.00    +0.095 C 
ATOM      6  C   UNL     1      -3.906  -0.152  23.799  0.00  0.00    +0.038 C 
ATOM      7  C   UNL     1      -3.943  -0.625  24.475  0.00  0.00    +0.061 C 
ATOM      8  C   UNL     1      -4.190  -0.301  25.192  0.00  0.00    +0.038 C 
ATOM      9  C   UNL     1      -4.401   0.496  25.234  0.00  0.00    +0.095 C 
ENDBRANCH  10   7
BRANCH  19  20
ATOM     20  N   UNL     1      -2.222   1.068  24.909  0.00  0.00    -0.091 NA
BRANCH  20  21
ATOM     21  S   UNL     1      -1.534   1.499  25.055  0.00  0.00    +0.099 S 
ATOM     22  O   UNL     1      -1.414   1.582  24.243  0.00  0.00    -0.148 OA
ATOM     23  O   UNL     1      -1.654   1.415  25.866  0.00  0.00    -0.148 OA
BRANCH  21  24
ATOM     24  C   UNL     1      -0.845   1.929  25.202  0.00  0.00    +0.156 A 
ATOM     25  C   UNL     1      -0.534   2.107  25.944  0.00  0.00    +0.027 A 
ATOM     26  C   UNL     1       0.157   2.545  25.832  0.00  0.00    +0.009 A 
ATOM     27  C   UNL     1       0.270   2.639  25.021  0.00  0.00    +0.037 A 
ATOM     28  S   UNL     1      -0.349   2.258  24.630  0.00  0.00    -0.066 S 
ENDBRANCH  21  24
ENDBRANCH  20  21
ENDBRANCH  19  20
TORSDOF 4
ENDMDL
