MODEL 1
REMARK VINA RESULT:     -11.8      0.000      0.000
REMARK  Name = 
REMARK  4 active torsions:
REMARK  status: ('A' for Active; 'I' for Inactive)
REMARK    1  A    between atoms: C_2  and  S_3
REMARK    2  A    between atoms: S_3  and  C_6
REMARK    3  A    between atoms: C_11  and  C_13
REMARK    4  A    between atoms: C_18  and  C_20
REMARK                            x       y       z     vdW  Elec       q    Type
REMARK                         _______ _______ _______ _____ _____    ______ ____
ROOT
ATOM      6  C   UNL     1      -3.169  -1.690  24.552  0.00  0.00    +0.107 A 
ATOM      7  C   UNL     1      -3.120  -0.966  24.943  0.00  0.00    +0.041 A 
ATOM      8  C   UNL     1      -3.712  -0.401  24.843  0.00  0.00    +0.120 A 
ATOM      9  C   UNL     1      -4.355  -0.560  24.350  0.00  0.00    +0.164 A 
ATOM     10  O   UNL     1      -4.851   0.098  24.357  0.00  0.00    -0.438 OA
ATOM     11  C   UNL     1      -4.516   0.665  24.854  0.00  0.00    +0.207 A 
ATOM     12  N   UNL     1      -3.812   0.356  25.153  0.00  0.00    -0.212 NA
ATOM     26  C   UNL     1      -4.405  -1.285  23.958  0.00  0.00    +0.040 A 
ATOM     27  C   UNL     1      -3.812  -1.850  24.060  0.00  0.00    +0.022 A 
ENDROOT
BRANCH  11  13
ATOM     13  C   UNL     1      -4.829   1.409  25.021  0.00  0.00    +0.098 C 
ATOM     14  C   UNL     1      -5.627   1.586  25.131  0.00  0.00    +0.032 C 
ATOM     15  C   UNL     1      -5.692   2.394  25.286  0.00  0.00    +0.094 C 
ATOM     16  N   UNL     1      -4.932   2.717  25.272  0.00  0.00    -0.276 N 
ATOM     17  C   UNL     1      -4.400   2.108  25.108  0.00  0.00    +0.103 C 
ATOM     18  C   UNL     1      -4.739   3.508  25.399  0.00  0.00    +0.249 C 
ATOM     19  O   UNL     1      -5.334   4.058  25.558  0.00  0.00    -0.270 OA
BRANCH  18  20
ATOM     20  C   UNL     1      -3.951   3.752  25.368  0.00  0.00    +0.057 A 
ATOM     21  C   UNL     1      -3.600   3.922  24.640  0.00  0.00    +0.025 A 
ATOM     22  C   UNL     1      -2.813   4.165  24.610  0.00  0.00    +0.099 A 
ATOM     23  N   UNL     1      -2.376   4.238  25.305  0.00  0.00    -0.242 NA
ATOM     24  C   UNL     1      -2.727   4.068  26.033  0.00  0.00    +0.099 A 
ATOM     25  C   UNL     1      -3.515   3.825  26.064  0.00  0.00    +0.025 A 
ENDBRANCH  18  20
ENDBRANCH  11  13
BRANCH   6   3
ATOM      3  S   UNL     1      -2.578  -2.255  24.653  0.00  0.00    +0.009 S 
ATOM      4  O   UNL     1      -2.046  -1.772  24.248  0.00  0.00    -0.169 OA
ATOM      5  O   UNL     1      -3.108  -2.739  25.059  0.00  0.00    -0.169 OA
BRANCH   3   2
ATOM      1  C   UNL     1      -1.196  -2.620  24.618  0.00  0.00    +0.028 C 
ATOM      2  C   UNL     1      -1.985  -2.821  24.755  0.00  0.00    +0.156 C 
ENDBRANCH   3   2
ENDBRANCH   6   3
TORSDOF 4
ENDMDL
MODEL 2
REMARK VINA RESULT:     -11.0      1.780      2.740
REMARK  Name = 
REMARK  4 active torsions:
REMARK  status: ('A' for Active; 'I' for Inactive)
REMARK    1  A    between atoms: C_2  and  S_3
REMARK    2  A    between atoms: S_3  and  C_6
REMARK    3  A    between atoms: C_11  and  C_13
REMARK    4  A    between atoms: C_18  and  C_20
REMARK                            x       y       z     vdW  Elec       q    Type
REMARK                         _______ _______ _______ _____ _____    ______ ____
ROOT
ATOM      6  C   UNL     1      -1.944  -1.575  24.851  0.00  0.00    +0.107 A 
ATOM      7  C   UNL     1      -2.237  -0.812  24.745  0.00  0.00    +0.041 A 
ATOM      8  C   UNL     1      -1.782  -0.160  24.965  0.00  0.00    +0.120 A 
ATOM      9  C   UNL     1      -1.032  -0.272  25.291  0.00  0.00    +0.164 A 
ATOM     10  O   UNL     1      -0.711   0.470  25.454  0.00  0.00    -0.438 OA
ATOM     11  C   UNL     1      -1.262   1.041  25.230  0.00  0.00    +0.207 A 
ATOM     12  N   UNL     1      -1.924   0.651  24.927  0.00  0.00    -0.212 NA
ATOM     26  C   UNL     1      -0.738  -1.036  25.397  0.00  0.00    +0.040 A 
ATOM     27  C   UNL     1      -1.194  -1.687  25.176  0.00  0.00    +0.022 A 
ENDROOT
BRANCH  11  13
ATOM     13  C   UNL     1      -1.169   1.858  25.296  0.00  0.00    +0.098 C 
ATOM     14  C   UNL     1      -0.453   2.259  25.380  0.00  0.00    +0.032 C 
ATOM     15  C   UNL     1      -0.615   3.066  25.425  0.00  0.00    +0.094 C 
ATOM     16  N   UNL     1      -1.433   3.164  25.370  0.00  0.00    -0.276 N 
ATOM     17  C   UNL     1      -1.774   2.417  25.290  0.00  0.00    +0.103 C 
ATOM     18  C   UNL     1      -1.837   3.883  25.390  0.00  0.00    +0.249 C 
ATOM     19  O   UNL     1      -1.420   4.589  25.473  0.00  0.00    -0.270 OA
BRANCH  18  20
ATOM     20  C   UNL     1      -2.660   3.895  25.328  0.00  0.00    +0.057 A 
ATOM     21  C   UNL     1      -3.018   3.923  24.584  0.00  0.00    +0.025 A 
ATOM     22  C   UNL     1      -3.840   3.936  24.523  0.00  0.00    +0.099 A 
ATOM     23  N   UNL     1      -4.306   3.920  25.204  0.00  0.00    -0.242 NA
ATOM     24  C   UNL     1      -3.948   3.892  25.947  0.00  0.00    +0.099 A 
ATOM     25  C   UNL     1      -3.125   3.880  26.009  0.00  0.00    +0.025 A 
ENDBRANCH  18  20
ENDBRANCH  11  13
BRANCH   6   3
ATOM      3  S   UNL     1      -2.399  -2.226  24.631  0.00  0.00    +0.009 S 
ATOM      4  O   UNL     1      -1.831  -2.436  24.071  0.00  0.00    -0.169 OA
ATOM      5  O   UNL     1      -2.969  -2.017  25.190  0.00  0.00    -0.169 OA
BRANCH   3   2
ATOM      1  C   UNL     1      -3.679  -2.836  24.447  0.00  0.00    +0.028 C 
ATOM      2  C   UNL     1      -2.856  -2.878  24.411  0.00  0.00    +0.156 C 
ENDBRANCH   3   2
ENDBRANCH   6   3
TORSDOF 4
ENDMDL
MODEL 3
REMARK VINA RESULT:     -10.8      2.729      5.788
REMARK  Name = 
REMARK  4 active torsions:
REMARK  status: ('A' for Active; 'I' for Inactive)
REMARK    1  A    between atoms: C_2  and  S_3
REMARK    2  A    between atoms: S_3  and  C_6
REMARK    3  A    between atoms: C_11  and  C_13
REMARK    4  A    between atoms: C_18  and  C_20
REMARK                            x       y       z     vdW  Elec       q    Type
REMARK                         _______ _______ _______ _____ _____    ______ ____
ROOT
ATOM      6  C   UNL     1      -1.187   3.336  25.445  0.00  0.00    +0.107 A 
ATOM      7  C   UNL     1      -1.527   2.714  25.024  0.00  0.00    +0.041 A 
ATOM      8  C   UNL     1      -1.231   1.949  25.105  0.00  0.00    +0.120 A 
ATOM      9  C   UNL     1      -0.593   1.805  25.609  0.00  0.00    +0.164 A 
ATOM     10  O   UNL     1      -0.420   1.000  25.578  0.00  0.00    -0.438 OA
ATOM     11  C   UNL     1      -0.950   0.645  25.055  0.00  0.00    +0.207 A 
ATOM     12  N   UNL     1      -1.451   1.232  24.763  0.00  0.00    -0.212 NA
ATOM     26  C   UNL     1      -0.253   2.427  26.031  0.00  0.00    +0.040 A 
ATOM     27  C   UNL     1      -0.550   3.192  25.949  0.00  0.00    +0.022 A 
ENDROOT
BRANCH  11  13
ATOM     13  C   UNL     1      -0.975  -0.156  24.858  0.00  0.00    +0.098 C 
ATOM     14  C   UNL     1      -0.324  -0.638  24.705  0.00  0.00    +0.032 C 
ATOM     15  C   UNL     1      -0.601  -1.396  24.532  0.00  0.00    +0.094 C 
ATOM     16  N   UNL     1      -1.425  -1.382  24.579  0.00  0.00    -0.276 N 
ATOM     17  C   UNL     1      -1.656  -0.615  24.780  0.00  0.00    +0.103 C 
ATOM     18  C   UNL     1      -1.929  -2.021  24.447  0.00  0.00    +0.249 C 
ATOM     19  O   UNL     1      -1.618  -2.758  24.249  0.00  0.00    -0.270 OA
BRANCH  18  20
ATOM     20  C   UNL     1      -2.746  -1.923  24.514  0.00  0.00    +0.057 A 
ATOM     21  C   UNL     1      -3.198  -1.755  23.844  0.00  0.00    +0.025 A 
ATOM     22  C   UNL     1      -4.014  -1.658  23.911  0.00  0.00    +0.099 A 
ATOM     23  N   UNL     1      -4.379  -1.728  24.647  0.00  0.00    -0.242 NA
ATOM     24  C   UNL     1      -3.927  -1.896  25.317  0.00  0.00    +0.099 A 
ATOM     25  C   UNL     1      -3.110  -1.993  25.251  0.00  0.00    +0.025 A 
ENDBRANCH  18  20
ENDBRANCH  11  13
BRANCH   6   3
ATOM      3  S   UNL     1      -1.484   4.101  25.364  0.00  0.00    +0.009 S 
ATOM      4  O   UNL     1      -2.097   3.919  25.886  0.00  0.00    -0.169 OA
ATOM      5  O   UNL     1      -0.872   4.283  24.842  0.00  0.00    -0.169 OA
BRANCH   3   2
ATOM      1  C   UNL     1      -1.316   5.454  24.937  0.00  0.00    +0.028 C 
ATOM      2  C   UNL     1      -1.781   4.867  25.282  0.00  0.00    +0.156 C 
ENDBRANCH   3   2
ENDBRANCH   6   3
TORSDOF 4
ENDMDL
MODEL 4
REMARK VINA RESULT:     -10.6      1.795      2.347
REMARK  Name = 
REMARK  4 active torsions:
REMARK  status: ('A' for Active; 'I' for Inactive)
REMARK    1  A    between atoms: C_2  and  S_3
REMARK    2  A    between atoms: S_3  and  C_6
REMARK    3  A    between atoms: C_11  and  C_13
REMARK    4  A    between atoms: C_18  and  C_20
REMARK                            x       y       z     vdW  Elec       q    Type
REMARK                         _______ _______ _______ _____ _____    ______ ____
ROOT
ATOM      6  C   UNL     1      -4.042  -1.135  24.354  0.00  0.00    +0.107 A 
ATOM      7  C   UNL     1      -3.405  -0.629  24.485  0.00  0.00    +0.041 A 
ATOM      8  C   UNL     1      -3.533   0.181  24.579  0.00  0.00    +0.120 A 
ATOM      9  C   UNL     1      -4.300   0.484  24.541  0.00  0.00    +0.164 A 
ATOM     10  O   UNL     1      -4.258   1.299  24.653  0.00  0.00    -0.438 OA
ATOM     11  C   UNL     1      -3.465   1.501  24.759  0.00  0.00    +0.207 A 
ATOM     12  N   UNL     1      -3.018   0.810  24.714  0.00  0.00    -0.212 NA
ATOM     26  C   UNL     1      -4.938  -0.024  24.410  0.00  0.00    +0.040 A 
ATOM     27  C   UNL     1      -4.808  -0.833  24.316  0.00  0.00    +0.022 A 
ENDROOT
BRANCH  11  13
ATOM     13  C   UNL     1      -3.172   2.261  24.889  0.00  0.00    +0.098 C 
ATOM     14  C   UNL     1      -3.610   2.960  24.875  0.00  0.00    +0.032 C 
ATOM     15  C   UNL     1      -3.098   3.587  25.033  0.00  0.00    +0.094 C 
ATOM     16  N   UNL     1      -2.342   3.276  25.145  0.00  0.00    -0.276 N 
ATOM     17  C   UNL     1      -2.388   2.457  25.057  0.00  0.00    +0.103 C 
ATOM     18  C   UNL     1      -1.661   3.707  25.317  0.00  0.00    +0.249 C 
ATOM     19  O   UNL     1      -1.699   4.528  25.389  0.00  0.00    -0.270 OA
BRANCH  18  20
ATOM     20  C   UNL     1      -0.939   3.319  25.415  0.00  0.00    +0.057 A 
ATOM     21  C   UNL     1      -0.715   3.047  26.162  0.00  0.00    +0.025 A 
ATOM     22  C   UNL     1       0.006   2.659  26.259  0.00  0.00    +0.099 A 
ATOM     23  N   UNL     1       0.503   2.541  25.612  0.00  0.00    -0.242 NA
ATOM     24  C   UNL     1       0.279   2.813  24.865  0.00  0.00    +0.099 A 
ATOM     25  C   UNL     1      -0.443   3.201  24.767  0.00  0.00    +0.025 A 
ENDBRANCH  18  20
ENDBRANCH  11  13
BRANCH   6   3
ATOM      3  S   UNL     1      -3.913  -1.944  24.260  0.00  0.00    +0.009 S 
ATOM      4  O   UNL     1      -4.172  -1.896  23.479  0.00  0.00    -0.169 OA
ATOM      5  O   UNL     1      -3.654  -1.994  25.042  0.00  0.00    -0.169 OA
BRANCH   3   2
ATOM      1  C   UNL     1      -3.347  -3.169  24.730  0.00  0.00    +0.028 C 
ATOM      2  C   UNL     1      -3.784  -2.754  24.167  0.00  0.00    +0.156 C 
ENDBRANCH   3   2
ENDBRANCH   6   3
TORSDOF 4
ENDMDL
MODEL 5
REMARK VINA RESULT:     -10.4      1.931      5.157
REMARK  Name = 
REMARK  4 active torsions:
REMARK  status: ('A' for Active; 'I' for Inactive)
REMARK    1  A    between atoms: C_2  and  S_3
REMARK    2  A    between atoms: S_3  and  C_6
REMARK    3  A    between atoms: C_11  and  C_13
REMARK    4  A    between atoms: C_18  and  C_20
REMARK                            x       y       z     vdW  Elec       q    Type
REMARK                         _______ _______ _______ _____ _____    ______ ____
ROOT
ATOM      6  C   UNL     1      -2.971   3.570  25.085  0.00  0.00    +0.107 A 
ATOM      7  C   UNL     1      -2.657   2.808  25.099  0.00  0.00    +0.041 A 
ATOM      8  C   UNL     1      -3.132   2.162  24.904  0.00  0.00    +0.120 A 
ATOM      9  C   UNL     1      -3.921   2.279  24.694  0.00  0.00    +0.164 A 
ATOM     10  O   UNL     1      -4.253   1.542  24.530  0.00  0.00    -0.438 OA
ATOM     11  C   UNL     1      -3.669   0.970  24.639  0.00  0.00    +0.207 A 
ATOM     12  N   UNL     1      -2.977   1.353  24.870  0.00  0.00    -0.212 NA
ATOM     26  C   UNL     1      -4.236   3.042  24.680  0.00  0.00    +0.040 A 
ATOM     27  C   UNL     1      -3.760   3.687  24.875  0.00  0.00    +0.022 A 
ENDROOT
BRANCH  11  13
ATOM     13  C   UNL     1      -3.762   0.156  24.534  0.00  0.00    +0.098 C 
ATOM     14  C   UNL     1      -4.462  -0.230  24.331  0.00  0.00    +0.032 C 
ATOM     15  C   UNL     1      -4.304  -1.038  24.286  0.00  0.00    +0.094 C 
ATOM     16  N   UNL     1      -3.506  -1.152  24.461  0.00  0.00    -0.276 N 
ATOM     17  C   UNL     1      -3.171  -0.413  24.615  0.00  0.00    +0.103 C 
ATOM     18  C   UNL     1      -3.112  -1.876  24.480  0.00  0.00    +0.249 C 
ATOM     19  O   UNL     1      -3.521  -2.573  24.313  0.00  0.00    -0.270 OA
BRANCH  18  20
ATOM     20  C   UNL     1      -2.308  -1.904  24.665  0.00  0.00    +0.057 A 
ATOM     21  C   UNL     1      -1.746  -1.936  24.061  0.00  0.00    +0.025 A 
ATOM     22  C   UNL     1      -0.943  -1.964  24.248  0.00  0.00    +0.099 A 
ATOM     23  N   UNL     1      -0.701  -1.961  25.036  0.00  0.00    -0.242 NA
ATOM     24  C   UNL     1      -1.263  -1.929  25.640  0.00  0.00    +0.099 A 
ATOM     25  C   UNL     1      -2.067  -1.901  25.454  0.00  0.00    +0.025 A 
ENDBRANCH  18  20
ENDBRANCH  11  13
BRANCH   6   3
ATOM      3  S   UNL     1      -2.497   4.215  25.280  0.00  0.00    +0.009 S 
ATOM      4  O   UNL     1      -2.192   4.225  24.514  0.00  0.00    -0.169 OA
ATOM      5  O   UNL     1      -2.800   4.207  26.047  0.00  0.00    -0.169 OA
BRANCH   3   2
ATOM      1  C   UNL     1      -1.320   4.997  25.064  0.00  0.00    +0.028 C 
ATOM      2  C   UNL     1      -2.022   4.862  25.476  0.00  0.00    +0.156 C 
ENDBRANCH   3   2
ENDBRANCH   6   3
TORSDOF 4
ENDMDL
MODEL 6
REMARK VINA RESULT:      -7.8     18.019     19.897
REMARK  Name = 
REMARK  4 active torsions:
REMARK  status: ('A' for Active; 'I' for Inactive)
REMARK    1  A    between atoms: C_2  and  S_3
REMARK    2  A    between atoms: S_3  and  C_6
REMARK    3  A    between atoms: C_11  and  C_13
REMARK    4  A    between atoms: C_18  and  C_20
REMARK                            x       y       z     vdW  Elec       q    Type
REMARK                         _______ _______ _______ _____ _____    ______ ____
ROOT
ATOM      6  C   UNL     1      11.432   8.219  21.233  0.00  0.00    +0.107 A 
ATOM      7  C   UNL     1      12.165   7.850  21.308  0.00  0.00    +0.041 A 
ATOM      8  C   UNL     1      12.636   7.728  20.641  0.00  0.00    +0.120 A 
ATOM      9  C   UNL     1      12.373   7.976  19.900  0.00  0.00    +0.164 A 
ATOM     10  O   UNL     1      12.953   7.784  19.346  0.00  0.00    -0.438 OA
ATOM     11  C   UNL     1      13.574   7.417  19.745  0.00  0.00    +0.207 A 
ATOM     12  N   UNL     1      13.378   7.382  20.545  0.00  0.00    -0.212 NA
ATOM     26  C   UNL     1      11.639   8.346  19.825  0.00  0.00    +0.040 A 
ATOM     27  C   UNL     1      11.168   8.467  20.492  0.00  0.00    +0.022 A 
ENDROOT
BRANCH  11  13
ATOM     13  C   UNL     1      14.270   7.133  19.403  0.00  0.00    +0.098 C 
ATOM     14  C   UNL     1      14.348   6.834  18.638  0.00  0.00    +0.032 C 
ATOM     15  C   UNL     1      15.136   6.615  18.528  0.00  0.00    +0.094 C 
ATOM     16  N   UNL     1      15.545   6.779  19.225  0.00  0.00    -0.276 N 
ATOM     17  C   UNL     1      15.009   7.099  19.766  0.00  0.00    +0.103 C 
ATOM     18  C   UNL     1      16.348   6.646  19.359  0.00  0.00    +0.249 C 
ATOM     19  O   UNL     1      16.817   6.321  18.764  0.00  0.00    -0.270 OA
BRANCH  18  20
ATOM     20  C   UNL     1      16.682   6.839  20.089  0.00  0.00    +0.057 A 
ATOM     21  C   UNL     1      16.713   6.275  20.691  0.00  0.00    +0.025 A 
ATOM     22  C   UNL     1      17.047   6.468  21.419  0.00  0.00    +0.099 A 
ATOM     23  N   UNL     1      17.352   7.224  21.547  0.00  0.00    -0.242 NA
ATOM     24  C   UNL     1      17.321   7.788  20.945  0.00  0.00    +0.099 A 
ATOM     25  C   UNL     1      16.986   7.595  20.216  0.00  0.00    +0.025 A 
ENDBRANCH  18  20
ENDBRANCH  11  13
BRANCH   6   3
ATOM      3  S   UNL     1      10.961   8.340  21.899  0.00  0.00    +0.009 S 
ATOM      4  O   UNL     1      10.618   7.598  21.792  0.00  0.00    -0.169 OA
ATOM      5  O   UNL     1      11.304   9.083  22.007  0.00  0.00    -0.169 OA
BRANCH   3   2
ATOM      1  C   UNL     1      10.650   9.092  23.074  0.00  0.00    +0.028 C 
ATOM      2  C   UNL     1      10.490   8.462  22.566  0.00  0.00    +0.156 C 
ENDBRANCH   3   2
ENDBRANCH   6   3
TORSDOF 4
ENDMDL
