MODEL 1
REMARK VINA RESULT:      -9.8      0.000      0.000
REMARK  Name = 
REMARK  6 active torsions:
REMARK  status: ('A' for Active; 'I' for Inactive)
REMARK    1  A    between atoms: N_2  and  C_4
REMARK    2  A    between atoms: C_7  and  C_10
REMARK    3  A    between atoms: N_12  and  C_13
REMARK    4  A    between atoms: C_17  and  O_21
REMARK    5  A    between atoms: O_21  and  C_22
REMARK    6  A    between atoms: N_24  and  C_25
REMARK                            x       y       z     vdW  Elec       q    Type
REMARK                         _______ _______ _______ _____ _____    ______ ____
ROOT
ATOM     13  C   UNL     1       0.814   0.375  23.385  0.00  0.00    +0.155 C 
ATOM     14  C   UNL     1       0.391  -0.130  22.889  0.00  0.00    +0.166 C 
ATOM     15  O   UNL     1      -0.408   0.066  22.946  0.00  0.00    -0.348 OA
ATOM     16  C   UNL     1      -0.479   0.692  23.478  0.00  0.00    +0.186 C 
ATOM     17  C   UNL     1      -1.017   1.201  23.843  0.00  0.00    +0.229 C 
ATOM     18  C   UNL     1      -0.594   1.706  24.340  0.00  0.00    +0.188 C 
ATOM     19  O   UNL     1       0.205   1.509  24.282  0.00  0.00    -0.348 OA
ATOM     20  C   UNL     1       0.276   0.883  23.749  0.00  0.00    +0.168 C 
ENDROOT
BRANCH  13  12
ATOM     10  C   UNL     1       2.133   0.169  22.875  0.00  0.00    +0.265 C 
ATOM     11  O   UNL     1       1.817  -0.030  22.139  0.00  0.00    -0.268 OA
ATOM     12  N   UNL     1       1.631   0.372  23.497  0.00  0.00    -0.198 NA
BRANCH  10   7
ATOM      4  C   UNL     1       4.585   0.158  23.211  0.00  0.00    +0.048 A 
ATOM      5  C   UNL     1       4.215   0.825  22.898  0.00  0.00    +0.015 A 
ATOM      6  C   UNL     1       3.397   0.829  22.786  0.00  0.00    +0.006 A 
ATOM      7  C   UNL     1       2.950   0.166  22.987  0.00  0.00    +0.055 A 
ATOM      8  C   UNL     1       3.320  -0.502  23.300  0.00  0.00    +0.006 A 
ATOM      9  C   UNL     1       4.137  -0.506  23.413  0.00  0.00    +0.015 A 
BRANCH   4   2
ATOM      1  C   UNL     1       5.895  -0.184  22.755  0.00  0.00    +0.112 C 
ATOM      2  N   UNL     1       5.402   0.153  23.324  0.00  0.00    -0.304 N 
ATOM      3  C   UNL     1       5.726   0.487  24.006  0.00  0.00    +0.112 C 
ENDBRANCH   4   2
ENDBRANCH  10   7
ENDBRANCH  13  12
BRANCH  17  21
ATOM     21  O   UNL     1      -1.835   1.203  23.730  0.00  0.00    -0.432 OA
BRANCH  21  22
ATOM     22  C   UNL     1      -2.285   1.843  23.991  0.00  0.00    +0.425 C 
ATOM     23  O   UNL     1      -2.054   2.613  23.804  0.00  0.00    -0.224 OA
ATOM     24  N   UNL     1      -2.966   1.714  24.438  0.00  0.00    -0.142 NA
BRANCH  24  25
ATOM     25  C   UNL     1      -3.416   2.354  24.699  0.00  0.00    +0.077 A 
ATOM     26  C   UNL     1      -3.072   3.100  24.765  0.00  0.00    +0.017 A 
ATOM     27  C   UNL     1      -3.523   3.741  25.026  0.00  0.00    +0.001 A 
ATOM     28  C   UNL     1      -4.317   3.634  25.220  0.00  0.00    +0.000 A 
ATOM     29  C   UNL     1      -4.661   2.888  25.154  0.00  0.00    +0.001 A 
ATOM     30  C   UNL     1      -5.456   2.781  25.348  0.00  0.00    +0.000 A 
ATOM     31  C   UNL     1      -5.800   2.035  25.282  0.00  0.00    +0.000 A 
ATOM     32  C   UNL     1      -5.349   1.394  25.021  0.00  0.00    +0.000 A 
ATOM     33  C   UNL     1      -4.555   1.501  24.827  0.00  0.00    +0.001 A 
ATOM     34  C   UNL     1      -4.210   2.247  24.893  0.00  0.00    +0.015 A 
ENDBRANCH  24  25
ENDBRANCH  21  22
ENDBRANCH  17  21
TORSDOF 6
ENDMDL
MODEL 2
REMARK VINA RESULT:      -9.7      1.139      7.472
REMARK  Name = 
REMARK  6 active torsions:
REMARK  status: ('A' for Active; 'I' for Inactive)
REMARK    1  A    between atoms: N_2  and  C_4
REMARK    2  A    between atoms: C_7  and  C_10
REMARK    3  A    between atoms: N_12  and  C_13
REMARK    4  A    between atoms: C_17  and  O_21
REMARK    5  A    between atoms: O_21  and  C_22
REMARK    6  A    between atoms: N_24  and  C_25
REMARK                            x       y       z     vdW  Elec       q    Type
REMARK                         _______ _______ _______ _____ _____    ______ ____
ROOT
ATOM     13  C   UNL     1      -1.319   0.146  24.343  0.00  0.00    +0.155 C 
ATOM     14  C   UNL     1      -1.157  -0.640  24.532  0.00  0.00    +0.166 C 
ATOM     15  O   UNL     1      -0.420  -0.832  24.214  0.00  0.00    -0.348 OA
ATOM     16  C   UNL     1      -0.128  -0.165  23.829  0.00  0.00    +0.186 C 
ATOM     17  C   UNL     1       0.509   0.130  23.394  0.00  0.00    +0.229 C 
ATOM     18  C   UNL     1       0.347   0.917  23.205  0.00  0.00    +0.188 C 
ATOM     19  O   UNL     1      -0.389   1.108  23.523  0.00  0.00    -0.348 OA
ATOM     20  C   UNL     1      -0.683   0.440  23.909  0.00  0.00    +0.168 C 
ENDROOT
BRANCH  13  12
ATOM     10  C   UNL     1      -2.743   0.237  24.419  0.00  0.00    +0.265 C 
ATOM     11  O   UNL     1      -2.809  -0.510  24.075  0.00  0.00    -0.268 OA
ATOM     12  N   UNL     1      -1.998   0.565  24.553  0.00  0.00    -0.198 NA
BRANCH  10   7
ATOM      4  C   UNL     1      -4.782   1.491  25.049  0.00  0.00    +0.048 A 
ATOM      5  C   UNL     1      -4.189   1.861  24.610  0.00  0.00    +0.015 A 
ATOM      6  C   UNL     1      -3.510   1.443  24.401  0.00  0.00    +0.006 A 
ATOM      7  C   UNL     1      -3.422   0.656  24.629  0.00  0.00    +0.055 A 
ATOM      8  C   UNL     1      -4.015   0.286  25.068  0.00  0.00    +0.006 A 
ATOM      9  C   UNL     1      -4.695   0.703  25.279  0.00  0.00    +0.015 A 
BRANCH   4   2
ATOM      1  C   UNL     1      -5.404   2.577  25.739  0.00  0.00    +0.112 C 
ATOM      2  N   UNL     1      -5.461   1.909  25.260  0.00  0.00    -0.304 N 
ATOM      3  C   UNL     1      -6.200   1.657  24.989  0.00  0.00    +0.112 C 
ENDBRANCH   4   2
ENDBRANCH  10   7
ENDBRANCH  13  12
BRANCH  17  21
ATOM     21  O   UNL     1       1.189  -0.290  23.184  0.00  0.00    -0.432 OA
BRANCH  21  22
ATOM     22  C   UNL     1       1.911   0.101  23.122  0.00  0.00    +0.425 C 
ATOM     23  O   UNL     1       1.936   0.926  23.125  0.00  0.00    -0.224 OA
ATOM     24  N   UNL     1       2.611  -0.332  23.056  0.00  0.00    -0.142 NA
BRANCH  24  25
ATOM     25  C   UNL     1       3.334   0.060  22.994  0.00  0.00    +0.077 A 
ATOM     26  C   UNL     1       3.375   0.793  22.619  0.00  0.00    +0.017 A 
ATOM     27  C   UNL     1       4.100   1.185  22.556  0.00  0.00    +0.001 A 
ATOM     28  C   UNL     1       4.781   0.842  22.869  0.00  0.00    +0.000 A 
ATOM     29  C   UNL     1       4.740   0.109  23.244  0.00  0.00    +0.001 A 
ATOM     30  C   UNL     1       5.423  -0.234  23.557  0.00  0.00    +0.000 A 
ATOM     31  C   UNL     1       5.382  -0.967  23.931  0.00  0.00    +0.000 A 
ATOM     32  C   UNL     1       4.657  -1.359  23.994  0.00  0.00    +0.000 A 
ATOM     33  C   UNL     1       3.975  -1.016  23.681  0.00  0.00    +0.001 A 
ATOM     34  C   UNL     1       4.016  -0.282  23.306  0.00  0.00    +0.015 A 
ENDBRANCH  24  25
ENDBRANCH  21  22
ENDBRANCH  17  21
TORSDOF 6
ENDMDL
MODEL 3
REMARK VINA RESULT:      -9.1      1.661      2.261
REMARK  Name = 
REMARK  6 active torsions:
REMARK  status: ('A' for Active; 'I' for Inactive)
REMARK    1  A    between atoms: N_2  and  C_4
REMARK    2  A    between atoms: C_7  and  C_10
REMARK    3  A    between atoms: N_12  and  C_13
REMARK    4  A    between atoms: C_17  and  O_21
REMARK    5  A    between atoms: O_21  and  C_22
REMARK    6  A    between atoms: N_24  and  C_25
REMARK                            x       y       z     vdW  Elec       q    Type
REMARK                         _______ _______ _______ _____ _____    ______ ____
ROOT
ATOM     13  C   UNL     1       1.092   0.356  23.222  0.00  0.00    +0.155 C 
ATOM     14  C   UNL     1       0.718  -0.057  22.614  0.00  0.00    +0.166 C 
ATOM     15  O   UNL     1      -0.087   0.122  22.642  0.00  0.00    -0.348 OA
ATOM     16  C   UNL     1      -0.210   0.646  23.266  0.00  0.00    +0.186 C 
ATOM     17  C   UNL     1      -0.783   1.081  23.669  0.00  0.00    +0.229 C 
ATOM     18  C   UNL     1      -0.409   1.495  24.278  0.00  0.00    +0.188 C 
ATOM     19  O   UNL     1       0.396   1.316  24.250  0.00  0.00    -0.348 OA
ATOM     20  C   UNL     1       0.519   0.791  23.624  0.00  0.00    +0.168 C 
ENDROOT
BRANCH  13  12
ATOM     10  C   UNL     1       2.446   0.177  22.800  0.00  0.00    +0.265 C 
ATOM     11  O   UNL     1       2.187   0.034  22.030  0.00  0.00    -0.268 OA
ATOM     12  N   UNL     1       1.899   0.337  23.396  0.00  0.00    -0.198 NA
BRANCH  10   7
ATOM      4  C   UNL     1       4.865   0.119  23.322  0.00  0.00    +0.048 A 
ATOM      5  C   UNL     1       4.534   0.789  22.971  0.00  0.00    +0.015 A 
ATOM      6  C   UNL     1       3.728   0.808  22.797  0.00  0.00    +0.006 A 
ATOM      7  C   UNL     1       3.252   0.158  22.974  0.00  0.00    +0.055 A 
ATOM      8  C   UNL     1       3.582  -0.512  23.325  0.00  0.00    +0.006 A 
ATOM      9  C   UNL     1       4.388  -0.532  23.499  0.00  0.00    +0.015 A 
BRANCH   4   2
ATOM      1  C   UNL     1       5.954   0.457  24.183  0.00  0.00    +0.112 C 
ATOM      2  N   UNL     1       5.671   0.099  23.496  0.00  0.00    -0.304 N 
ATOM      3  C   UNL     1       6.194  -0.278  22.981  0.00  0.00    +0.112 C 
ENDBRANCH   4   2
ENDBRANCH  10   7
ENDBRANCH  13  12
BRANCH  17  21
ATOM     21  O   UNL     1      -1.590   1.100  23.495  0.00  0.00    -0.432 OA
BRANCH  21  22
ATOM     22  C   UNL     1      -2.138   0.835  24.051  0.00  0.00    +0.425 C 
ATOM     23  O   UNL     1      -2.262   1.265  24.745  0.00  0.00    -0.224 OA
ATOM     24  N   UNL     1      -2.563   0.142  23.915  0.00  0.00    -0.142 NA
BRANCH  24  25
ATOM     25  C   UNL     1      -3.111  -0.123  24.471  0.00  0.00    +0.077 A 
ATOM     26  C   UNL     1      -3.605   0.417  24.852  0.00  0.00    +0.017 A 
ATOM     27  C   UNL     1      -4.154   0.152  25.409  0.00  0.00    +0.001 A 
ATOM     28  C   UNL     1      -4.209  -0.651  25.585  0.00  0.00    +0.000 A 
ATOM     29  C   UNL     1      -3.715  -1.191  25.204  0.00  0.00    +0.001 A 
ATOM     30  C   UNL     1      -3.769  -1.996  25.379  0.00  0.00    +0.000 A 
ATOM     31  C   UNL     1      -3.276  -2.535  24.998  0.00  0.00    +0.000 A 
ATOM     32  C   UNL     1      -2.727  -2.270  24.441  0.00  0.00    +0.000 A 
ATOM     33  C   UNL     1      -2.672  -1.467  24.266  0.00  0.00    +0.001 A 
ATOM     34  C   UNL     1      -3.166  -0.926  24.647  0.00  0.00    +0.015 A 
ENDBRANCH  24  25
ENDBRANCH  21  22
ENDBRANCH  17  21
TORSDOF 6
ENDMDL
MODEL 4
REMARK VINA RESULT:      -7.6     14.885     17.190
REMARK  Name = 
REMARK  6 active torsions:
REMARK  status: ('A' for Active; 'I' for Inactive)
REMARK    1  A    between atoms: N_2  and  C_4
REMARK    2  A    between atoms: C_7  and  C_10
REMARK    3  A    between atoms: N_12  and  C_13
REMARK    4  A    between atoms: C_17  and  O_21
REMARK    5  A    between atoms: O_21  and  C_22
REMARK    6  A    between atoms: N_24  and  C_25
REMARK                            x       y       z     vdW  Elec       q    Type
REMARK                         _______ _______ _______ _____ _____    ______ ____
ROOT
ATOM     13  C   UNL     1      -6.466  -9.981  15.404  0.00  0.00    +0.155 C 
ATOM     14  C   UNL     1      -5.736  -9.880  15.775  0.00  0.00    +0.166 C 
ATOM     15  O   UNL     1      -5.145 -10.077  15.233  0.00  0.00    -0.348 OA
ATOM     16  C   UNL     1      -5.510 -10.299  14.528  0.00  0.00    +0.186 C 
ATOM     17  C   UNL     1      -5.371 -10.558  13.757  0.00  0.00    +0.229 C 
ATOM     18  C   UNL     1      -6.101 -10.659  13.386  0.00  0.00    +0.188 C 
ATOM     19  O   UNL     1      -6.691 -10.462  13.927  0.00  0.00    -0.348 OA
ATOM     20  C   UNL     1      -6.326 -10.239  14.634  0.00  0.00    +0.168 C 
ENDROOT
BRANCH  13  12
ATOM     10  C   UNL     1      -7.265  -9.684  16.550  0.00  0.00    +0.265 C 
ATOM     11  O   UNL     1      -6.585  -9.657  17.017  0.00  0.00    -0.268 OA
ATOM     12  N   UNL     1      -7.205  -9.846  15.744  0.00  0.00    -0.198 NA
BRANCH  10   7
ATOM      4  C   UNL     1      -9.483  -9.278  17.572  0.00  0.00    +0.048 A 
ATOM      5  C   UNL     1      -9.146 -10.030  17.603  0.00  0.00    +0.015 A 
ATOM      6  C   UNL     1      -8.407 -10.165  17.262  0.00  0.00    +0.006 A 
ATOM      7  C   UNL     1      -8.005  -9.549  16.891  0.00  0.00    +0.055 A 
ATOM      8  C   UNL     1      -8.341  -8.796  16.860  0.00  0.00    +0.006 A 
ATOM      9  C   UNL     1      -9.080  -8.660  17.200  0.00  0.00    +0.015 A 
BRANCH   4   2
ATOM      1  C   UNL     1     -10.719  -8.561  17.601  0.00  0.00    +0.112 C 
ATOM      2  N   UNL     1     -10.222  -9.141  17.912  0.00  0.00    -0.304 N 
ATOM      3  C   UNL     1     -10.464  -9.587  18.564  0.00  0.00    +0.112 C 
ENDBRANCH   4   2
ENDBRANCH  10   7
ENDBRANCH  13  12
BRANCH  17  21
ATOM     21  O   UNL     1      -4.631 -10.693  13.417  0.00  0.00    -0.432 OA
BRANCH  21  22
ATOM     22  C   UNL     1      -4.432 -10.329  12.705  0.00  0.00    +0.425 C 
ATOM     23  O   UNL     1      -4.986  -9.858  12.313  0.00  0.00    -0.224 OA
ATOM     24  N   UNL     1      -3.681 -10.436  12.382  0.00  0.00    -0.142 NA
BRANCH  24  25
ATOM     25  C   UNL     1      -3.482 -10.072  11.669  0.00  0.00    +0.077 A 
ATOM     26  C   UNL     1      -4.065  -9.923  11.106  0.00  0.00    +0.017 A 
ATOM     27  C   UNL     1      -3.866  -9.559  10.392  0.00  0.00    +0.001 A 
ATOM     28  C   UNL     1      -3.084  -9.345  10.242  0.00  0.00    +0.000 A 
ATOM     29  C   UNL     1      -2.501  -9.494  10.805  0.00  0.00    +0.001 A 
ATOM     30  C   UNL     1      -1.718  -9.280  10.656  0.00  0.00    +0.000 A 
ATOM     31  C   UNL     1      -1.135  -9.429  11.219  0.00  0.00    +0.000 A 
ATOM     32  C   UNL     1      -1.334  -9.794  11.933  0.00  0.00    +0.000 A 
ATOM     33  C   UNL     1      -2.116 -10.008  12.083  0.00  0.00    +0.001 A 
ATOM     34  C   UNL     1      -2.700  -9.858  11.519  0.00  0.00    +0.015 A 
ENDBRANCH  24  25
ENDBRANCH  21  22
ENDBRANCH  17  21
TORSDOF 6
ENDMDL
MODEL 5
REMARK VINA RESULT:      -7.2     16.893     18.954
REMARK  Name = 
REMARK  6 active torsions:
REMARK  status: ('A' for Active; 'I' for Inactive)
REMARK    1  A    between atoms: N_2  and  C_4
REMARK    2  A    between atoms: C_7  and  C_10
REMARK    3  A    between atoms: N_12  and  C_13
REMARK    4  A    between atoms: C_17  and  O_21
REMARK    5  A    between atoms: O_21  and  C_22
REMARK    6  A    between atoms: N_24  and  C_25
REMARK                            x       y       z     vdW  Elec       q    Type
REMARK                         _______ _______ _______ _____ _____    ______ ____
ROOT
ATOM     13  C   UNL     1      -5.993  -9.171   9.154  0.00  0.00    +0.155 C 
ATOM     14  C   UNL     1      -6.094  -9.987   9.095  0.00  0.00    +0.166 C 
ATOM     15  O   UNL     1      -5.392 -10.349   9.333  0.00  0.00    -0.348 OA
ATOM     16  C   UNL     1      -4.857  -9.756   9.538  0.00  0.00    +0.186 C 
ATOM     17  C   UNL     1      -4.092  -9.612   9.813  0.00  0.00    +0.229 C 
ATOM     18  C   UNL     1      -3.991  -8.795   9.872  0.00  0.00    +0.188 C 
ATOM     19  O   UNL     1      -4.694  -8.434   9.634  0.00  0.00    -0.348 OA
ATOM     20  C   UNL     1      -5.229  -9.028   9.428  0.00  0.00    +0.168 C 
ENDROOT
BRANCH  13  12
ATOM     10  C   UNL     1      -7.361  -8.773   9.044  0.00  0.00    +0.265 C 
ATOM     11  O   UNL     1      -7.600  -9.521   9.299  0.00  0.00    -0.268 OA
ATOM     12  N   UNL     1      -6.559  -8.599   8.971  0.00  0.00    -0.198 NA
BRANCH  10   7
ATOM      4  C   UNL     1      -9.057  -7.056   8.494  0.00  0.00    +0.048 A 
ATOM      5  C   UNL     1      -9.249  -7.676   9.003  0.00  0.00    +0.015 A 
ATOM      6  C   UNL     1      -8.683  -8.248   9.186  0.00  0.00    +0.006 A 
ATOM      7  C   UNL     1      -7.927  -8.201   8.861  0.00  0.00    +0.055 A 
ATOM      8  C   UNL     1      -7.735  -7.580   8.352  0.00  0.00    +0.006 A 
ATOM      9  C   UNL     1      -8.300  -7.008   8.168  0.00  0.00    +0.015 A 
BRANCH   4   2
ATOM      1  C   UNL     1      -9.385  -5.715   8.125  0.00  0.00    +0.112 C 
ATOM      2  N   UNL     1      -9.621  -6.483   8.310  0.00  0.00    -0.304 N 
ATOM      3  C   UNL     1     -10.423  -6.679   8.312  0.00  0.00    +0.112 C 
ENDBRANCH   4   2
ENDBRANCH  10   7
ENDBRANCH  13  12
BRANCH  17  21
ATOM     21  O   UNL     1      -3.527 -10.186   9.996  0.00  0.00    -0.432 OA
BRANCH  21  22
ATOM     22  C   UNL     1      -3.030 -10.082  10.645  0.00  0.00    +0.425 C 
ATOM     23  O   UNL     1      -2.425  -9.522  10.617  0.00  0.00    -0.224 OA
ATOM     24  N   UNL     1      -3.138 -10.539  11.324  0.00  0.00    -0.142 NA
BRANCH  24  25
ATOM     25  C   UNL     1      -2.640 -10.435  11.974  0.00  0.00    +0.077 A 
ATOM     26  C   UNL     1      -1.844 -10.257  11.859  0.00  0.00    +0.017 A 
ATOM     27  C   UNL     1      -1.346 -10.154  12.510  0.00  0.00    +0.001 A 
ATOM     28  C   UNL     1      -1.646 -10.228  13.274  0.00  0.00    +0.000 A 
ATOM     29  C   UNL     1      -2.443 -10.406  13.389  0.00  0.00    +0.001 A 
ATOM     30  C   UNL     1      -2.743 -10.481  14.154  0.00  0.00    +0.000 A 
ATOM     31  C   UNL     1      -3.540 -10.659  14.268  0.00  0.00    +0.000 A 
ATOM     32  C   UNL     1      -4.038 -10.763  13.617  0.00  0.00    +0.000 A 
ATOM     33  C   UNL     1      -3.738 -10.688  12.853  0.00  0.00    +0.001 A 
ATOM     34  C   UNL     1      -2.940 -10.510  12.738  0.00  0.00    +0.015 A 
ENDBRANCH  24  25
ENDBRANCH  21  22
ENDBRANCH  17  21
TORSDOF 6
ENDMDL
MODEL 6
REMARK VINA RESULT:      -7.0     15.873     17.898
REMARK  Name = 
REMARK  6 active torsions:
REMARK  status: ('A' for Active; 'I' for Inactive)
REMARK    1  A    between atoms: N_2  and  C_4
REMARK    2  A    between atoms: C_7  and  C_10
REMARK    3  A    between atoms: N_12  and  C_13
REMARK    4  A    between atoms: C_17  and  O_21
REMARK    5  A    between atoms: O_21  and  C_22
REMARK    6  A    between atoms: N_24  and  C_25
REMARK                            x       y       z     vdW  Elec       q    Type
REMARK                         _______ _______ _______ _____ _____    ______ ____
ROOT
ATOM     13  C   UNL     1      -5.867  -9.215  10.896  0.00  0.00    +0.155 C 
ATOM     14  C   UNL     1      -5.100  -9.227  10.592  0.00  0.00    +0.166 C 
ATOM     15  O   UNL     1      -4.620  -9.631  11.128  0.00  0.00    -0.348 OA
ATOM     16  C   UNL     1      -5.090  -9.868  11.762  0.00  0.00    +0.186 C 
ATOM     17  C   UNL     1      -5.085 -10.264  12.487  0.00  0.00    +0.229 C 
ATOM     18  C   UNL     1      -5.852 -10.251  12.791  0.00  0.00    +0.188 C 
ATOM     19  O   UNL     1      -6.332  -9.847  12.254  0.00  0.00    -0.348 OA
ATOM     20  C   UNL     1      -5.861  -9.610  11.619  0.00  0.00    +0.168 C 
ENDROOT
BRANCH  13  12
ATOM     10  C   UNL     1      -6.472  -8.585   9.765  0.00  0.00    +0.265 C 
ATOM     11  O   UNL     1      -5.763  -8.651   9.348  0.00  0.00    -0.268 OA
ATOM     12  N   UNL     1      -6.524  -8.867  10.538  0.00  0.00    -0.198 NA
BRANCH  10   7
ATOM      4  C   UNL     1      -8.442  -7.541   8.690  0.00  0.00    +0.048 A 
ATOM      5  C   UNL     1      -8.544  -8.166   9.219  0.00  0.00    +0.015 A 
ATOM      6  C   UNL     1      -7.887  -8.514   9.577  0.00  0.00    +0.006 A 
ATOM      7  C   UNL     1      -7.129  -8.237   9.407  0.00  0.00    +0.055 A 
ATOM      8  C   UNL     1      -7.027  -7.612   8.878  0.00  0.00    +0.006 A 
ATOM      9  C   UNL     1      -7.683  -7.264   8.519  0.00  0.00    +0.015 A 
BRANCH   4   2
ATOM      1  C   UNL     1      -9.103  -6.381   8.179  0.00  0.00    +0.112 C 
ATOM      2  N   UNL     1      -9.098  -7.192   8.331  0.00  0.00    -0.304 N 
ATOM      3  C   UNL     1      -9.749  -7.655   8.125  0.00  0.00    +0.112 C 
ENDBRANCH   4   2
ENDBRANCH  10   7
ENDBRANCH  13  12
BRANCH  17  21
ATOM     21  O   UNL     1      -4.427 -10.612  12.844  0.00  0.00    -0.432 OA
BRANCH  21  22
ATOM     22  C   UNL     1      -4.289 -10.502  13.649  0.00  0.00    +0.425 C 
ATOM     23  O   UNL     1      -4.849 -10.112  14.115  0.00  0.00    -0.224 OA
ATOM     24  N   UNL     1      -3.592 -10.781  13.991  0.00  0.00    -0.142 NA
BRANCH  24  25
ATOM     25  C   UNL     1      -3.454 -10.670  14.796  0.00  0.00    +0.077 A 
ATOM     26  C   UNL     1      -4.089 -10.594  15.317  0.00  0.00    +0.017 A 
ATOM     27  C   UNL     1      -3.950 -10.484  16.124  0.00  0.00    +0.001 A 
ATOM     28  C   UNL     1      -3.178 -10.450  16.408  0.00  0.00    +0.000 A 
ATOM     29  C   UNL     1      -2.543 -10.526  15.888  0.00  0.00    +0.001 A 
ATOM     30  C   UNL     1      -1.769 -10.492  16.172  0.00  0.00    +0.000 A 
ATOM     31  C   UNL     1      -1.134 -10.569  15.652  0.00  0.00    +0.000 A 
ATOM     32  C   UNL     1      -1.272 -10.679  14.845  0.00  0.00    +0.000 A 
ATOM     33  C   UNL     1      -2.045 -10.713  14.561  0.00  0.00    +0.001 A 
ATOM     34  C   UNL     1      -2.681 -10.637  15.081  0.00  0.00    +0.015 A 
ENDBRANCH  24  25
ENDBRANCH  21  22
ENDBRANCH  17  21
TORSDOF 6
ENDMDL
MODEL 7
REMARK VINA RESULT:      -6.8     14.826     16.705
REMARK  Name = 
REMARK  6 active torsions:
REMARK  status: ('A' for Active; 'I' for Inactive)
REMARK    1  A    between atoms: N_2  and  C_4
REMARK    2  A    between atoms: C_7  and  C_10
REMARK    3  A    between atoms: N_12  and  C_13
REMARK    4  A    between atoms: C_17  and  O_21
REMARK    5  A    between atoms: O_21  and  C_22
REMARK    6  A    between atoms: N_24  and  C_25
REMARK                            x       y       z     vdW  Elec       q    Type
REMARK                         _______ _______ _______ _____ _____    ______ ____
ROOT
ATOM     13  C   UNL     1      -4.838 -10.675  15.465  0.00  0.00    +0.155 C 
ATOM     14  C   UNL     1      -4.024 -10.683  15.331  0.00  0.00    +0.166 C 
ATOM     15  O   UNL     1      -3.898 -10.606  14.519  0.00  0.00    -0.348 OA
ATOM     16  C   UNL     1      -4.634 -10.549  14.152  0.00  0.00    +0.186 C 
ATOM     17  C   UNL     1      -5.012 -10.467  13.423  0.00  0.00    +0.229 C 
ATOM     18  C   UNL     1      -5.827 -10.458  13.557  0.00  0.00    +0.188 C 
ATOM     19  O   UNL     1      -5.952 -10.536  14.369  0.00  0.00    -0.348 OA
ATOM     20  C   UNL     1      -5.215 -10.592  14.737  0.00  0.00    +0.168 C 
ENDROOT
BRANCH  13  12
ATOM     10  C   UNL     1      -5.025 -10.207  16.802  0.00  0.00    +0.265 C 
ATOM     11  O   UNL     1      -4.469  -9.611  16.671  0.00  0.00    -0.268 OA
ATOM     12  N   UNL     1      -5.208 -10.739  16.199  0.00  0.00    -0.198 NA
BRANCH  10   7
ATOM      4  C   UNL     1      -6.137 -10.397  19.005  0.00  0.00    +0.048 A 
ATOM      5  C   UNL     1      -5.420 -10.781  18.871  0.00  0.00    +0.015 A 
ATOM      6  C   UNL     1      -5.049 -10.718  18.137  0.00  0.00    +0.006 A 
ATOM      7  C   UNL     1      -5.395 -10.271  17.537  0.00  0.00    +0.055 A 
ATOM      8  C   UNL     1      -6.113  -9.887  17.670  0.00  0.00    +0.006 A 
ATOM      9  C   UNL     1      -6.485  -9.950  18.404  0.00  0.00    +0.015 A 
BRANCH   4   2
ATOM      1  C   UNL     1      -6.123 -10.203  20.421  0.00  0.00    +0.112 C 
ATOM      2  N   UNL     1      -6.509 -10.460  19.739  0.00  0.00    -0.304 N 
ATOM      3  C   UNL     1      -7.268 -10.781  19.790  0.00  0.00    +0.112 C 
ENDBRANCH   4   2
ENDBRANCH  10   7
ENDBRANCH  13  12
BRANCH  17  21
ATOM     21  O   UNL     1      -4.640 -10.403  12.689  0.00  0.00    -0.432 OA
BRANCH  21  22
ATOM     22  C   UNL     1      -5.049 -10.090  12.045  0.00  0.00    +0.425 C 
ATOM     23  O   UNL     1      -5.788 -10.395  11.838  0.00  0.00    -0.224 OA
ATOM     24  N   UNL     1      -4.721  -9.472  11.608  0.00  0.00    -0.142 NA
BRANCH  24  25
ATOM     25  C   UNL     1      -5.131  -9.159  10.964  0.00  0.00    +0.077 A 
ATOM     26  C   UNL     1      -5.929  -8.966  11.038  0.00  0.00    +0.017 A 
ATOM     27  C   UNL     1      -6.339  -8.653  10.393  0.00  0.00    +0.001 A 
ATOM     28  C   UNL     1      -5.950  -8.532   9.676  0.00  0.00    +0.000 A 
ATOM     29  C   UNL     1      -5.152  -8.725   9.603  0.00  0.00    +0.001 A 
ATOM     30  C   UNL     1      -4.762  -8.604   8.886  0.00  0.00    +0.000 A 
ATOM     31  C   UNL     1      -3.964  -8.797   8.812  0.00  0.00    +0.000 A 
ATOM     32  C   UNL     1      -3.554  -9.111   9.457  0.00  0.00    +0.000 A 
ATOM     33  C   UNL     1      -3.943  -9.231  10.173  0.00  0.00    +0.001 A 
ATOM     34  C   UNL     1      -4.742  -9.039  10.248  0.00  0.00    +0.015 A 
ENDBRANCH  24  25
ENDBRANCH  21  22
ENDBRANCH  17  21
TORSDOF 6
ENDMDL
