MODEL 1
REMARK VINA RESULT:     -17.1      0.000      0.000
REMARK  Name = 
REMARK  5 active torsions:
REMARK  status: ('A' for Active; 'I' for Inactive)
REMARK    1  A    between atoms: C_2  and  C_3
REMARK    2  A    between atoms: C_3  and  O_4
REMARK    3  A    between atoms: O_4  and  C_5
REMARK    4  A    between atoms: N_11  and  C_12
REMARK    5  A    between atoms: C_22  and  C_24
REMARK                            x       y       z     vdW  Elec       q    Type
REMARK                         _______ _______ _______ _____ _____    ______ ____
ROOT
ATOM     12  C   UNL     1      -3.342   2.077  23.476  0.00  0.00    +0.129 A 
ATOM     13  C   UNL     1      -3.543   2.865  23.617  0.00  0.00    +0.023 A 
ATOM     14  C   UNL     1      -4.125   3.049  24.172  0.00  0.00    +0.014 A 
ATOM     15  C   UNL     1      -4.506   2.446  24.585  0.00  0.00    +0.041 A 
ATOM     16  C   UNL     1      -5.153   2.317  25.225  0.00  0.00    +0.058 C 
ATOM     17  C   UNL     1      -5.599   2.670  25.635  0.00  0.00    +0.011 C 
ATOM     18  C   UNL     1      -5.398   1.894  25.493  0.00  0.00    +0.043 C 
ATOM     19  C   UNL     1      -5.297   0.911  25.464  0.00  0.00    +0.096 C 
ATOM     20  N   UNL     1      -4.699   0.850  24.884  0.00  0.00    -0.276 N 
ATOM     21  C   UNL     1      -5.068   1.366  25.208  0.00  0.00    +0.099 C 
ATOM     22  C   UNL     1      -4.152   0.496  24.377  0.00  0.00    +0.249 C 
ATOM     23  O   UNL     1      -3.682   0.964  23.885  0.00  0.00    -0.270 OA
ATOM     34  C   UNL     1      -4.721   2.019  24.824  0.00  0.00    +0.110 C 
ATOM     35  N   UNL     1      -4.305   1.658  24.444  0.00  0.00    -0.298 N 
ATOM     36  C   UNL     1      -3.722   1.474  23.889  0.00  0.00    +0.276 A 
ATOM     37  O   UNL     1      -3.359   0.800  23.582  0.00  0.00    -0.266 OA
ENDROOT
BRANCH  22  24
ATOM     24  C   UNL     1      -4.077  -0.325  24.360  0.00  0.00    +0.054 A 
ATOM     25  C   UNL     1      -3.594  -0.706  24.911  0.00  0.00    +0.005 A 
ATOM     26  C   UNL     1      -3.518  -1.528  24.894  0.00  0.00    +0.000 A 
ATOM     27  C   UNL     1      -3.925  -1.968  24.328  0.00  0.00    +0.000 A 
ATOM     28  C   UNL     1      -3.849  -2.790  24.312  0.00  0.00    +0.000 A 
ATOM     29  C   UNL     1      -3.366  -3.170  24.862  0.00  0.00    +0.000 A 
ATOM     30  C   UNL     1      -2.959  -2.730  25.428  0.00  0.00    +0.000 A 
ATOM     31  C   UNL     1      -3.035  -1.908  25.445  0.00  0.00    +0.000 A 
ATOM     32  C   UNL     1      -4.407  -1.588  23.778  0.00  0.00    +0.000 A 
ATOM     33  C   UNL     1      -4.483  -0.766  23.794  0.00  0.00    +0.005 A 
ENDBRANCH  22  24
BRANCH  12  11
ATOM      1  O   UNL     1      -1.392   1.924  22.504  0.00  0.00    -0.269 OA
ATOM      2  C   UNL     1      -1.975   2.107  23.060  0.00  0.00    +0.290 C 
ATOM     11  N   UNL     1      -2.760   1.894  22.921  0.00  0.00    -0.171 NA
BRANCH   2   3
ATOM      3  C   UNL     1      -1.772   2.504  23.755  0.00  0.00    +0.291 C 
BRANCH   3   4
ATOM      4  O   UNL     1      -0.979   2.656  23.926  0.00  0.00    -0.466 OA
BRANCH   4   5
ATOM      5  C   UNL     1      -0.732   2.718  24.711  0.00  0.00    +0.139 A 
ATOM      6  C   UNL     1      -0.435   2.056  25.104  0.00  0.00    +0.037 A 
ATOM      7  C   UNL     1      -0.188   2.119  25.889  0.00  0.00    +0.003 A 
ATOM      8  C   UNL     1      -0.237   2.843  26.280  0.00  0.00    +0.000 A 
ATOM      9  C   UNL     1      -0.534   3.505  25.887  0.00  0.00    +0.003 A 
ATOM     10  C   UNL     1      -0.781   3.442  25.102  0.00  0.00    +0.037 A 
ENDBRANCH   4   5
ENDBRANCH   3   4
ENDBRANCH   2   3
ENDBRANCH  12  11
TORSDOF 5
ENDMDL
MODEL 2
REMARK VINA RESULT:     -14.7      2.125      5.563
REMARK  Name = 
REMARK  5 active torsions:
REMARK  status: ('A' for Active; 'I' for Inactive)
REMARK    1  A    between atoms: C_2  and  C_3
REMARK    2  A    between atoms: C_3  and  O_4
REMARK    3  A    between atoms: O_4  and  C_5
REMARK    4  A    between atoms: N_11  and  C_12
REMARK    5  A    between atoms: C_22  and  C_24
REMARK                            x       y       z     vdW  Elec       q    Type
REMARK                         _______ _______ _______ _____ _____    ______ ____
ROOT
ATOM     12  C   UNL     1      -1.055  -0.607  25.565  0.00  0.00    +0.129 A 
ATOM     13  C   UNL     1      -0.792  -1.312  25.225  0.00  0.00    +0.023 A 
ATOM     14  C   UNL     1      -0.340  -1.294  24.535  0.00  0.00    +0.014 A 
ATOM     15  C   UNL     1      -0.151  -0.572  24.185  0.00  0.00    +0.041 A 
ATOM     16  C   UNL     1       0.302  -0.225  23.464  0.00  0.00    +0.058 C 
ATOM     17  C   UNL     1       0.679  -0.420  22.906  0.00  0.00    +0.011 C 
ATOM     18  C   UNL     1       0.418   0.274  23.244  0.00  0.00    +0.043 C 
ATOM     19  C   UNL     1       0.200   1.204  23.496  0.00  0.00    +0.096 C 
ATOM     20  N   UNL     1      -0.246   1.061  24.187  0.00  0.00    -0.276 N 
ATOM     21  C   UNL     1       0.099   0.680  23.695  0.00  0.00    +0.099 C 
ATOM     22  C   UNL     1      -0.696   1.222  24.860  0.00  0.00    +0.249 C 
ATOM     23  O   UNL     1      -0.970   0.602  25.331  0.00  0.00    -0.270 OA
ATOM     34  C   UNL     1      -0.057  -0.079  23.999  0.00  0.00    +0.110 C 
ATOM     35  N   UNL     1      -0.414   0.133  24.524  0.00  0.00    -0.298 N 
ATOM     36  C   UNL     1      -0.866   0.115  25.214  0.00  0.00    +0.276 A 
ATOM     37  O   UNL     1      -1.230   0.653  25.722  0.00  0.00    -0.266 OA
ENDROOT
BRANCH  22  24
ATOM     24  C   UNL     1      -0.872   2.002  25.061  0.00  0.00    +0.054 A 
ATOM     25  C   UNL     1      -1.583   2.342  24.814  0.00  0.00    +0.005 A 
ATOM     26  C   UNL     1      -1.759   3.123  25.015  0.00  0.00    +0.000 A 
ATOM     27  C   UNL     1      -1.225   3.563  25.462  0.00  0.00    +0.000 A 
ATOM     28  C   UNL     1      -1.402   4.344  25.663  0.00  0.00    +0.000 A 
ATOM     29  C   UNL     1      -2.112   4.683  25.416  0.00  0.00    +0.000 A 
ATOM     30  C   UNL     1      -2.646   4.242  24.969  0.00  0.00    +0.000 A 
ATOM     31  C   UNL     1      -2.470   3.461  24.768  0.00  0.00    +0.000 A 
ATOM     32  C   UNL     1      -0.515   3.225  25.709  0.00  0.00    +0.000 A 
ATOM     33  C   UNL     1      -0.339   2.444  25.508  0.00  0.00    +0.005 A 
ENDBRANCH  22  24
BRANCH  12  11
ATOM      1  O   UNL     1      -2.678  -1.047  26.957  0.00  0.00    -0.269 OA
ATOM      2  C   UNL     1      -2.226  -1.028  26.266  0.00  0.00    +0.290 C 
ATOM     11  N   UNL     1      -1.506  -0.625  26.254  0.00  0.00    -0.171 NA
BRANCH   2   3
ATOM      3  C   UNL     1      -2.494  -1.413  25.587  0.00  0.00    +0.291 C 
BRANCH   3   4
ATOM      4  O   UNL     1      -3.224  -1.799  25.594  0.00  0.00    -0.466 OA
BRANCH   4   5
ATOM      5  C   UNL     1      -3.595  -1.991  24.882  0.00  0.00    +0.139 A 
ATOM      6  C   UNL     1      -3.993  -1.408  24.455  0.00  0.00    +0.037 A 
ATOM      7  C   UNL     1      -4.364  -1.600  23.743  0.00  0.00    +0.003 A 
ATOM      8  C   UNL     1      -4.337  -2.374  23.459  0.00  0.00    +0.000 A 
ATOM      9  C   UNL     1      -3.938  -2.956  23.887  0.00  0.00    +0.003 A 
ATOM     10  C   UNL     1      -3.567  -2.764  24.598  0.00  0.00    +0.037 A 
ENDBRANCH   4   5
ENDBRANCH   3   4
ENDBRANCH   2   3
ENDBRANCH  12  11
TORSDOF 5
ENDMDL
MODEL 3
REMARK VINA RESULT:     -14.7      1.313      3.235
REMARK  Name = 
REMARK  5 active torsions:
REMARK  status: ('A' for Active; 'I' for Inactive)
REMARK    1  A    between atoms: C_2  and  C_3
REMARK    2  A    between atoms: C_3  and  O_4
REMARK    3  A    between atoms: O_4  and  C_5
REMARK    4  A    between atoms: N_11  and  C_12
REMARK    5  A    between atoms: C_22  and  C_24
REMARK                            x       y       z     vdW  Elec       q    Type
REMARK                         _______ _______ _______ _____ _____    ______ ____
ROOT
ATOM     12  C   UNL     1      -1.729   2.195  23.692  0.00  0.00    +0.129 A 
ATOM     13  C   UNL     1      -1.444   2.944  23.889  0.00  0.00    +0.023 A 
ATOM     14  C   UNL     1      -1.004   3.050  24.579  0.00  0.00    +0.014 A 
ATOM     15  C   UNL     1      -0.848   2.406  25.071  0.00  0.00    +0.041 A 
ATOM     16  C   UNL     1      -0.420   2.196  25.856  0.00  0.00    +0.058 C 
ATOM     17  C   UNL     1      -0.044   2.486  26.373  0.00  0.00    +0.011 C 
ATOM     18  C   UNL     1      -0.326   1.748  26.175  0.00  0.00    +0.043 C 
ATOM     19  C   UNL     1      -0.576   0.794  26.109  0.00  0.00    +0.096 C 
ATOM     20  N   UNL     1      -1.005   0.811  25.393  0.00  0.00    -0.276 N 
ATOM     21  C   UNL     1      -0.653   1.271  25.807  0.00  0.00    +0.099 C 
ATOM     22  C   UNL     1      -1.451   0.533  24.756  0.00  0.00    +0.249 C 
ATOM     23  O   UNL     1      -1.694   1.055  24.164  0.00  0.00    -0.270 OA
ATOM     34  C   UNL     1      -0.776   1.958  25.353  0.00  0.00    +0.110 C 
ATOM     35  N   UNL     1      -1.133   1.657  24.873  0.00  0.00    -0.298 N 
ATOM     36  C   UNL     1      -1.573   1.552  24.184  0.00  0.00    +0.276 A 
ATOM     37  O   UNL     1      -1.950   0.935  23.786  0.00  0.00    -0.266 OA
ENDROOT
BRANCH  22  24
ATOM     24  C   UNL     1      -1.654  -0.265  24.712  0.00  0.00    +0.054 A 
ATOM     25  C   UNL     1      -2.400  -0.515  24.960  0.00  0.00    +0.005 A 
ATOM     26  C   UNL     1      -2.603  -1.314  24.915  0.00  0.00    +0.000 A 
ATOM     27  C   UNL     1      -2.060  -1.861  24.623  0.00  0.00    +0.000 A 
ATOM     28  C   UNL     1      -2.263  -2.660  24.579  0.00  0.00    +0.000 A 
ATOM     29  C   UNL     1      -3.010  -2.910  24.827  0.00  0.00    +0.000 A 
ATOM     30  C   UNL     1      -3.552  -2.363  25.119  0.00  0.00    +0.000 A 
ATOM     31  C   UNL     1      -3.349  -1.564  25.163  0.00  0.00    +0.000 A 
ATOM     32  C   UNL     1      -1.314  -1.612  24.375  0.00  0.00    +0.000 A 
ATOM     33  C   UNL     1      -1.111  -0.813  24.420  0.00  0.00    +0.005 A 
ENDBRANCH  22  24
BRANCH  12  11
ATOM      1  O   UNL     1      -3.376   2.285  22.261  0.00  0.00    -0.269 OA
ATOM      2  C   UNL     1      -2.935   2.390  22.952  0.00  0.00    +0.290 C 
ATOM     11  N   UNL     1      -2.169   2.090  23.002  0.00  0.00    -0.171 NA
BRANCH   2   3
ATOM      3  C   UNL     1      -3.262   2.796  23.592  0.00  0.00    +0.291 C 
BRANCH   3   4
ATOM      4  O   UNL     1      -4.067   2.981  23.594  0.00  0.00    -0.466 OA
BRANCH   4   5
ATOM      5  C   UNL     1      -4.478   3.020  24.309  0.00  0.00    +0.139 A 
ATOM      6  C   UNL     1      -4.950   2.387  24.548  0.00  0.00    +0.037 A 
ATOM      7  C   UNL     1      -5.361   2.425  25.262  0.00  0.00    +0.003 A 
ATOM      8  C   UNL     1      -5.301   3.097  25.736  0.00  0.00    +0.000 A 
ATOM      9  C   UNL     1      -4.829   3.730  25.497  0.00  0.00    +0.003 A 
ATOM     10  C   UNL     1      -4.418   3.692  24.783  0.00  0.00    +0.037 A 
ENDBRANCH   4   5
ENDBRANCH   3   4
ENDBRANCH   2   3
ENDBRANCH  12  11
TORSDOF 5
ENDMDL
MODEL 4
REMARK VINA RESULT:     -13.6      1.348      2.523
REMARK  Name = 
REMARK  5 active torsions:
REMARK  status: ('A' for Active; 'I' for Inactive)
REMARK    1  A    between atoms: C_2  and  C_3
REMARK    2  A    between atoms: C_3  and  O_4
REMARK    3  A    between atoms: O_4  and  C_5
REMARK    4  A    between atoms: N_11  and  C_12
REMARK    5  A    between atoms: C_22  and  C_24
REMARK                            x       y       z     vdW  Elec       q    Type
REMARK                         _______ _______ _______ _____ _____    ______ ____
ROOT
ATOM     12  C   UNL     1      -4.060   2.645  24.255  0.00  0.00    +0.129 A 
ATOM     13  C   UNL     1      -4.035   3.294  23.746  0.00  0.00    +0.023 A 
ATOM     14  C   UNL     1      -3.655   3.231  23.016  0.00  0.00    +0.014 A 
ATOM     15  C   UNL     1      -3.300   2.520  22.796  0.00  0.00    +0.041 A 
ATOM     16  C   UNL     1      -2.828   2.142  22.104  0.00  0.00    +0.058 C 
ATOM     17  C   UNL     1      -2.568   2.291  21.469  0.00  0.00    +0.011 C 
ATOM     18  C   UNL     1      -2.595   1.653  21.975  0.00  0.00    +0.043 C 
ATOM     19  C   UNL     1      -2.520   0.784  22.439  0.00  0.00    +0.096 C 
ATOM     20  N   UNL     1      -2.930   0.966  23.144  0.00  0.00    -0.276 N 
ATOM     21  C   UNL     1      -2.748   1.296  22.540  0.00  0.00    +0.099 C 
ATOM     22  C   UNL     1      -3.260   0.857  23.893  0.00  0.00    +0.249 C 
ATOM     23  O   UNL     1      -3.658   1.478  24.263  0.00  0.00    -0.270 OA
ATOM     34  C   UNL     1      -3.087   2.039  22.703  0.00  0.00    +0.110 C 
ATOM     35  N   UNL     1      -3.325   1.872  23.306  0.00  0.00    -0.298 N 
ATOM     36  C   UNL     1      -3.705   1.934  24.036  0.00  0.00    +0.276 A 
ATOM     37  O   UNL     1      -3.859   1.456  24.689  0.00  0.00    -0.266 OA
ENDROOT
BRANCH  22  24
ATOM     24  C   UNL     1      -3.192   0.127  24.271  0.00  0.00    +0.054 A 
ATOM     25  C   UNL     1      -3.639  -0.516  24.011  0.00  0.00    +0.005 A 
ATOM     26  C   UNL     1      -3.571  -1.246  24.389  0.00  0.00    +0.000 A 
ATOM     27  C   UNL     1      -3.056  -1.333  25.027  0.00  0.00    +0.000 A 
ATOM     28  C   UNL     1      -2.988  -2.063  25.406  0.00  0.00    +0.000 A 
ATOM     29  C   UNL     1      -3.435  -2.705  25.145  0.00  0.00    +0.000 A 
ATOM     30  C   UNL     1      -3.950  -2.619  24.507  0.00  0.00    +0.000 A 
ATOM     31  C   UNL     1      -4.018  -1.888  24.129  0.00  0.00    +0.000 A 
ATOM     32  C   UNL     1      -2.608  -0.691  25.288  0.00  0.00    +0.000 A 
ATOM     33  C   UNL     1      -2.677   0.040  24.909  0.00  0.00    +0.005 A 
ENDBRANCH  22  24
BRANCH  12  11
ATOM      1  O   UNL     1      -4.583   3.346  26.256  0.00  0.00    -0.269 OA
ATOM      2  C   UNL     1      -4.201   3.283  25.526  0.00  0.00    +0.290 C 
ATOM     11  N   UNL     1      -4.440   2.709  24.984  0.00  0.00    -0.171 NA
BRANCH   2   3
ATOM      3  C   UNL     1      -3.582   3.795  25.339  0.00  0.00    +0.291 C 
BRANCH   3   4
ATOM      4  O   UNL     1      -3.057   4.039  25.927  0.00  0.00    -0.466 OA
BRANCH   4   5
ATOM      5  C   UNL     1      -2.300   4.297  25.722  0.00  0.00    +0.139 A 
ATOM      6  C   UNL     1      -1.650   3.805  25.842  0.00  0.00    +0.037 A 
ATOM      7  C   UNL     1      -0.893   4.063  25.638  0.00  0.00    +0.003 A 
ATOM      8  C   UNL     1      -0.788   4.814  25.314  0.00  0.00    +0.000 A 
ATOM      9  C   UNL     1      -1.438   5.307  25.194  0.00  0.00    +0.003 A 
ATOM     10  C   UNL     1      -2.195   5.048  25.398  0.00  0.00    +0.037 A 
ENDBRANCH   4   5
ENDBRANCH   3   4
ENDBRANCH   2   3
ENDBRANCH  12  11
TORSDOF 5
ENDMDL
MODEL 5
REMARK VINA RESULT:     -13.2      1.946      3.882
REMARK  Name = 
REMARK  5 active torsions:
REMARK  status: ('A' for Active; 'I' for Inactive)
REMARK    1  A    between atoms: C_2  and  C_3
REMARK    2  A    between atoms: C_3  and  O_4
REMARK    3  A    between atoms: O_4  and  C_5
REMARK    4  A    between atoms: N_11  and  C_12
REMARK    5  A    between atoms: C_22  and  C_24
REMARK                            x       y       z     vdW  Elec       q    Type
REMARK                         _______ _______ _______ _____ _____    ______ ____
ROOT
ATOM     12  C   UNL     1      -1.493  -0.172  25.272  0.00  0.00    +0.129 A 
ATOM     13  C   UNL     1      -1.080  -0.885  25.232  0.00  0.00    +0.023 A 
ATOM     14  C   UNL     1      -1.462  -1.569  24.973  0.00  0.00    +0.014 A 
ATOM     15  C   UNL     1      -2.257  -1.539  24.754  0.00  0.00    +0.041 A 
ATOM     16  C   UNL     1      -2.932  -2.079  24.443  0.00  0.00    +0.058 C 
ATOM     17  C   UNL     1      -3.065  -2.743  24.258  0.00  0.00    +0.011 C 
ATOM     18  C   UNL     1      -3.469  -2.037  24.299  0.00  0.00    +0.043 C 
ATOM     19  C   UNL     1      -4.118  -1.292  24.279  0.00  0.00    +0.096 C 
ATOM     20  N   UNL     1      -3.630  -0.673  24.554  0.00  0.00    -0.276 N 
ATOM     21  C   UNL     1      -3.571  -1.370  24.417  0.00  0.00    +0.099 C 
ATOM     22  C   UNL     1      -3.408   0.087  24.785  0.00  0.00    +0.249 C 
ATOM     23  O   UNL     1      -2.635   0.233  25.037  0.00  0.00    -0.270 OA
ATOM     34  C   UNL     1      -2.770  -1.465  24.624  0.00  0.00    +0.110 C 
ATOM     35  N   UNL     1      -2.669  -0.825  24.794  0.00  0.00    -0.298 N 
ATOM     36  C   UNL     1      -2.287  -0.142  25.053  0.00  0.00    +0.276 A 
ATOM     37  O   UNL     1      -2.470   0.653  25.176  0.00  0.00    -0.266 OA
ENDROOT
BRANCH  22  24
ATOM     24  C   UNL     1      -3.957   0.702  24.764  0.00  0.00    +0.054 A 
ATOM     25  C   UNL     1      -4.516   0.776  25.367  0.00  0.00    +0.005 A 
ATOM     26  C   UNL     1      -5.067   1.390  25.346  0.00  0.00    +0.000 A 
ATOM     27  C   UNL     1      -5.058   1.930  24.723  0.00  0.00    +0.000 A 
ATOM     28  C   UNL     1      -5.609   2.545  24.702  0.00  0.00    +0.000 A 
ATOM     29  C   UNL     1      -6.167   2.618  25.305  0.00  0.00    +0.000 A 
ATOM     30  C   UNL     1      -6.176   2.079  25.927  0.00  0.00    +0.000 A 
ATOM     31  C   UNL     1      -5.625   1.464  25.948  0.00  0.00    +0.000 A 
ATOM     32  C   UNL     1      -4.500   1.857  24.120  0.00  0.00    +0.000 A 
ATOM     33  C   UNL     1      -3.949   1.242  24.141  0.00  0.00    +0.005 A 
ENDBRANCH  22  24
BRANCH  12  11
ATOM      1  O   UNL     1      -0.079   1.488  25.375  0.00  0.00    -0.269 OA
ATOM      2  C   UNL     1      -0.462   0.804  25.115  0.00  0.00    +0.290 C 
ATOM     11  N   UNL     1      -1.110   0.511  25.531  0.00  0.00    -0.171 NA
BRANCH   2   3
ATOM      3  C   UNL     1      -0.195   0.414  24.438  0.00  0.00    +0.291 C 
BRANCH   3   4
ATOM      4  O   UNL     1       0.198   0.836  23.847  0.00  0.00    -0.466 OA
BRANCH   4   5
ATOM      5  C   UNL     1       0.712   0.444  23.334  0.00  0.00    +0.139 A 
ATOM      6  C   UNL     1       0.410  -0.020  22.723  0.00  0.00    +0.037 A 
ATOM      7  C   UNL     1       0.924  -0.412  22.210  0.00  0.00    +0.003 A 
ATOM      8  C   UNL     1       1.739  -0.339  22.309  0.00  0.00    +0.000 A 
ATOM      9  C   UNL     1       2.041   0.125  22.920  0.00  0.00    +0.003 A 
ATOM     10  C   UNL     1       1.528   0.517  23.433  0.00  0.00    +0.037 A 
ENDBRANCH   4   5
ENDBRANCH   3   4
ENDBRANCH   2   3
ENDBRANCH  12  11
TORSDOF 5
ENDMDL
