MODEL 1
REMARK VINA RESULT:     -13.4      0.000      0.000
REMARK  Name = 
REMARK  3 active torsions:
REMARK  status: ('A' for Active; 'I' for Inactive)
REMARK    1  A    between atoms: C_7  and  C_9
REMARK    2  A    between atoms: N_12  and  C_13
REMARK    3  A    between atoms: C_13  and  C_14
REMARK                            x       y       z     vdW  Elec       q    Type
REMARK                         _______ _______ _______ _____ _____    ______ ____
ROOT
ATOM      9  C   UNL     1      -4.530   1.011  24.864  0.00  0.00    +0.094 C 
ATOM     10  C   UNL     1      -5.163   1.307  25.302  0.00  0.00    +0.028 C 
ATOM     11  C   UNL     1      -5.154   2.130  25.243  0.00  0.00    +0.073 C 
ATOM     12  N   UNL     1      -4.514   2.343  24.768  0.00  0.00    -0.268 NA
ATOM     22  C   UNL     1      -4.129   1.652  24.534  0.00  0.00    +0.082 C 
ENDROOT
BRANCH   9   7
ATOM      1  C   UNL     1      -3.133  -3.065  25.123  0.00  0.00    +0.031 C 
ATOM      2  C   UNL     1      -3.495  -2.381  24.838  0.00  0.00    -0.020 A 
ATOM      3  C   UNL     1      -3.474  -1.687  25.282  0.00  0.00    +0.018 A 
ATOM      4  C   UNL     1      -3.837  -1.003  24.997  0.00  0.00    +0.118 A 
ATOM      5  C   UNL     1      -4.221  -1.014  24.267  0.00  0.00    +0.164 A 
ATOM      6  O   UNL     1      -4.527  -0.261  24.128  0.00  0.00    -0.438 OA
ATOM      7  C   UNL     1      -4.333   0.215  24.773  0.00  0.00    +0.207 A 
ATOM      8  N   UNL     1      -3.906  -0.243  25.309  0.00  0.00    -0.212 NA
ATOM     23  C   UNL     1      -4.243  -1.710  23.822  0.00  0.00    +0.039 A 
ATOM     24  C   UNL     1      -3.879  -2.393  24.108  0.00  0.00    -0.001 A 
ENDBRANCH   9   7
BRANCH  12  13
ATOM     13  C   UNL     1      -4.298   3.112  24.562  0.00  0.00    +0.099 C 
BRANCH  13  14
ATOM     14  C   UNL     1      -3.633   3.460  24.907  0.00  0.00    -0.004 A 
ATOM     15  C   UNL     1      -3.682   3.781  25.665  0.00  0.00    +0.029 A 
ATOM     16  C   UNL     1      -3.017   4.129  26.008  0.00  0.00    +0.167 A 
ATOM     17  F   UNL     1      -3.066   4.451  26.767  0.00  0.00    -0.202 F 
ATOM     18  C   UNL     1      -2.305   4.155  25.595  0.00  0.00    +0.167 A 
ATOM     19  F   UNL     1      -1.641   4.503  25.939  0.00  0.00    -0.202 F 
ATOM     20  C   UNL     1      -2.256   3.834  24.836  0.00  0.00    +0.032 A 
ATOM     21  C   UNL     1      -2.920   3.486  24.492  0.00  0.00    -0.000 A 
ENDBRANCH  13  14
ENDBRANCH  12  13
TORSDOF 3
ENDMDL
MODEL 2
REMARK VINA RESULT:     -12.9      2.572      5.340
REMARK  Name = 
REMARK  3 active torsions:
REMARK  status: ('A' for Active; 'I' for Inactive)
REMARK    1  A    between atoms: C_7  and  C_9
REMARK    2  A    between atoms: N_12  and  C_13
REMARK    3  A    between atoms: C_13  and  C_14
REMARK                            x       y       z     vdW  Elec       q    Type
REMARK                         _______ _______ _______ _____ _____    ______ ____
ROOT
ATOM      9  C   UNL     1      -3.175   1.642  24.346  0.00  0.00    +0.094 C 
ATOM     10  C   UNL     1      -3.147   1.283  23.604  0.00  0.00    +0.028 C 
ATOM     11  C   UNL     1      -3.597   0.592  23.637  0.00  0.00    +0.073 C 
ATOM     12  N   UNL     1      -3.904   0.524  24.399  0.00  0.00    -0.268 NA
ATOM     22  C   UNL     1      -3.643   1.173  24.838  0.00  0.00    +0.082 C 
ENDROOT
BRANCH   9   7
ATOM      1  C   UNL     1      -0.600   5.046  24.987  0.00  0.00    +0.031 C 
ATOM      2  C   UNL     1      -1.251   4.542  25.029  0.00  0.00    -0.020 A 
ATOM      3  C   UNL     1      -1.247   3.827  24.618  0.00  0.00    +0.018 A 
ATOM      4  C   UNL     1      -1.898   3.323  24.660  0.00  0.00    +0.118 A 
ATOM      5  C   UNL     1      -2.554   3.534  25.113  0.00  0.00    +0.164 A 
ATOM      6  O   UNL     1      -3.112   2.930  25.051  0.00  0.00    -0.438 OA
ATOM      7  C   UNL     1      -2.802   2.346  24.559  0.00  0.00    +0.207 A 
ATOM      8  N   UNL     1      -2.051   2.589  24.318  0.00  0.00    -0.212 NA
ATOM     23  C   UNL     1      -2.559   4.250  25.525  0.00  0.00    +0.039 A 
ATOM     24  C   UNL     1      -1.907   4.753  25.482  0.00  0.00    -0.001 A 
ENDBRANCH   9   7
BRANCH  12  13
ATOM     13  C   UNL     1      -4.387  -0.085  24.676  0.00  0.00    +0.099 C 
BRANCH  13  14
ATOM     14  C   UNL     1      -4.080  -0.845  24.769  0.00  0.00    -0.004 A 
ATOM     15  C   UNL     1      -4.202  -1.415  24.184  0.00  0.00    +0.029 A 
ATOM     16  C   UNL     1      -3.895  -2.174  24.279  0.00  0.00    +0.167 A 
ATOM     17  F   UNL     1      -4.017  -2.744  23.694  0.00  0.00    -0.202 F 
ATOM     18  C   UNL     1      -3.466  -2.365  24.957  0.00  0.00    +0.167 A 
ATOM     19  F   UNL     1      -3.159  -3.125  25.050  0.00  0.00    -0.202 F 
ATOM     20  C   UNL     1      -3.343  -1.796  25.542  0.00  0.00    +0.032 A 
ATOM     21  C   UNL     1      -3.650  -1.035  25.448  0.00  0.00    -0.000 A 
ENDBRANCH  13  14
ENDBRANCH  12  13
TORSDOF 3
ENDMDL
MODEL 3
REMARK VINA RESULT:     -12.9      1.812      2.440
REMARK  Name = 
REMARK  3 active torsions:
REMARK  status: ('A' for Active; 'I' for Inactive)
REMARK    1  A    between atoms: C_7  and  C_9
REMARK    2  A    between atoms: N_12  and  C_13
REMARK    3  A    between atoms: C_13  and  C_14
REMARK                            x       y       z     vdW  Elec       q    Type
REMARK                         _______ _______ _______ _____ _____    ______ ____
ROOT
ATOM      9  C   UNL     1      -1.620   0.869  24.772  0.00  0.00    +0.094 C 
ATOM     10  C   UNL     1      -0.958   1.044  24.313  0.00  0.00    +0.028 C 
ATOM     11  C   UNL     1      -0.585   1.703  24.642  0.00  0.00    +0.073 C 
ATOM     12  N   UNL     1      -1.018   1.935  25.305  0.00  0.00    -0.268 NA
ATOM     22  C   UNL     1      -1.657   1.419  25.385  0.00  0.00    +0.082 C 
ENDROOT
BRANCH   9   7
ATOM      1  C   UNL     1      -3.785  -2.843  24.360  0.00  0.00    +0.031 C 
ATOM      2  C   UNL     1      -3.607  -2.038  24.344  0.00  0.00    -0.020 A 
ATOM      3  C   UNL     1      -2.865  -1.774  24.587  0.00  0.00    +0.018 A 
ATOM      4  C   UNL     1      -2.687  -0.969  24.570  0.00  0.00    +0.118 A 
ATOM      5  C   UNL     1      -3.252  -0.427  24.310  0.00  0.00    +0.164 A 
ATOM      6  O   UNL     1      -2.921   0.327  24.354  0.00  0.00    -0.438 OA
ATOM      7  C   UNL     1      -2.152   0.252  24.641  0.00  0.00    +0.207 A 
ATOM      8  N   UNL     1      -2.008  -0.549  24.775  0.00  0.00    -0.212 NA
ATOM     23  C   UNL     1      -3.995  -0.691  24.066  0.00  0.00    +0.039 A 
ATOM     24  C   UNL     1      -4.172  -1.496  24.083  0.00  0.00    -0.001 A 
ENDBRANCH   9   7
BRANCH  12  13
ATOM     13  C   UNL     1      -0.842   2.570  25.800  0.00  0.00    +0.099 C 
BRANCH  13  14
ATOM     14  C   UNL     1      -1.102   3.329  25.606  0.00  0.00    -0.004 A 
ATOM     15  C   UNL     1      -0.608   3.839  25.184  0.00  0.00    +0.029 A 
ATOM     16  C   UNL     1      -0.869   4.597  24.991  0.00  0.00    +0.167 A 
ATOM     17  F   UNL     1      -0.375   5.107  24.569  0.00  0.00    -0.202 F 
ATOM     18  C   UNL     1      -1.621   4.847  25.219  0.00  0.00    +0.167 A 
ATOM     19  F   UNL     1      -1.880   5.605  25.025  0.00  0.00    -0.202 F 
ATOM     20  C   UNL     1      -2.114   4.337  25.641  0.00  0.00    +0.032 A 
ATOM     21  C   UNL     1      -1.855   3.578  25.835  0.00  0.00    -0.000 A 
ENDBRANCH  13  14
ENDBRANCH  12  13
TORSDOF 3
ENDMDL
