REMARK  Name = 
REMARK  5 active torsions:
REMARK  status: ('A' for Active; 'I' for Inactive)
REMARK    1  A    between atoms: C_2  and  C_3
REMARK    2  A    between atoms: C_5  and  C_6
REMARK    3  A    between atoms: C_6  and  C_7
REMARK    4  A    between atoms: C_10  and  C_11
REMARK    5  A    between atoms: C_11  and  N_12
REMARK                            x       y       z     vdW  Elec       q    Type
REMARK                         _______ _______ _______ _____ _____    ______ ____
ROOT
ATOM      7  C   UNL     1       2.037  -1.299   0.000  0.00  0.00    +0.103 A 
ATOM      8  N   UNL     1       2.704  -1.784   0.000  0.00  0.00    -0.082 NA
ATOM      9  O   UNL     1       2.449  -2.569   0.000  0.00  0.00    -0.357 OA
ATOM     10  C   UNL     1       1.624  -2.569   0.000  0.00  0.00    +0.170 A 
ATOM     18  C   UNL     1       1.369  -1.784   0.000  0.00  0.00    +0.055 A 
ENDROOT
BRANCH   7   6
ATOM      6  C   UNL     1       2.037  -0.474   0.000  0.00  0.00    +0.079 C 
BRANCH   6   5
ATOM      3  C   UNL     1       4.180  -0.062   0.000  0.00  0.00    +0.164 C 
ATOM      4  O   UNL     1       3.466  -0.474   0.000  0.00  0.00    -0.354 OA
ATOM      5  C   UNL     1       2.751  -0.062   0.000  0.00  0.00    +0.121 C 
ATOM     19  C   UNL     1       2.751   0.763   0.000  0.00  0.00    +0.033 C 
ATOM     20  C   UNL     1       3.466   1.176   0.000  0.00  0.00    +0.038 C 
ATOM     21  C   UNL     1       4.180   0.763   0.000  0.00  0.00    +0.180 C 
ATOM     22  O   UNL     1       4.895   1.176   0.000  0.00  0.00    -0.220 OA
BRANCH   3   2
ATOM      1  N   UNL     1       5.609  -0.062   0.000  0.00  0.00    -0.129 NA
ATOM      2  C   UNL     1       4.895  -0.474   0.000  0.00  0.00    +0.141 C 
ENDBRANCH   3   2
ENDBRANCH   6   5
ENDBRANCH   7   6
BRANCH  10  11
ATOM     11  C   UNL     1       1.139  -3.236   0.000  0.00  0.00    +0.141 C 
BRANCH  11  12
ATOM     12  N   UNL     1       0.319  -3.150   0.000  0.00  0.00    -0.264 NA
ATOM     13  C   UNL     1      -0.166  -3.817   0.000  0.00  0.00    +0.091 C 
ATOM     14  C   UNL     1      -0.987  -3.731   0.000  0.00  0.00    +0.106 C 
ATOM     15  N   UNL     1      -1.322  -2.977   0.000  0.00  0.00    -0.215 NA
ATOM     16  C   UNL     1      -0.837  -2.310   0.000  0.00  0.00    +0.106 C 
ATOM     17  C   UNL     1      -0.017  -2.396   0.000  0.00  0.00    +0.091 C 
ENDBRANCH  11  12
ENDBRANCH  10  11
TORSDOF 5
