MODEL 1
REMARK VINA RESULT:     -10.6      0.000      0.000
REMARK  Name = 
REMARK  8 active torsions:
REMARK  status: ('A' for Active; 'I' for Inactive)
REMARK    1  A    between atoms: C_2  and  C_4
REMARK    2  A    between atoms: C_6  and  C_7
REMARK    3  A    between atoms: C_7  and  C_8
REMARK    4  A    between atoms: C_18  and  C_19
REMARK    5  A    between atoms: C_19  and  N_20
REMARK    6  A    between atoms: N_20  and  S_21
REMARK    7  A    between atoms: S_21  and  C_24
REMARK    8  A    between atoms: C_24  and  C_25
REMARK                            x       y       z     vdW  Elec       q    Type
REMARK                         _______ _______ _______ _____ _____    ______ ____
ROOT
ATOM      4  C   UNL     1      -3.213   2.356  24.595  0.00  0.00    +0.006 C 
ATOM      5  C   UNL     1      -2.710   2.973  24.812  0.00  0.00    +0.005 C 
ATOM      6  C   UNL     1      -1.992   2.808  25.186  0.00  0.00    +0.027 C 
ATOM     15  C   UNL     1      -1.778   2.027  25.341  0.00  0.00    -0.048 C 
ATOM     16  C   UNL     1      -1.061   1.862  25.714  0.00  0.00    +0.026 C 
ATOM     17  C   UNL     1      -2.281   1.410  25.123  0.00  0.00    -0.033 C 
ATOM     18  C   UNL     1      -2.998   1.575  24.751  0.00  0.00    +0.041 C 
ENDROOT
BRANCH   4   2
ATOM      1  C   UNL     1      -3.954   2.627  23.404  0.00  0.00    +0.000 C 
ATOM      2  C   UNL     1      -3.929   2.521  24.222  0.00  0.00    +0.000 C 
ATOM      3  C   UNL     1      -4.621   2.581  24.666  0.00  0.00    +0.000 C 
ENDBRANCH   4   2
BRANCH   6   7
ATOM      7  C   UNL     1      -1.489   3.425  25.403  0.00  0.00    +0.089 C 
BRANCH   7   8
ATOM      8  C   UNL     1      -1.794   4.179  25.535  0.00  0.00    +0.226 C 
ATOM      9  O   UNL     1      -2.463   4.277  26.009  0.00  0.00    -0.275 OA
ATOM     10  N   UNL     1      -1.432   4.837  25.193  0.00  0.00    -0.280 N 
ATOM     11  C   UNL     1      -0.765   4.825  24.709  0.00  0.00    +0.093 C 
ATOM     12  C   UNL     1      -0.594   5.603  24.492  0.00  0.00    +0.023 C 
ATOM     13  C   UNL     1      -1.156   6.095  24.842  0.00  0.00    +0.023 C 
ATOM     14  C   UNL     1      -1.674   5.621  25.275  0.00  0.00    +0.093 C 
ENDBRANCH   7   8
ENDBRANCH   6   7
BRANCH  18  19
ATOM     19  C   UNL     1      -3.501   0.958  24.533  0.00  0.00    +0.119 C 
BRANCH  19  20
ATOM     20  N   UNL     1      -3.250   0.175  24.605  0.00  0.00    -0.081 NA
BRANCH  20  21
ATOM     21  S   UNL     1      -3.779  -0.443  24.466  0.00  0.00    +0.062 S 
ATOM     22  O   UNL     1      -3.547  -0.463  23.675  0.00  0.00    -0.156 OA
ATOM     23  O   UNL     1      -4.011  -0.422  25.258  0.00  0.00    -0.156 OA
BRANCH  21  24
ATOM     24  C   UNL     1      -4.307  -1.060  24.328  0.00  0.00    +0.197 C 
BRANCH  24  25
ATOM     25  C   UNL     1      -4.044  -1.841  24.348  0.00  0.00    +0.003 A 
ATOM     26  C   UNL     1      -4.226  -2.354  23.729  0.00  0.00    -0.003 A 
ATOM     27  C   UNL     1      -3.962  -3.136  23.749  0.00  0.00    -0.000 A 
ATOM     28  C   UNL     1      -3.516  -3.404  24.390  0.00  0.00    -0.000 A 
ATOM     29  C   UNL     1      -3.334  -2.891  25.010  0.00  0.00    -0.000 A 
ATOM     30  C   UNL     1      -3.598  -2.109  24.988  0.00  0.00    -0.003 A 
ENDBRANCH  24  25
ENDBRANCH  21  24
ENDBRANCH  20  21
ENDBRANCH  19  20
ENDBRANCH  18  19
TORSDOF 8
ENDMDL
MODEL 2
REMARK VINA RESULT:     -10.4      1.390      5.725
REMARK  Name = 
REMARK  8 active torsions:
REMARK  status: ('A' for Active; 'I' for Inactive)
REMARK    1  A    between atoms: C_2  and  C_4
REMARK    2  A    between atoms: C_6  and  C_7
REMARK    3  A    between atoms: C_7  and  C_8
REMARK    4  A    between atoms: C_18  and  C_19
REMARK    5  A    between atoms: C_19  and  N_20
REMARK    6  A    between atoms: N_20  and  S_21
REMARK    7  A    between atoms: S_21  and  C_24
REMARK    8  A    between atoms: C_24  and  C_25
REMARK                            x       y       z     vdW  Elec       q    Type
REMARK                         _______ _______ _______ _____ _____    ______ ____
ROOT
ATOM      4  C   UNL     1      -3.214   1.272  23.958  0.00  0.00    +0.006 C 
ATOM      5  C   UNL     1      -3.466   0.486  23.957  0.00  0.00    +0.005 C 
ATOM      6  C   UNL     1      -4.094   0.254  24.440  0.00  0.00    +0.027 C 
ATOM     15  C   UNL     1      -4.470   0.807  24.922  0.00  0.00    -0.048 C 
ATOM     16  C   UNL     1      -5.098   0.575  25.404  0.00  0.00    +0.026 C 
ATOM     17  C   UNL     1      -4.218   1.593  24.922  0.00  0.00    -0.033 C 
ATOM     18  C   UNL     1      -3.591   1.825  24.441  0.00  0.00    +0.041 C 
ENDROOT
BRANCH   4   2
ATOM      1  C   UNL     1      -1.810   1.358  23.712  0.00  0.00    +0.000 C 
ATOM      2  C   UNL     1      -2.587   1.504  23.476  0.00  0.00    +0.000 C 
ATOM      3  C   UNL     1      -2.735   1.882  22.759  0.00  0.00    +0.000 C 
ENDBRANCH   4   2
BRANCH   6   7
ATOM      7  C   UNL     1      -4.346  -0.532  24.439  0.00  0.00    +0.089 C 
BRANCH   7   8
ATOM      8  C   UNL     1      -3.880  -1.114  24.791  0.00  0.00    +0.226 C 
ATOM      9  O   UNL     1      -3.422  -0.933  25.453  0.00  0.00    -0.275 OA
ATOM     10  N   UNL     1      -3.871  -1.879  24.481  0.00  0.00    -0.280 N 
ATOM     11  C   UNL     1      -4.298  -2.141  23.825  0.00  0.00    +0.093 C 
ATOM     12  C   UNL     1      -4.125  -2.940  23.711  0.00  0.00    +0.023 C 
ATOM     13  C   UNL     1      -3.591  -3.171  24.297  0.00  0.00    +0.023 C 
ATOM     14  C   UNL     1      -3.435  -2.515  24.773  0.00  0.00    +0.093 C 
ENDBRANCH   7   8
ENDBRANCH   6   7
BRANCH  18  19
ATOM     19  C   UNL     1      -3.339   2.611  24.441  0.00  0.00    +0.119 C 
BRANCH  19  20
ATOM     20  N   UNL     1      -3.682   3.154  24.960  0.00  0.00    -0.081 NA
BRANCH  20  21
ATOM     21  S   UNL     1      -3.276   3.842  25.164  0.00  0.00    +0.062 S 
ATOM     22  O   UNL     1      -3.458   4.168  24.429  0.00  0.00    -0.156 OA
ATOM     23  O   UNL     1      -3.094   3.516  25.900  0.00  0.00    -0.156 OA
BRANCH  21  24
ATOM     24  C   UNL     1      -2.870   4.531  25.369  0.00  0.00    +0.197 C 
BRANCH  24  25
ATOM     25  C   UNL     1      -2.057   4.582  25.243  0.00  0.00    +0.003 A 
ATOM     26  C   UNL     1      -1.760   5.105  24.678  0.00  0.00    -0.003 A 
ATOM     27  C   UNL     1      -0.946   5.158  24.551  0.00  0.00    -0.000 A 
ATOM     28  C   UNL     1      -0.430   4.686  24.990  0.00  0.00    -0.000 A 
ATOM     29  C   UNL     1      -0.727   4.163  25.554  0.00  0.00    -0.000 A 
ATOM     30  C   UNL     1      -1.541   4.111  25.680  0.00  0.00    -0.003 A 
ENDBRANCH  24  25
ENDBRANCH  21  24
ENDBRANCH  20  21
ENDBRANCH  19  20
ENDBRANCH  18  19
TORSDOF 8
ENDMDL
MODEL 3
REMARK VINA RESULT:     -10.2      1.462      6.093
REMARK  Name = 
REMARK  8 active torsions:
REMARK  status: ('A' for Active; 'I' for Inactive)
REMARK    1  A    between atoms: C_2  and  C_4
REMARK    2  A    between atoms: C_6  and  C_7
REMARK    3  A    between atoms: C_7  and  C_8
REMARK    4  A    between atoms: C_18  and  C_19
REMARK    5  A    between atoms: C_19  and  N_20
REMARK    6  A    between atoms: N_20  and  S_21
REMARK    7  A    between atoms: S_21  and  C_24
REMARK    8  A    between atoms: C_24  and  C_25
REMARK                            x       y       z     vdW  Elec       q    Type
REMARK                         _______ _______ _______ _____ _____    ______ ____
ROOT
ATOM      4  C   UNL     1      -1.950   0.227  24.809  0.00  0.00    +0.006 C 
ATOM      5  C   UNL     1      -2.504  -0.378  24.717  0.00  0.00    +0.005 C 
ATOM      6  C   UNL     1      -3.311  -0.204  24.728  0.00  0.00    +0.027 C 
ATOM     15  C   UNL     1      -3.563   0.574  24.832  0.00  0.00    -0.048 C 
ATOM     16  C   UNL     1      -4.370   0.748  24.844  0.00  0.00    +0.026 C 
ATOM     17  C   UNL     1      -3.010   1.179  24.925  0.00  0.00    -0.033 C 
ATOM     18  C   UNL     1      -2.204   1.006  24.913  0.00  0.00    +0.041 C 
ENDROOT
BRANCH   4   2
ATOM      1  C   UNL     1      -0.749  -0.116  25.501  0.00  0.00    +0.000 C 
ATOM      2  C   UNL     1      -1.144   0.054  24.797  0.00  0.00    +0.000 C 
ATOM      3  C   UNL     1      -0.734   0.050  24.083  0.00  0.00    +0.000 C 
ENDBRANCH   4   2
BRANCH   6   7
ATOM      7  C   UNL     1      -3.864  -0.809  24.636  0.00  0.00    +0.089 C 
BRANCH   7   8
ATOM      8  C   UNL     1      -3.741  -1.539  24.999  0.00  0.00    +0.226 C 
ATOM      9  O   UNL     1      -3.510  -1.573  25.790  0.00  0.00    -0.275 OA
ATOM     10  N   UNL     1      -3.849  -2.236  24.571  0.00  0.00    -0.280 N 
ATOM     11  C   UNL     1      -4.078  -2.289  23.780  0.00  0.00    +0.093 C 
ATOM     12  C   UNL     1      -4.118  -3.088  23.579  0.00  0.00    +0.023 C 
ATOM     13  C   UNL     1      -3.913  -3.529  24.245  0.00  0.00    +0.023 C 
ATOM     14  C   UNL     1      -3.747  -3.003  24.858  0.00  0.00    +0.093 C 
ENDBRANCH   7   8
ENDBRANCH   6   7
BRANCH  18  19
ATOM     19  C   UNL     1      -1.651   1.610  25.005  0.00  0.00    +0.119 C 
BRANCH  19  20
ATOM     20  N   UNL     1      -1.904   2.391  25.098  0.00  0.00    -0.081 NA
BRANCH  20  21
ATOM     21  S   UNL     1      -1.350   2.998  25.171  0.00  0.00    +0.062 S 
ATOM     22  O   UNL     1      -1.414   2.959  25.992  0.00  0.00    -0.156 OA
ATOM     23  O   UNL     1      -1.286   3.037  24.349  0.00  0.00    -0.156 OA
BRANCH  21  24
ATOM     24  C   UNL     1      -0.796   3.606  25.243  0.00  0.00    +0.197 C 
BRANCH  24  25
ATOM     25  C   UNL     1      -1.028   4.389  25.133  0.00  0.00    +0.003 A 
ATOM     26  C   UNL     1      -0.528   4.916  24.741  0.00  0.00    -0.003 A 
ATOM     27  C   UNL     1      -0.759   5.700  24.631  0.00  0.00    -0.000 A 
ATOM     28  C   UNL     1      -1.491   5.958  24.914  0.00  0.00    -0.000 A 
ATOM     29  C   UNL     1      -1.990   5.431  25.306  0.00  0.00    -0.000 A 
ATOM     30  C   UNL     1      -1.758   4.647  25.415  0.00  0.00    -0.003 A 
ENDBRANCH  24  25
ENDBRANCH  21  24
ENDBRANCH  20  21
ENDBRANCH  19  20
ENDBRANCH  18  19
TORSDOF 8
ENDMDL
