MODEL 1
REMARK VINA RESULT:     -18.5      0.000      0.000
REMARK  Name = 
REMARK  3 active torsions:
REMARK  status: ('A' for Active; 'I' for Inactive)
REMARK    1  A    between atoms: C_2  and  C_27
REMARK    2  A    between atoms: C_12  and  C_17
REMARK    3  A    between atoms: C_30  and  C_33
REMARK                            x       y       z     vdW  Elec       q    Type
REMARK                         _______ _______ _______ _____ _____    ______ ____
ROOT
ATOM      1  O   UNL     1      -6.228   1.930  24.794  0.00  0.00    -0.270 OA
ATOM      2  C   UNL     1      -5.354   1.977  24.864  0.00  0.00    +0.249 C 
ATOM      3  N   UNL     1      -5.103   2.697  25.226  0.00  0.00    -0.276 N 
ATOM      4  C   UNL     1      -5.293   3.433  25.572  0.00  0.00    +0.096 C 
ATOM      5  C   UNL     1      -4.384   3.759  25.779  0.00  0.00    +0.043 C 
ATOM      6  C   UNL     1      -3.716   4.163  26.011  0.00  0.00    +0.011 C 
ATOM      7  C   UNL     1      -3.872   3.551  25.706  0.00  0.00    +0.058 C 
ATOM      8  C   UNL     1      -4.757   3.250  25.513  0.00  0.00    +0.099 C 
ATOM      9  C   UNL     1      -3.477   2.796  25.362  0.00  0.00    +0.041 A 
ATOM     10  C   UNL     1      -2.733   2.461  25.240  0.00  0.00    +0.013 A 
ATOM     11  C   UNL     1      -2.668   1.719  24.885  0.00  0.00    +0.006 A 
ATOM     12  C   UNL     1      -3.456   1.350  24.663  0.00  0.00    +0.056 A 
ATOM     13  C   UNL     1      -4.090   1.647  24.773  0.00  0.00    +0.261 A 
ATOM     14  O   UNL     1      -5.073   1.355  24.578  0.00  0.00    -0.267 OA
ATOM     15  N   UNL     1      -4.155   2.389  25.128  0.00  0.00    -0.299 N 
ATOM     16  C   UNL     1      -3.980   2.966  25.418  0.00  0.00    +0.110 C 
ENDROOT
BRANCH  12  17
ATOM     17  C   UNL     1      -3.610   0.683  24.332  0.00  0.00    +0.005 A 
ATOM     18  C   UNL     1      -3.745   0.088  24.044  0.00  0.00    +0.000 A 
ATOM     19  C   UNL     1      -3.899  -0.579  23.712  0.00  0.00    +0.000 A 
ATOM     20  C   UNL     1      -3.733  -1.133  24.301  0.00  0.00    +0.000 A 
ATOM     21  C   UNL     1      -3.835  -1.938  24.150  0.00  0.00    +0.000 A 
ATOM     22  C   UNL     1      -3.669  -2.492  24.739  0.00  0.00    +0.000 A 
ATOM     23  C   UNL     1      -3.402  -2.242  25.477  0.00  0.00    +0.000 A 
ATOM     24  C   UNL     1      -3.301  -1.437  25.628  0.00  0.00    +0.000 A 
ATOM     25  C   UNL     1      -3.466  -0.883  25.040  0.00  0.00    +0.000 A 
ATOM     26  C   UNL     1      -3.338   0.016  25.255  0.00  0.00    +0.000 A 
ENDBRANCH  12  17
BRANCH   2  27
ATOM     27  C   UNL     1      -4.567   1.493  24.672  0.00  0.00    +0.054 A 
ATOM     28  C   UNL     1      -4.282   1.572  23.903  0.00  0.00    +0.005 A 
ATOM     29  C   UNL     1      -3.597   1.173  23.674  0.00  0.00    +0.010 A 
ATOM     30  C   UNL     1      -3.198   0.694  24.214  0.00  0.00    +0.068 A 
ATOM     31  C   UNL     1      -3.484   0.615  24.985  0.00  0.00    +0.010 A 
ATOM     32  C   UNL     1      -4.169   1.015  25.213  0.00  0.00    +0.005 A 
BRANCH  30  33
ATOM     33  C   UNL     1      -2.496   0.338  23.836  0.00  0.00    +0.100 C 
ATOM     34  N   UNL     1      -1.880   0.647  23.321  0.00  0.00    -0.191 NA
ENDBRANCH  30  33
ENDBRANCH   2  27
TORSDOF 3
ENDMDL
MODEL 2
REMARK VINA RESULT:     -18.4      1.255      3.989
REMARK  Name = 
REMARK  3 active torsions:
REMARK  status: ('A' for Active; 'I' for Inactive)
REMARK    1  A    between atoms: C_2  and  C_27
REMARK    2  A    between atoms: C_12  and  C_17
REMARK    3  A    between atoms: C_30  and  C_33
REMARK                            x       y       z     vdW  Elec       q    Type
REMARK                         _______ _______ _______ _____ _____    ______ ____
ROOT
ATOM      1  O   UNL     1      -2.814  -1.102  26.696  0.00  0.00    -0.270 OA
ATOM      2  C   UNL     1      -3.111  -0.986  25.878  0.00  0.00    +0.249 C 
ATOM      3  N   UNL     1      -3.287  -1.719  25.498  0.00  0.00    -0.276 N 
ATOM      4  C   UNL     1      -3.317  -2.553  25.522  0.00  0.00    +0.096 C 
ATOM      5  C   UNL     1      -3.662  -2.733  24.614  0.00  0.00    +0.043 C 
ATOM      6  C   UNL     1      -3.936  -3.044  23.913  0.00  0.00    +0.011 C 
ATOM      7  C   UNL     1      -3.806  -2.410  24.183  0.00  0.00    +0.058 C 
ATOM      8  C   UNL     1      -3.472  -2.252  25.064  0.00  0.00    +0.099 C 
ATOM      9  C   UNL     1      -3.842  -1.516  23.973  0.00  0.00    +0.041 A 
ATOM     10  C   UNL     1      -4.047  -1.011  23.354  0.00  0.00    +0.013 A 
ATOM     11  C   UNL     1      -3.975  -0.195  23.447  0.00  0.00    +0.006 A 
ATOM     12  C   UNL     1      -3.664   0.055  24.252  0.00  0.00    +0.056 A 
ATOM     13  C   UNL     1      -3.491  -0.388  24.777  0.00  0.00    +0.261 A 
ATOM     14  O   UNL     1      -3.125  -0.258  25.747  0.00  0.00    -0.267 OA
ATOM     15  N   UNL     1      -3.563  -1.204  24.685  0.00  0.00    -0.299 N 
ATOM     16  C   UNL     1      -3.696  -1.797  24.404  0.00  0.00    +0.110 C 
ENDROOT
BRANCH  12  17
ATOM     17  C   UNL     1      -3.528   0.750  24.532  0.00  0.00    +0.005 A 
ATOM     18  C   UNL     1      -3.415   1.366  24.781  0.00  0.00    +0.000 A 
ATOM     19  C   UNL     1      -3.277   2.060  25.060  0.00  0.00    +0.000 A 
ATOM     20  C   UNL     1      -4.030   2.370  25.191  0.00  0.00    +0.000 A 
ATOM     21  C   UNL     1      -4.116   3.131  25.499  0.00  0.00    +0.000 A 
ATOM     22  C   UNL     1      -4.870   3.441  25.629  0.00  0.00    +0.000 A 
ATOM     23  C   UNL     1      -5.537   2.992  25.451  0.00  0.00    +0.000 A 
ATOM     24  C   UNL     1      -5.452   2.231  25.143  0.00  0.00    +0.000 A 
ATOM     25  C   UNL     1      -4.699   1.921  25.013  0.00  0.00    +0.000 A 
ATOM     26  C   UNL     1      -4.650   1.057  24.663  0.00  0.00    +0.000 A 
ENDBRANCH  12  17
BRANCH   2  27
ATOM     27  C   UNL     1      -3.312  -0.311  25.251  0.00  0.00    +0.054 A 
ATOM     28  C   UNL     1      -2.665  -0.009  24.837  0.00  0.00    +0.005 A 
ATOM     29  C   UNL     1      -2.777   0.584  24.274  0.00  0.00    +0.010 A 
ATOM     30  C   UNL     1      -3.534   0.874  24.125  0.00  0.00    +0.068 A 
ATOM     31  C   UNL     1      -4.181   0.572  24.539  0.00  0.00    +0.010 A 
ATOM     32  C   UNL     1      -4.069  -0.021  25.103  0.00  0.00    +0.005 A 
BRANCH  30  33
ATOM     33  C   UNL     1      -3.500   1.493  23.510  0.00  0.00    +0.100 C 
ATOM     34  N   UNL     1      -2.994   1.622  22.827  0.00  0.00    -0.191 NA
ENDBRANCH  30  33
ENDBRANCH   2  27
TORSDOF 3
ENDMDL
MODEL 3
REMARK VINA RESULT:     -17.9      1.379      2.156
REMARK  Name = 
REMARK  3 active torsions:
REMARK  status: ('A' for Active; 'I' for Inactive)
REMARK    1  A    between atoms: C_2  and  C_27
REMARK    2  A    between atoms: C_12  and  C_17
REMARK    3  A    between atoms: C_30  and  C_33
REMARK                            x       y       z     vdW  Elec       q    Type
REMARK                         _______ _______ _______ _____ _____    ______ ____
ROOT
ATOM      1  O   UNL     1      -1.068   2.151  23.349  0.00  0.00    -0.270 OA
ATOM      2  C   UNL     1      -1.738   2.311  23.894  0.00  0.00    +0.249 C 
ATOM      3  N   UNL     1      -1.627   3.025  24.331  0.00  0.00    -0.276 N 
ATOM      4  C   UNL     1      -1.162   3.695  24.508  0.00  0.00    +0.096 C 
ATOM      5  C   UNL     1      -1.740   4.123  25.186  0.00  0.00    +0.043 C 
ATOM      6  C   UNL     1      -2.094   4.594  25.748  0.00  0.00    +0.011 C 
ATOM      7  C   UNL     1      -2.234   3.994  25.411  0.00  0.00    +0.058 C 
ATOM      8  C   UNL     1      -1.664   3.593  24.759  0.00  0.00    +0.099 C 
ATOM      9  C   UNL     1      -2.869   3.333  25.350  0.00  0.00    +0.041 A 
ATOM     10  C   UNL     1      -3.599   3.114  25.665  0.00  0.00    +0.013 A 
ATOM     11  C   UNL     1      -3.968   2.422  25.409  0.00  0.00    +0.006 A 
ATOM     12  C   UNL     1      -3.503   1.969  24.788  0.00  0.00    +0.056 A 
ATOM     13  C   UNL     1      -2.876   2.166  24.524  0.00  0.00    +0.261 A 
ATOM     14  O   UNL     1      -2.225   1.760  23.816  0.00  0.00    -0.267 OA
ATOM     15  N   UNL     1      -2.507   2.858  24.779  0.00  0.00    -0.299 N 
ATOM     16  C   UNL     1      -2.398   3.428  25.114  0.00  0.00    +0.110 C 
ENDROOT
BRANCH  12  17
ATOM     17  C   UNL     1      -3.667   1.317  24.430  0.00  0.00    +0.005 A 
ATOM     18  C   UNL     1      -3.811   0.737  24.119  0.00  0.00    +0.000 A 
ATOM     19  C   UNL     1      -3.975   0.086  23.761  0.00  0.00    +0.000 A 
ATOM     20  C   UNL     1      -3.848  -0.491  24.337  0.00  0.00    +0.000 A 
ATOM     21  C   UNL     1      -3.970  -1.288  24.156  0.00  0.00    +0.000 A 
ATOM     22  C   UNL     1      -3.843  -1.865  24.733  0.00  0.00    +0.000 A 
ATOM     23  C   UNL     1      -3.594  -1.646  25.487  0.00  0.00    +0.000 A 
ATOM     24  C   UNL     1      -3.472  -0.850  25.668  0.00  0.00    +0.000 A 
ATOM     25  C   UNL     1      -3.599  -0.273  25.092  0.00  0.00    +0.000 A 
ATOM     26  C   UNL     1      -3.449   0.614  25.340  0.00  0.00    +0.000 A 
ENDBRANCH  12  17
BRANCH   2  27
ATOM     27  C   UNL     1      -2.565   1.957  24.175  0.00  0.00    +0.054 A 
ATOM     28  C   UNL     1      -3.206   2.119  23.682  0.00  0.00    +0.005 A 
ATOM     29  C   UNL     1      -3.957   1.837  23.874  0.00  0.00    +0.010 A 
ATOM     30  C   UNL     1      -4.067   1.392  24.560  0.00  0.00    +0.068 A 
ATOM     31  C   UNL     1      -3.426   1.229  25.054  0.00  0.00    +0.010 A 
ATOM     32  C   UNL     1      -2.674   1.512  24.861  0.00  0.00    +0.005 A 
BRANCH  30  33
ATOM     33  C   UNL     1      -4.906   1.162  24.634  0.00  0.00    +0.100 C 
ATOM     34  N   UNL     1      -5.644   1.604  24.624  0.00  0.00    -0.191 NA
ENDBRANCH  30  33
ENDBRANCH   2  27
TORSDOF 3
ENDMDL
MODEL 4
REMARK VINA RESULT:     -17.5      1.301      2.094
REMARK  Name = 
REMARK  3 active torsions:
REMARK  status: ('A' for Active; 'I' for Inactive)
REMARK    1  A    between atoms: C_2  and  C_27
REMARK    2  A    between atoms: C_12  and  C_17
REMARK    3  A    between atoms: C_30  and  C_33
REMARK                            x       y       z     vdW  Elec       q    Type
REMARK                         _______ _______ _______ _____ _____    ______ ____
ROOT
ATOM      1  O   UNL     1      -2.163   1.603  22.912  0.00  0.00    -0.270 OA
ATOM      2  C   UNL     1      -2.782   1.444  23.515  0.00  0.00    +0.249 C 
ATOM      3  N   UNL     1      -3.279   2.114  23.643  0.00  0.00    -0.276 N 
ATOM      4  C   UNL     1      -3.483   2.904  23.464  0.00  0.00    +0.096 C 
ATOM      5  C   UNL     1      -4.252   3.019  24.074  0.00  0.00    +0.043 C 
ATOM      6  C   UNL     1      -4.892   3.271  24.511  0.00  0.00    +0.011 C 
ATOM      7  C   UNL     1      -4.507   2.687  24.442  0.00  0.00    +0.058 C 
ATOM      8  C   UNL     1      -3.766   2.592  23.848  0.00  0.00    +0.099 C 
ATOM      9  C   UNL     1      -4.435   1.829  24.764  0.00  0.00    +0.041 A 
ATOM     10  C   UNL     1      -4.791   1.315  25.301  0.00  0.00    +0.013 A 
ATOM     11  C   UNL     1      -4.500   0.549  25.393  0.00  0.00    +0.006 A 
ATOM     12  C   UNL     1      -3.794   0.362  24.870  0.00  0.00    +0.056 A 
ATOM     13  C   UNL     1      -3.495   0.812  24.412  0.00  0.00    +0.261 A 
ATOM     14  O   UNL     1      -2.691   0.749  23.749  0.00  0.00    -0.267 OA
ATOM     15  N   UNL     1      -3.787   1.578  24.320  0.00  0.00    -0.299 N 
ATOM     16  C   UNL     1      -4.169   2.121  24.404  0.00  0.00    +0.110 C 
ENDROOT
BRANCH  12  17
ATOM     17  C   UNL     1      -3.386  -0.278  24.806  0.00  0.00    +0.005 A 
ATOM     18  C   UNL     1      -3.030  -0.848  24.746  0.00  0.00    +0.000 A 
ATOM     19  C   UNL     1      -2.622  -1.486  24.682  0.00  0.00    +0.000 A 
ATOM     20  C   UNL     1      -3.147  -2.019  24.334  0.00  0.00    +0.000 A 
ATOM     21  C   UNL     1      -2.903  -2.791  24.171  0.00  0.00    +0.000 A 
ATOM     22  C   UNL     1      -3.429  -3.324  23.822  0.00  0.00    +0.000 A 
ATOM     23  C   UNL     1      -4.196  -3.086  23.637  0.00  0.00    +0.000 A 
ATOM     24  C   UNL     1      -4.439  -2.314  23.799  0.00  0.00    +0.000 A 
ATOM     25  C   UNL     1      -3.915  -1.782  24.147  0.00  0.00    +0.000 A 
ATOM     26  C   UNL     1      -4.232  -0.920  24.313  0.00  0.00    +0.000 A 
ENDBRANCH  12  17
BRANCH   2  27
ATOM     27  C   UNL     1      -3.099   0.768  24.091  0.00  0.00    +0.054 A 
ATOM     28  C   UNL     1      -2.676   0.674  24.793  0.00  0.00    +0.005 A 
ATOM     29  C   UNL     1      -2.906   0.098  25.338  0.00  0.00    +0.010 A 
ATOM     30  C   UNL     1      -3.557  -0.382  25.181  0.00  0.00    +0.068 A 
ATOM     31  C   UNL     1      -3.980  -0.287  24.478  0.00  0.00    +0.010 A 
ATOM     32  C   UNL     1      -3.751   0.288  23.933  0.00  0.00    +0.005 A 
BRANCH  30  33
ATOM     33  C   UNL     1      -3.681  -0.941  25.841  0.00  0.00    +0.100 C 
ATOM     34  N   UNL     1      -3.513  -0.908  26.684  0.00  0.00    -0.191 NA
ENDBRANCH  30  33
ENDBRANCH   2  27
TORSDOF 3
ENDMDL
