REMARK  Name = 
REMARK  9 active torsions:
REMARK  status: ('A' for Active; 'I' for Inactive)
REMARK    1  A    between atoms: O_2  and  C_3
REMARK    2  A    between atoms: C_6  and  S_9
REMARK    3  A    between atoms: S_9  and  N_12
REMARK    4  A    between atoms: N_12  and  C_13
REMARK    5  A    between atoms: C_13  and  C_14
REMARK    6  A    between atoms: C_21  and  C_22
REMARK    7  A    between atoms: C_22  and  N_23
REMARK    8  A    between atoms: C_26  and  C_27
REMARK    9  A    between atoms: C_27  and  C_28
REMARK                            x       y       z     vdW  Elec       q    Type
REMARK                         _______ _______ _______ _____ _____    ______ ____
ROOT
ATOM     14  C   UNL     1       1.814  -2.106   0.000  0.00  0.00    +0.077 C 
ATOM     15  C   UNL     1       1.661  -1.343   0.000  0.00  0.00    +0.018 C 
ATOM     16  C   UNL     1       0.923  -1.010   0.000  0.00  0.00    +0.005 C 
ATOM     17  C   UNL     1       0.961  -0.114   0.000  0.00  0.00    +0.017 C 
ATOM     18  C   UNL     1       1.205  -0.720   0.000  0.00  0.00    +0.072 C 
ATOM     19  N   UNL     1       1.065  -1.759   0.000  0.00  0.00    -0.272 NA
ATOM     20  C   UNL     1       0.226  -2.118   0.000  0.00  0.00    +0.073 C 
ATOM     21  C   UNL     1       0.119  -1.362   0.000  0.00  0.00    +0.032 C 
ENDROOT
BRANCH  14  13
ATOM     13  C   UNL     1       2.324  -2.754   0.000  0.00  0.00    +0.131 C 
BRANCH  13  12
ATOM     12  N   UNL     1       2.018  -3.520   0.000  0.00  0.00    -0.076 NA
BRANCH  12   9
ATOM      9  S   UNL     1       2.529  -4.168   0.000  0.00  0.00    +0.077 S 
ATOM     10  O   UNL     1       3.177  -3.658   0.000  0.00  0.00    -0.152 OA
ATOM     11  O   UNL     1       1.881  -4.678   0.000  0.00  0.00    -0.152 OA
BRANCH   9   6
ATOM      3  C   UNL     1       4.060  -6.112   0.000  0.00  0.00    +0.139 A 
ATOM      4  C   UNL     1       3.244  -6.230   0.000  0.00  0.00    +0.038 A 
ATOM      5  C   UNL     1       2.733  -5.582   0.000  0.00  0.00    +0.023 A 
ATOM      6  C   UNL     1       3.039  -4.816   0.000  0.00  0.00    +0.124 A 
ATOM      7  C   UNL     1       3.856  -4.698   0.000  0.00  0.00    +0.023 A 
ATOM      8  C   UNL     1       4.366  -5.346   0.000  0.00  0.00    +0.038 A 
BRANCH   3   2
ATOM      1  C   UNL     1       5.387  -6.642   0.000  0.00  0.00    +0.252 C 
ATOM      2  O   UNL     1       4.571  -6.760   0.000  0.00  0.00    -0.471 OA
ENDBRANCH   3   2
ENDBRANCH   9   6
ENDBRANCH  12   9
ENDBRANCH  13  12
ENDBRANCH  14  13
BRANCH  21  22
ATOM     22  C   UNL     1      -0.602  -0.960   0.000  0.00  0.00    +0.073 C 
BRANCH  22  23
ATOM     23  N   UNL     1      -0.614  -0.136   0.000  0.00  0.00    -0.273 NA
ATOM     24  C   UNL     1      -1.335   0.266   0.000  0.00  0.00    +0.072 C 
ATOM     25  C   UNL     1      -1.347   1.091   0.000  0.00  0.00    +0.018 C 
ATOM     26  C   UNL     1      -0.639   1.514   0.000  0.00  0.00    +0.007 C 
ATOM     34  C   UNL     1       0.082   1.113   0.000  0.00  0.00    +0.018 C 
ATOM     35  C   UNL     1       0.094   0.288   0.000  0.00  0.00    +0.072 C 
BRANCH  26  27
ATOM     27  C   UNL     1      -0.651   2.339   0.000  0.00  0.00    +0.026 C 
BRANCH  27  28
ATOM     28  C   UNL     1      -1.372   2.741   0.000  0.00  0.00    -0.022 A 
ATOM     29  C   UNL     1      -2.080   2.318   0.000  0.00  0.00    -0.004 A 
ATOM     30  C   UNL     1      -2.800   2.720   0.000  0.00  0.00    -0.000 A 
ATOM     31  C   UNL     1      -2.813   3.544   0.000  0.00  0.00    -0.000 A 
ATOM     32  C   UNL     1      -2.105   3.968   0.000  0.00  0.00    -0.000 A 
ATOM     33  C   UNL     1      -1.384   3.566   0.000  0.00  0.00    -0.004 A 
ENDBRANCH  27  28
ENDBRANCH  26  27
ENDBRANCH  22  23
ENDBRANCH  21  22
TORSDOF 9
