REMARK  Name = 
REMARK  3 active torsions:
REMARK  status: ('A' for Active; 'I' for Inactive)
REMARK    1  A    between atoms: C_2  and  N_4
REMARK    2  A    between atoms: N_7  and  C_8
REMARK    3  A    between atoms: C_11  and  C_12
REMARK                            x       y       z     vdW  Elec       q    Type
REMARK                         _______ _______ _______ _____ _____    ______ ____
ROOT
ATOM      8  C   UNL     1       2.886  -2.025   0.000  0.00  0.00    +0.159 C 
ATOM      9  C   UNL     1       2.972  -1.204   0.000  0.00  0.00    +0.167 C 
ATOM     10  O   UNL     1       3.779  -1.033   0.000  0.00  0.00    -0.349 OA
ATOM     11  C   UNL     1       4.192  -1.747   0.000  0.00  0.00    +0.180 C 
ATOM     14  C   UNL     1       3.640  -2.360   0.000  0.00  0.00    +0.204 C 
ATOM     15  O   UNL     1       3.811  -3.167   0.000  0.00  0.00    -0.218 OA
ENDROOT
BRANCH   8   7
ATOM      4  N   UNL     1       0.743  -2.437   0.000  0.00  0.00    -0.189 NA
ATOM      5  C   UNL     1       1.457  -2.025   0.000  0.00  0.00    +0.339 C 
ATOM      6  O   UNL     1       1.457  -1.200   0.000  0.00  0.00    -0.249 OA
ATOM      7  N   UNL     1       2.171  -2.437   0.000  0.00  0.00    -0.184 NA
BRANCH   4   2
ATOM      1  C   UNL     1      -0.686  -2.437   0.000  0.00  0.00    +0.023 C 
ATOM      2  C   UNL     1       0.028  -2.025   0.000  0.00  0.00    +0.097 C 
ATOM      3  C   UNL     1       0.028  -1.200   0.000  0.00  0.00    +0.023 C 
ENDBRANCH   4   2
ENDBRANCH   8   7
BRANCH  11  12
ATOM     12  C   UNL     1       5.012  -1.833   0.000  0.00  0.00    +0.214 C 
ATOM     13  O   UNL     1       5.497  -1.166   0.000  0.00  0.00    -0.218 OA
ENDBRANCH  11  12
TORSDOF 3
