MODEL 1
REMARK VINA RESULT:      -8.7      0.000      0.000
REMARK  Name = 
REMARK  6 active torsions:
REMARK  status: ('A' for Active; 'I' for Inactive)
REMARK    1  A    between atoms: C_3  and  C_4
REMARK    2  A    between atoms: C_4  and  N_5
REMARK    3  A    between atoms: C_6  and  C_8
REMARK    4  A    between atoms: C_16  and  N_17
REMARK    5  A    between atoms: N_17  and  C_18
REMARK    6  A    between atoms: C_18  and  C_19
REMARK                            x       y       z     vdW  Elec       q    Type
REMARK                         _______ _______ _______ _____ _____    ______ ____
ROOT
ATOM      1  O   UNL     1      -3.806   2.250  24.084  0.00  0.00    -0.219 OA
ATOM      2  C   UNL     1      -3.186   1.865  24.468  0.00  0.00    +0.199 C 
ATOM      3  C   UNL     1      -3.141   1.057  24.626  0.00  0.00    +0.169 C 
ATOM     14  O   UNL     1      -2.430   0.913  25.017  0.00  0.00    -0.350 OA
ATOM     15  C   UNL     1      -2.034   1.632  25.101  0.00  0.00    +0.162 C 
ATOM     16  C   UNL     1      -2.501   2.221  24.762  0.00  0.00    +0.135 C 
ENDROOT
BRANCH   3   4
ATOM      4  C   UNL     1      -3.709   0.491  24.428  0.00  0.00    +0.148 C 
BRANCH   4   5
ATOM      5  N   UNL     1      -3.519  -0.311  24.455  0.00  0.00    -0.199 NA
ATOM      6  C   UNL     1      -4.115  -0.878  24.389  0.00  0.00    +0.265 C 
ATOM      7  O   UNL     1      -4.900  -0.642  24.295  0.00  0.00    -0.268 OA
BRANCH   6   8
ATOM      8  C   UNL     1      -3.926  -1.681  24.417  0.00  0.00    +0.058 A 
ATOM      9  C   UNL     1      -3.533  -1.989  25.073  0.00  0.00    +0.025 A 
ATOM     10  C   UNL     1      -3.343  -2.792  25.102  0.00  0.00    +0.099 A 
ATOM     11  N   UNL     1      -3.547  -3.285  24.473  0.00  0.00    -0.242 NA
ATOM     12  C   UNL     1      -3.940  -2.977  23.816  0.00  0.00    +0.099 A 
ATOM     13  C   UNL     1      -4.129  -2.174  23.788  0.00  0.00    +0.025 A 
ENDBRANCH   6   8
ENDBRANCH   4   5
ENDBRANCH   3   4
BRANCH  16  17
ATOM     17  N   UNL     1      -2.318   3.023  24.723  0.00  0.00    -0.209 NA
BRANCH  17  18
ATOM     18  C   UNL     1      -1.722   3.333  25.201  0.00  0.00    +0.115 C 
BRANCH  18  19
ATOM     19  C   UNL     1      -1.487   4.119  25.111  0.00  0.00    -0.002 A 
ATOM     20  C   UNL     1      -0.743   4.295  24.801  0.00  0.00    +0.018 A 
ATOM     21  C   UNL     1      -0.509   5.081  24.710  0.00  0.00    +0.099 A 
ATOM     22  N   UNL     1      -1.018   5.691  24.932  0.00  0.00    -0.242 NA
ATOM     23  C   UNL     1      -1.762   5.516  25.242  0.00  0.00    +0.099 A 
ATOM     24  C   UNL     1      -1.997   4.729  25.332  0.00  0.00    +0.018 A 
ENDBRANCH  18  19
ENDBRANCH  17  18
ENDBRANCH  16  17
TORSDOF 6
ENDMDL
MODEL 2
REMARK VINA RESULT:      -8.7      0.918      6.128
REMARK  Name = 
REMARK  6 active torsions:
REMARK  status: ('A' for Active; 'I' for Inactive)
REMARK    1  A    between atoms: C_3  and  C_4
REMARK    2  A    between atoms: C_4  and  N_5
REMARK    3  A    between atoms: C_6  and  C_8
REMARK    4  A    between atoms: C_16  and  N_17
REMARK    5  A    between atoms: N_17  and  C_18
REMARK    6  A    between atoms: C_18  and  C_19
REMARK                            x       y       z     vdW  Elec       q    Type
REMARK                         _______ _______ _______ _____ _____    ______ ____
ROOT
ATOM      1  O   UNL     1      -1.154   0.172  25.090  0.00  0.00    -0.219 OA
ATOM      2  C   UNL     1      -1.871   0.573  25.013  0.00  0.00    +0.199 C 
ATOM      3  C   UNL     1      -1.986   1.384  25.105  0.00  0.00    +0.169 C 
ATOM     14  O   UNL     1      -2.784   1.545  24.980  0.00  0.00    -0.350 OA
ATOM     15  C   UNL     1      -3.165   0.833  24.811  0.00  0.00    +0.162 C 
ATOM     16  C   UNL     1      -2.601   0.232  24.831  0.00  0.00    +0.135 C 
ENDROOT
BRANCH   3   4
ATOM      4  C   UNL     1      -1.402   1.938  25.290  0.00  0.00    +0.148 C 
BRANCH   4   5
ATOM      5  N   UNL     1      -1.530   2.739  25.138  0.00  0.00    -0.199 NA
ATOM      6  C   UNL     1      -0.984   3.301  25.397  0.00  0.00    +0.265 C 
ATOM      7  O   UNL     1      -0.310   3.061  25.808  0.00  0.00    -0.268 OA
BRANCH   6   8
ATOM      8  C   UNL     1      -1.112   4.101  25.244  0.00  0.00    +0.058 A 
ATOM      9  C   UNL     1      -0.549   4.537  24.828  0.00  0.00    +0.025 A 
ATOM     10  C   UNL     1      -0.677   5.338  24.676  0.00  0.00    +0.099 A 
ATOM     11  N   UNL     1      -1.369   5.702  24.940  0.00  0.00    -0.242 NA
ATOM     12  C   UNL     1      -1.932   5.266  25.356  0.00  0.00    +0.099 A 
ATOM     13  C   UNL     1      -1.804   4.465  25.508  0.00  0.00    +0.025 A 
ENDBRANCH   6   8
ENDBRANCH   4   5
ENDBRANCH   3   4
BRANCH  16  17
ATOM     17  N   UNL     1      -2.740  -0.569  24.694  0.00  0.00    -0.209 NA
BRANCH  17  18
ATOM     18  C   UNL     1      -3.503  -0.874  24.770  0.00  0.00    +0.115 C 
BRANCH  18  19
ATOM     19  C   UNL     1      -3.661  -1.653  24.550  0.00  0.00    -0.002 A 
ATOM     20  C   UNL     1      -3.326  -2.277  24.973  0.00  0.00    +0.018 A 
ATOM     21  C   UNL     1      -3.483  -3.057  24.753  0.00  0.00    +0.099 A 
ATOM     22  N   UNL     1      -3.975  -3.212  24.109  0.00  0.00    -0.242 NA
ATOM     23  C   UNL     1      -4.310  -2.588  23.686  0.00  0.00    +0.099 A 
ATOM     24  C   UNL     1      -4.153  -1.808  23.906  0.00  0.00    +0.018 A 
ENDBRANCH  18  19
ENDBRANCH  17  18
ENDBRANCH  16  17
TORSDOF 6
ENDMDL
MODEL 3
REMARK VINA RESULT:      -8.3      1.523      1.753
REMARK  Name = 
REMARK  6 active torsions:
REMARK  status: ('A' for Active; 'I' for Inactive)
REMARK    1  A    between atoms: C_3  and  C_4
REMARK    2  A    between atoms: C_4  and  N_5
REMARK    3  A    between atoms: C_6  and  C_8
REMARK    4  A    between atoms: C_16  and  N_17
REMARK    5  A    between atoms: N_17  and  C_18
REMARK    6  A    between atoms: C_18  and  C_19
REMARK                            x       y       z     vdW  Elec       q    Type
REMARK                         _______ _______ _______ _____ _____    ______ ____
ROOT
ATOM      1  O   UNL     1      -1.104   1.203  23.745  0.00  0.00    -0.219 OA
ATOM      2  C   UNL     1      -1.047   1.093  24.560  0.00  0.00    +0.199 C 
ATOM      3  C   UNL     1      -1.074   0.370  24.955  0.00  0.00    +0.169 C 
ATOM     14  O   UNL     1      -0.996   0.517  25.763  0.00  0.00    -0.350 OA
ATOM     15  C   UNL     1      -0.920   1.332  25.867  0.00  0.00    +0.162 C 
ATOM     16  C   UNL     1      -0.951   1.688  25.124  0.00  0.00    +0.135 C 
ENDROOT
BRANCH   3   4
ATOM      4  C   UNL     1      -1.165  -0.372  24.604  0.00  0.00    +0.148 C 
BRANCH   4   5
ATOM      5  N   UNL     1      -1.902  -0.741  24.603  0.00  0.00    -0.199 NA
ATOM      6  C   UNL     1      -1.967  -1.533  24.380  0.00  0.00    +0.265 C 
ATOM      7  O   UNL     1      -1.294  -1.955  24.158  0.00  0.00    -0.268 OA
BRANCH   6   8
ATOM      8  C   UNL     1      -2.705  -1.902  24.380  0.00  0.00    +0.058 A 
ATOM      9  C   UNL     1      -2.804  -2.626  24.763  0.00  0.00    +0.025 A 
ATOM     10  C   UNL     1      -3.542  -2.996  24.762  0.00  0.00    +0.099 A 
ATOM     11  N   UNL     1      -4.180  -2.641  24.378  0.00  0.00    -0.242 NA
ATOM     12  C   UNL     1      -4.080  -1.917  23.995  0.00  0.00    +0.099 A 
ATOM     13  C   UNL     1      -3.343  -1.548  23.995  0.00  0.00    +0.025 A 
ENDBRANCH   6   8
ENDBRANCH   4   5
ENDBRANCH   3   4
BRANCH  16  17
ATOM     17  N   UNL     1      -0.897   2.496  24.972  0.00  0.00    -0.209 NA
BRANCH  17  18
ATOM     18  C   UNL     1      -1.050   3.041  25.572  0.00  0.00    +0.115 C 
BRANCH  18  19
ATOM     19  C   UNL     1      -1.190   3.832  25.386  0.00  0.00    -0.002 A 
ATOM     20  C   UNL     1      -1.922   4.173  25.554  0.00  0.00    +0.018 A 
ATOM     21  C   UNL     1      -2.062   4.965  25.367  0.00  0.00    +0.099 A 
ATOM     22  N   UNL     1      -1.469   5.415  25.013  0.00  0.00    -0.242 NA
ATOM     23  C   UNL     1      -0.736   5.075  24.846  0.00  0.00    +0.099 A 
ATOM     24  C   UNL     1      -0.597   4.283  25.032  0.00  0.00    +0.018 A 
ENDBRANCH  18  19
ENDBRANCH  17  18
ENDBRANCH  16  17
TORSDOF 6
ENDMDL
MODEL 4
REMARK VINA RESULT:      -6.1     14.412     16.875
REMARK  Name = 
REMARK  6 active torsions:
REMARK  status: ('A' for Active; 'I' for Inactive)
REMARK    1  A    between atoms: C_3  and  C_4
REMARK    2  A    between atoms: C_4  and  N_5
REMARK    3  A    between atoms: C_6  and  C_8
REMARK    4  A    between atoms: C_16  and  N_17
REMARK    5  A    between atoms: N_17  and  C_18
REMARK    6  A    between atoms: C_18  and  C_19
REMARK                            x       y       z     vdW  Elec       q    Type
REMARK                         _______ _______ _______ _____ _____    ______ ____
ROOT
ATOM      1  O   UNL     1      -3.184 -10.773  14.078  0.00  0.00    -0.219 OA
ATOM      2  C   UNL     1      -3.940 -10.563  13.823  0.00  0.00    +0.199 C 
ATOM      3  C   UNL     1      -4.162 -10.405  13.045  0.00  0.00    +0.169 C 
ATOM     14  O   UNL     1      -4.966 -10.219  13.042  0.00  0.00    -0.350 OA
ATOM     15  C   UNL     1      -5.240 -10.262  13.819  0.00  0.00    +0.162 C 
ATOM     16  C   UNL     1      -4.606 -10.475  14.302  0.00  0.00    +0.135 C 
ENDROOT
BRANCH   3   4
ATOM      4  C   UNL     1      -3.668 -10.429  12.384  0.00  0.00    +0.148 C 
BRANCH   4   5
ATOM      5  N   UNL     1      -3.950 -10.185  11.648  0.00  0.00    -0.199 NA
ATOM      6  C   UNL     1      -3.447 -10.184  10.994  0.00  0.00    +0.265 C 
ATOM      7  O   UNL     1      -2.663 -10.427  11.075  0.00  0.00    -0.268 OA
BRANCH   6   8
ATOM      8  C   UNL     1      -3.730  -9.940  10.258  0.00  0.00    +0.058 A 
ATOM      9  C   UNL     1      -3.672  -9.148  10.036  0.00  0.00    +0.025 A 
ATOM     10  C   UNL     1      -3.954  -8.903   9.300  0.00  0.00    +0.099 A 
ATOM     11  N   UNL     1      -4.294  -9.453   8.786  0.00  0.00    -0.242 NA
ATOM     12  C   UNL     1      -4.351 -10.245   9.008  0.00  0.00    +0.099 A 
ATOM     13  C   UNL     1      -4.069 -10.489   9.744  0.00  0.00    +0.025 A 
ENDBRANCH   6   8
ENDBRANCH   4   5
ENDBRANCH   3   4
BRANCH  16  17
ATOM     17  N   UNL     1      -4.633 -10.580  15.119  0.00  0.00    -0.209 NA
BRANCH  17  18
ATOM     18  C   UNL     1      -5.206 -10.191  15.566  0.00  0.00    +0.115 C 
BRANCH  18  19
ATOM     19  C   UNL     1      -5.286 -10.358  16.370  0.00  0.00    -0.002 A 
ATOM     20  C   UNL     1      -4.641 -10.269  16.876  0.00  0.00    +0.018 A 
ATOM     21  C   UNL     1      -4.721 -10.436  17.681  0.00  0.00    +0.099 A 
ATOM     22  N   UNL     1      -5.447 -10.692  17.978  0.00  0.00    -0.242 NA
ATOM     23  C   UNL     1      -6.092 -10.781  17.472  0.00  0.00    +0.099 A 
ATOM     24  C   UNL     1      -6.012 -10.614  16.668  0.00  0.00    +0.018 A 
ENDBRANCH  18  19
ENDBRANCH  17  18
ENDBRANCH  16  17
TORSDOF 6
ENDMDL
MODEL 5
REMARK VINA RESULT:      -5.6     14.131     16.368
REMARK  Name = 
REMARK  6 active torsions:
REMARK  status: ('A' for Active; 'I' for Inactive)
REMARK    1  A    between atoms: C_3  and  C_4
REMARK    2  A    between atoms: C_4  and  N_5
REMARK    3  A    between atoms: C_6  and  C_8
REMARK    4  A    between atoms: C_16  and  N_17
REMARK    5  A    between atoms: N_17  and  C_18
REMARK    6  A    between atoms: C_18  and  C_19
REMARK                            x       y       z     vdW  Elec       q    Type
REMARK                         _______ _______ _______ _____ _____    ______ ____
ROOT
ATOM      1  O   UNL     1      -3.091 -10.518  13.703  0.00  0.00    -0.219 OA
ATOM      2  C   UNL     1      -3.915 -10.475  13.707  0.00  0.00    +0.199 C 
ATOM      3  C   UNL     1      -4.399 -10.504  14.373  0.00  0.00    +0.169 C 
ATOM     14  O   UNL     1      -5.182 -10.442  14.123  0.00  0.00    -0.350 OA
ATOM     15  C   UNL     1      -5.182 -10.373  13.300  0.00  0.00    +0.162 C 
ATOM     16  C   UNL     1      -4.399 -10.393  13.043  0.00  0.00    +0.135 C 
ENDROOT
BRANCH   3   4
ATOM      4  C   UNL     1      -4.144 -10.583  15.154  0.00  0.00    +0.148 C 
BRANCH   4   5
ATOM      5  N   UNL     1      -4.694 -10.583  15.769  0.00  0.00    -0.199 NA
ATOM      6  C   UNL     1      -4.439 -10.522  16.552  0.00  0.00    +0.265 C 
ATOM      7  O   UNL     1      -3.633 -10.460  16.718  0.00  0.00    -0.268 OA
BRANCH   6   8
ATOM      8  C   UNL     1      -4.988 -10.522  17.167  0.00  0.00    +0.058 A 
ATOM      9  C   UNL     1      -5.759 -10.263  17.030  0.00  0.00    +0.025 A 
ATOM     10  C   UNL     1      -6.310 -10.262  17.645  0.00  0.00    +0.099 A 
ATOM     11  N   UNL     1      -6.088 -10.522  18.397  0.00  0.00    -0.242 NA
ATOM     12  C   UNL     1      -5.316 -10.781  18.533  0.00  0.00    +0.099 A 
ATOM     13  C   UNL     1      -4.767 -10.781  17.918  0.00  0.00    +0.025 A 
ENDBRANCH   6   8
ENDBRANCH   4   5
ENDBRANCH   3   4
BRANCH  16  17
ATOM     17  N   UNL     1      -4.144 -10.342  12.261  0.00  0.00    -0.209 NA
BRANCH  17  18
ATOM     18  C   UNL     1      -4.675 -10.123  11.668  0.00  0.00    +0.115 C 
BRANCH  18  19
ATOM     19  C   UNL     1      -4.408 -10.015  10.894  0.00  0.00    -0.002 A 
ATOM     20  C   UNL     1      -4.413 -10.647  10.364  0.00  0.00    +0.018 A 
ATOM     21  C   UNL     1      -4.146 -10.539   9.591  0.00  0.00    +0.099 A 
ATOM     22  N   UNL     1      -3.874  -9.798   9.348  0.00  0.00    -0.242 NA
ATOM     23  C   UNL     1      -3.869  -9.166   9.879  0.00  0.00    +0.099 A 
ATOM     24  C   UNL     1      -4.136  -9.275  10.652  0.00  0.00    +0.018 A 
ENDBRANCH  18  19
ENDBRANCH  17  18
ENDBRANCH  16  17
TORSDOF 6
ENDMDL
