MODEL 1
REMARK VINA RESULT:      -9.8      0.000      0.000
REMARK  Name = 
REMARK  6 active torsions:
REMARK  status: ('A' for Active; 'I' for Inactive)
REMARK    1  A    between atoms: C_3  and  C_4
REMARK    2  A    between atoms: C_4  and  N_5
REMARK    3  A    between atoms: C_16  and  N_17
REMARK    4  A    between atoms: N_17  and  C_18
REMARK    5  A    between atoms: C_18  and  C_19
REMARK    6  A    between atoms: C_23  and  C_25
REMARK                            x       y       z     vdW  Elec       q    Type
REMARK                         _______ _______ _______ _____ _____    ______ ____
ROOT
ATOM      1  O   UNL     1      -3.571   1.407  23.465  0.00  0.00    -0.219 OA
ATOM      2  C   UNL     1      -3.977   1.412  24.183  0.00  0.00    +0.199 C 
ATOM      3  C   UNL     1      -4.127   2.074  24.651  0.00  0.00    +0.169 C 
ATOM     14  O   UNL     1      -4.548   1.827  25.316  0.00  0.00    -0.350 OA
ATOM     15  C   UNL     1      -4.657   1.012  25.260  0.00  0.00    +0.162 C 
ATOM     16  C   UNL     1      -4.305   0.756  24.560  0.00  0.00    +0.135 C 
ENDROOT
BRANCH   3   4
ATOM      4  C   UNL     1      -3.897   2.849  24.483  0.00  0.00    +0.149 C 
BRANCH   4   5
ATOM      5  N   UNL     1      -3.139   3.106  24.681  0.00  0.00    -0.186 NA
ATOM      6  C   UNL     1      -2.968   3.914  24.697  0.00  0.00    +0.323 C 
ATOM      7  O   UNL     1      -3.556   4.463  24.515  0.00  0.00    -0.251 OA
ATOM      8  N   UNL     1      -2.210   4.171  24.895  0.00  0.00    -0.258 N 
ATOM      9  C   UNL     1      -2.040   4.977  24.911  0.00  0.00    +0.127 C 
ATOM     10  C   UNL     1      -1.281   5.236  25.110  0.00  0.00    +0.164 C 
ATOM     11  O   UNL     1      -0.693   4.686  25.292  0.00  0.00    -0.350 OA
ATOM     12  C   UNL     1      -0.864   3.878  25.276  0.00  0.00    +0.164 C 
ATOM     13  C   UNL     1      -1.622   3.621  25.077  0.00  0.00    +0.127 C 
ENDBRANCH   4   5
ENDBRANCH   3   4
BRANCH  16  17
ATOM     17  N   UNL     1      -4.284  -0.022  24.284  0.00  0.00    -0.209 NA
BRANCH  17  18
ATOM     18  C   UNL     1      -4.200  -0.647  24.817  0.00  0.00    +0.115 C 
BRANCH  18  19
ATOM     19  C   UNL     1      -3.904  -1.372  24.559  0.00  0.00    -0.004 A 
ATOM     20  C   UNL     1      -4.392  -1.892  24.145  0.00  0.00    -0.003 A 
ATOM     21  C   UNL     1      -4.096  -2.618  23.887  0.00  0.00    +0.000 A 
ATOM     22  C   UNL     1      -3.312  -2.824  24.042  0.00  0.00    +0.010 A 
ATOM     23  C   UNL     1      -2.824  -2.303  24.457  0.00  0.00    +0.068 A 
ATOM     24  C   UNL     1      -3.120  -1.577  24.715  0.00  0.00    +0.007 A 
BRANCH  23  25
ATOM     25  C   UNL     1      -2.041  -2.508  24.613  0.00  0.00    +0.100 C 
ATOM     26  N   UNL     1      -1.257  -2.713  24.768  0.00  0.00    -0.191 NA
ENDBRANCH  23  25
ENDBRANCH  18  19
ENDBRANCH  17  18
ENDBRANCH  16  17
TORSDOF 6
ENDMDL
MODEL 2
REMARK VINA RESULT:      -9.4      2.200      6.144
REMARK  Name = 
REMARK  6 active torsions:
REMARK  status: ('A' for Active; 'I' for Inactive)
REMARK    1  A    between atoms: C_3  and  C_4
REMARK    2  A    between atoms: C_4  and  N_5
REMARK    3  A    between atoms: C_16  and  N_17
REMARK    4  A    between atoms: N_17  and  C_18
REMARK    5  A    between atoms: C_18  and  C_19
REMARK    6  A    between atoms: C_23  and  C_25
REMARK                            x       y       z     vdW  Elec       q    Type
REMARK                         _______ _______ _______ _____ _____    ______ ____
ROOT
ATOM      1  O   UNL     1      -0.991   0.799  25.802  0.00  0.00    -0.219 OA
ATOM      2  C   UNL     1      -0.776   0.796  25.005  0.00  0.00    +0.199 C 
ATOM      3  C   UNL     1      -0.753   0.135  24.512  0.00  0.00    +0.169 C 
ATOM     14  O   UNL     1      -0.510   0.383  23.764  0.00  0.00    -0.350 OA
ATOM     15  C   UNL     1      -0.383   1.197  23.795  0.00  0.00    +0.162 C 
ATOM     16  C   UNL     1      -0.548   1.452  24.561  0.00  0.00    +0.135 C 
ENDROOT
BRANCH   3   4
ATOM      4  C   UNL     1      -0.940  -0.639  24.729  0.00  0.00    +0.149 C 
BRANCH   4   5
ATOM      5  N   UNL     1      -1.689  -0.944  24.566  0.00  0.00    -0.186 NA
ATOM      6  C   UNL     1      -1.839  -1.748  24.672  0.00  0.00    +0.323 C 
ATOM      7  O   UNL     1      -1.240  -2.247  24.941  0.00  0.00    -0.251 OA
ATOM      8  N   UNL     1      -2.588  -2.053  24.510  0.00  0.00    -0.258 N 
ATOM      9  C   UNL     1      -2.738  -2.856  24.616  0.00  0.00    +0.127 C 
ATOM     10  C   UNL     1      -3.488  -3.162  24.453  0.00  0.00    +0.164 C 
ATOM     11  O   UNL     1      -4.087  -2.662  24.185  0.00  0.00    -0.350 OA
ATOM     12  C   UNL     1      -3.937  -1.857  24.079  0.00  0.00    +0.164 C 
ATOM     13  C   UNL     1      -3.187  -1.553  24.241  0.00  0.00    +0.127 C 
ENDBRANCH   4   5
ENDBRANCH   3   4
BRANCH  16  17
ATOM     17  N   UNL     1      -0.493   2.228  24.837  0.00  0.00    -0.209 NA
BRANCH  17  18
ATOM     18  C   UNL     1      -0.707   2.856  24.346  0.00  0.00    +0.115 C 
BRANCH  18  19
ATOM     19  C   UNL     1      -0.964   3.568  24.675  0.00  0.00    -0.004 A 
ATOM     20  C   UNL     1      -0.512   4.251  24.583  0.00  0.00    -0.003 A 
ATOM     21  C   UNL     1      -0.769   4.963  24.912  0.00  0.00    +0.000 A 
ATOM     22  C   UNL     1      -1.479   4.992  25.332  0.00  0.00    +0.010 A 
ATOM     23  C   UNL     1      -1.931   4.307  25.424  0.00  0.00    +0.068 A 
ATOM     24  C   UNL     1      -1.674   3.596  25.095  0.00  0.00    +0.007 A 
BRANCH  23  25
ATOM     25  C   UNL     1      -2.640   4.336  25.844  0.00  0.00    +0.100 C 
ATOM     26  N   UNL     1      -3.349   4.364  26.265  0.00  0.00    -0.191 NA
ENDBRANCH  23  25
ENDBRANCH  18  19
ENDBRANCH  17  18
ENDBRANCH  16  17
TORSDOF 6
ENDMDL
MODEL 3
REMARK VINA RESULT:      -9.0      1.406      5.430
REMARK  Name = 
REMARK  6 active torsions:
REMARK  status: ('A' for Active; 'I' for Inactive)
REMARK    1  A    between atoms: C_3  and  C_4
REMARK    2  A    between atoms: C_4  and  N_5
REMARK    3  A    between atoms: C_16  and  N_17
REMARK    4  A    between atoms: N_17  and  C_18
REMARK    5  A    between atoms: C_18  and  C_19
REMARK    6  A    between atoms: C_23  and  C_25
REMARK                            x       y       z     vdW  Elec       q    Type
REMARK                         _______ _______ _______ _____ _____    ______ ____
ROOT
ATOM      1  O   UNL     1      -3.272   1.645  23.613  0.00  0.00    -0.219 OA
ATOM      2  C   UNL     1      -3.766   1.708  24.271  0.00  0.00    +0.199 C 
ATOM      3  C   UNL     1      -4.293   1.133  24.538  0.00  0.00    +0.169 C 
ATOM     14  O   UNL     1      -4.673   1.426  25.209  0.00  0.00    -0.350 OA
ATOM     15  C   UNL     1      -4.380   2.183  25.356  0.00  0.00    +0.162 C 
ATOM     16  C   UNL     1      -3.820   2.357  24.777  0.00  0.00    +0.135 C 
ENDROOT
BRANCH   3   4
ATOM      4  C   UNL     1      -4.419   0.393  24.194  0.00  0.00    +0.149 C 
BRANCH   4   5
ATOM      5  N   UNL     1      -4.132  -0.287  24.563  0.00  0.00    -0.186 NA
ATOM      6  C   UNL     1      -4.160  -1.012  24.170  0.00  0.00    +0.323 C 
ATOM      7  O   UNL     1      -4.475  -1.057  23.409  0.00  0.00    -0.251 OA
ATOM      8  N   UNL     1      -3.874  -1.693  24.538  0.00  0.00    -0.258 N 
ATOM      9  C   UNL     1      -3.902  -2.417  24.145  0.00  0.00    +0.127 C 
ATOM     10  C   UNL     1      -3.615  -3.098  24.513  0.00  0.00    +0.164 C 
ATOM     11  O   UNL     1      -3.300  -3.053  25.275  0.00  0.00    -0.350 OA
ATOM     12  C   UNL     1      -3.272  -2.327  25.668  0.00  0.00    +0.164 C 
ATOM     13  C   UNL     1      -3.559  -1.647  25.299  0.00  0.00    +0.127 C 
ENDBRANCH   4   5
ENDBRANCH   3   4
BRANCH  16  17
ATOM     17  N   UNL     1      -3.389   3.058  24.714  0.00  0.00    -0.209 NA
BRANCH  17  18
ATOM     18  C   UNL     1      -3.063   3.404  25.389  0.00  0.00    +0.115 C 
BRANCH  18  19
ATOM     19  C   UNL     1      -2.318   3.756  25.353  0.00  0.00    -0.004 A 
ATOM     20  C   UNL     1      -2.248   4.548  25.134  0.00  0.00    -0.003 A 
ATOM     21  C   UNL     1      -1.503   4.902  25.098  0.00  0.00    +0.000 A 
ATOM     22  C   UNL     1      -0.828   4.463  25.281  0.00  0.00    +0.010 A 
ATOM     23  C   UNL     1      -0.899   3.670  25.500  0.00  0.00    +0.068 A 
ATOM     24  C   UNL     1      -1.644   3.317  25.536  0.00  0.00    +0.007 A 
BRANCH  23  25
ATOM     25  C   UNL     1      -0.225   3.231  25.683  0.00  0.00    +0.100 C 
ATOM     26  N   UNL     1       0.449   2.792  25.865  0.00  0.00    -0.191 NA
ENDBRANCH  23  25
ENDBRANCH  18  19
ENDBRANCH  17  18
ENDBRANCH  16  17
TORSDOF 6
ENDMDL
MODEL 4
REMARK VINA RESULT:      -8.7      1.973      2.560
REMARK  Name = 
REMARK  6 active torsions:
REMARK  status: ('A' for Active; 'I' for Inactive)
REMARK    1  A    between atoms: C_3  and  C_4
REMARK    2  A    between atoms: C_4  and  N_5
REMARK    3  A    between atoms: C_16  and  N_17
REMARK    4  A    between atoms: N_17  and  C_18
REMARK    5  A    between atoms: C_18  and  C_19
REMARK    6  A    between atoms: C_23  and  C_25
REMARK                            x       y       z     vdW  Elec       q    Type
REMARK                         _______ _______ _______ _____ _____    ______ ____
ROOT
ATOM      1  O   UNL     1      -0.947   0.785  23.591  0.00  0.00    -0.219 OA
ATOM      2  C   UNL     1      -0.858   0.759  24.411  0.00  0.00    +0.199 C 
ATOM      3  C   UNL     1      -0.598   1.378  24.890  0.00  0.00    +0.169 C 
ATOM     14  O   UNL     1      -0.593   1.112  25.670  0.00  0.00    -0.350 OA
ATOM     15  C   UNL     1      -0.850   0.329  25.673  0.00  0.00    +0.162 C 
ATOM     16  C   UNL     1      -1.014   0.111  24.895  0.00  0.00    +0.135 C 
ENDROOT
BRANCH   3   4
ATOM      4  C   UNL     1      -0.380   2.132  24.633  0.00  0.00    +0.149 C 
BRANCH   4   5
ATOM      5  N   UNL     1      -0.815   2.791  24.873  0.00  0.00    -0.186 NA
ATOM      6  C   UNL     1      -0.570   3.548  24.656  0.00  0.00    +0.323 C 
ATOM      7  O   UNL     1       0.110   3.646  24.198  0.00  0.00    -0.251 OA
ATOM      8  N   UNL     1      -1.004   4.207  24.896  0.00  0.00    -0.258 N 
ATOM      9  C   UNL     1      -0.759   4.964  24.679  0.00  0.00    +0.127 C 
ATOM     10  C   UNL     1      -1.193   5.623  24.919  0.00  0.00    +0.164 C 
ATOM     11  O   UNL     1      -1.873   5.525  25.376  0.00  0.00    -0.350 OA
ATOM     12  C   UNL     1      -2.118   4.767  25.594  0.00  0.00    +0.164 C 
ATOM     13  C   UNL     1      -1.684   4.108  25.353  0.00  0.00    +0.127 C 
ENDBRANCH   4   5
ENDBRANCH   3   4
BRANCH  16  17
ATOM     17  N   UNL     1      -1.286  -0.627  24.645  0.00  0.00    -0.209 NA
BRANCH  17  18
ATOM     18  C   UNL     1      -1.810  -1.056  25.118  0.00  0.00    +0.115 C 
BRANCH  18  19
ATOM     19  C   UNL     1      -2.202  -1.712  24.809  0.00  0.00    -0.004 A 
ATOM     20  C   UNL     1      -1.814  -2.439  24.760  0.00  0.00    -0.003 A 
ATOM     21  C   UNL     1      -2.206  -3.096  24.451  0.00  0.00    +0.000 A 
ATOM     22  C   UNL     1      -2.986  -3.026  24.190  0.00  0.00    +0.010 A 
ATOM     23  C   UNL     1      -3.374  -2.299  24.239  0.00  0.00    +0.068 A 
ATOM     24  C   UNL     1      -2.982  -1.643  24.548  0.00  0.00    +0.007 A 
BRANCH  23  25
ATOM     25  C   UNL     1      -4.153  -2.230  23.979  0.00  0.00    +0.100 C 
ATOM     26  N   UNL     1      -4.933  -2.161  23.718  0.00  0.00    -0.191 NA
ENDBRANCH  23  25
ENDBRANCH  18  19
ENDBRANCH  17  18
ENDBRANCH  16  17
TORSDOF 6
ENDMDL
MODEL 5
REMARK VINA RESULT:      -8.7      3.257      4.885
REMARK  Name = 
REMARK  6 active torsions:
REMARK  status: ('A' for Active; 'I' for Inactive)
REMARK    1  A    between atoms: C_3  and  C_4
REMARK    2  A    between atoms: C_4  and  N_5
REMARK    3  A    between atoms: C_16  and  N_17
REMARK    4  A    between atoms: N_17  and  C_18
REMARK    5  A    between atoms: C_18  and  C_19
REMARK    6  A    between atoms: C_23  and  C_25
REMARK                            x       y       z     vdW  Elec       q    Type
REMARK                         _______ _______ _______ _____ _____    ______ ____
ROOT
ATOM      1  O   UNL     1      -1.469   1.391  25.502  0.00  0.00    -0.219 OA
ATOM      2  C   UNL     1      -1.612   1.388  24.690  0.00  0.00    +0.199 C 
ATOM      3  C   UNL     1      -1.040   1.364  24.097  0.00  0.00    +0.169 C 
ATOM     14  O   UNL     1      -1.427   1.369  23.369  0.00  0.00    -0.350 OA
ATOM     15  C   UNL     1      -2.238   1.396  23.512  0.00  0.00    +0.162 C 
ATOM     16  C   UNL     1      -2.353   1.407  24.328  0.00  0.00    +0.135 C 
ENDROOT
BRANCH   3   4
ATOM      4  C   UNL     1      -0.223   1.339  24.212  0.00  0.00    +0.149 C 
BRANCH   4   5
ATOM      5  N   UNL     1       0.255   0.916  23.689  0.00  0.00    -0.186 NA
ATOM      6  C   UNL     1       1.067   1.057  23.666  0.00  0.00    +0.323 C 
ATOM      7  O   UNL     1       1.402   1.623  24.165  0.00  0.00    -0.251 OA
ATOM      8  N   UNL     1       1.545   0.634  23.143  0.00  0.00    -0.258 N 
ATOM      9  C   UNL     1       2.357   0.776  23.120  0.00  0.00    +0.127 C 
ATOM     10  C   UNL     1       2.835   0.352  22.597  0.00  0.00    +0.164 C 
ATOM     11  O   UNL     1       2.500  -0.213  22.098  0.00  0.00    -0.350 OA
ATOM     12  C   UNL     1       1.688  -0.355  22.122  0.00  0.00    +0.164 C 
ATOM     13  C   UNL     1       1.210   0.069  22.645  0.00  0.00    +0.127 C 
ENDBRANCH   4   5
ENDBRANCH   3   4
BRANCH  16  17
ATOM     17  N   UNL     1      -3.082   1.434  24.715  0.00  0.00    -0.209 NA
BRANCH  17  18
ATOM     18  C   UNL     1      -3.756   1.682  24.309  0.00  0.00    +0.115 C 
BRANCH  18  19
ATOM     19  C   UNL     1      -4.459   1.813  24.719  0.00  0.00    -0.004 A 
ATOM     20  C   UNL     1      -4.943   1.176  24.920  0.00  0.00    -0.003 A 
ATOM     21  C   UNL     1      -5.648   1.306  25.330  0.00  0.00    +0.000 A 
ATOM     22  C   UNL     1      -5.868   2.073  25.539  0.00  0.00    +0.010 A 
ATOM     23  C   UNL     1      -5.383   2.711  25.337  0.00  0.00    +0.068 A 
ATOM     24  C   UNL     1      -4.680   2.580  24.928  0.00  0.00    +0.007 A 
BRANCH  23  25
ATOM     25  C   UNL     1      -5.604   3.478  25.546  0.00  0.00    +0.100 C 
ATOM     26  N   UNL     1      -5.823   4.245  25.754  0.00  0.00    -0.191 NA
ENDBRANCH  23  25
ENDBRANCH  18  19
ENDBRANCH  17  18
ENDBRANCH  16  17
TORSDOF 6
ENDMDL
MODEL 6
REMARK VINA RESULT:      -8.4      3.387      5.156
REMARK  Name = 
REMARK  6 active torsions:
REMARK  status: ('A' for Active; 'I' for Inactive)
REMARK    1  A    between atoms: C_3  and  C_4
REMARK    2  A    between atoms: C_4  and  N_5
REMARK    3  A    between atoms: C_16  and  N_17
REMARK    4  A    between atoms: N_17  and  C_18
REMARK    5  A    between atoms: C_18  and  C_19
REMARK    6  A    between atoms: C_23  and  C_25
REMARK                            x       y       z     vdW  Elec       q    Type
REMARK                         _______ _______ _______ _____ _____    ______ ____
ROOT
ATOM      1  O   UNL     1      -1.800   0.384  24.692  0.00  0.00    -0.219 OA
ATOM      2  C   UNL     1      -1.497   1.077  24.363  0.00  0.00    +0.199 C 
ATOM      3  C   UNL     1      -0.797   1.145  23.932  0.00  0.00    +0.169 C 
ATOM     14  O   UNL     1      -0.709   1.934  23.710  0.00  0.00    -0.350 OA
ATOM     15  C   UNL     1      -1.354   2.355  24.005  0.00  0.00    +0.162 C 
ATOM     16  C   UNL     1      -1.841   1.826  24.408  0.00  0.00    +0.135 C 
ENDROOT
BRANCH   3   4
ATOM      4  C   UNL     1      -0.277   0.529  23.753  0.00  0.00    +0.149 C 
BRANCH   4   5
ATOM      5  N   UNL     1       0.509   0.695  23.567  0.00  0.00    -0.186 NA
ATOM      6  C   UNL     1       0.961   0.142  23.154  0.00  0.00    +0.323 C 
ATOM      7  O   UNL     1       0.626  -0.577  22.927  0.00  0.00    -0.251 OA
ATOM      8  N   UNL     1       1.748   0.308  22.968  0.00  0.00    -0.258 N 
ATOM      9  C   UNL     1       2.199  -0.245  22.555  0.00  0.00    +0.127 C 
ATOM     10  C   UNL     1       2.986  -0.080  22.369  0.00  0.00    +0.164 C 
ATOM     11  O   UNL     1       3.320   0.640  22.596  0.00  0.00    -0.350 OA
ATOM     12  C   UNL     1       2.868   1.193  23.009  0.00  0.00    +0.164 C 
ATOM     13  C   UNL     1       2.082   1.027  23.195  0.00  0.00    +0.127 C 
ENDBRANCH   4   5
ENDBRANCH   3   4
BRANCH  16  17
ATOM     17  N   UNL     1      -2.548   2.012  24.790  0.00  0.00    -0.209 NA
BRANCH  17  18
ATOM     18  C   UNL     1      -3.029   2.616  24.498  0.00  0.00    +0.115 C 
BRANCH  18  19
ATOM     19  C   UNL     1      -3.728   2.813  24.888  0.00  0.00    -0.004 A 
ATOM     20  C   UNL     1      -3.745   3.457  25.403  0.00  0.00    -0.003 A 
ATOM     21  C   UNL     1      -4.445   3.654  25.794  0.00  0.00    +0.000 A 
ATOM     22  C   UNL     1      -5.127   3.207  25.670  0.00  0.00    +0.010 A 
ATOM     23  C   UNL     1      -5.109   2.563  25.154  0.00  0.00    +0.068 A 
ATOM     24  C   UNL     1      -4.410   2.366  24.764  0.00  0.00    +0.007 A 
BRANCH  23  25
ATOM     25  C   UNL     1      -5.792   2.116  25.030  0.00  0.00    +0.100 C 
ATOM     26  N   UNL     1      -6.475   1.670  24.906  0.00  0.00    -0.191 NA
ENDBRANCH  23  25
ENDBRANCH  18  19
ENDBRANCH  17  18
ENDBRANCH  16  17
TORSDOF 6
ENDMDL
MODEL 7
REMARK VINA RESULT:      -8.0      3.409      4.480
REMARK  Name = 
REMARK  6 active torsions:
REMARK  status: ('A' for Active; 'I' for Inactive)
REMARK    1  A    between atoms: C_3  and  C_4
REMARK    2  A    between atoms: C_4  and  N_5
REMARK    3  A    between atoms: C_16  and  N_17
REMARK    4  A    between atoms: N_17  and  C_18
REMARK    5  A    between atoms: C_18  and  C_19
REMARK    6  A    between atoms: C_23  and  C_25
REMARK                            x       y       z     vdW  Elec       q    Type
REMARK                         _______ _______ _______ _____ _____    ______ ____
ROOT
ATOM      1  O   UNL     1      -0.659   2.749  23.941  0.00  0.00    -0.219 OA
ATOM      2  C   UNL     1      -0.868   2.053  24.331  0.00  0.00    +0.199 C 
ATOM      3  C   UNL     1      -1.508   1.957  24.843  0.00  0.00    +0.169 C 
ATOM     14  O   UNL     1      -1.510   1.176  25.106  0.00  0.00    -0.350 OA
ATOM     15  C   UNL     1      -0.871   0.789  24.758  0.00  0.00    +0.162 C 
ATOM     16  C   UNL     1      -0.475   1.330  24.279  0.00  0.00    +0.135 C 
ENDROOT
BRANCH   3   4
ATOM      4  C   UNL     1      -2.052   2.542  25.054  0.00  0.00    +0.149 C 
BRANCH   4   5
ATOM      5  N   UNL     1      -2.861   2.385  25.016  0.00  0.00    -0.186 NA
ATOM      6  C   UNL     1      -3.401   2.927  25.327  0.00  0.00    +0.323 C 
ATOM      7  O   UNL     1      -3.131   3.624  25.675  0.00  0.00    -0.251 OA
ATOM      8  N   UNL     1      -4.210   2.770  25.290  0.00  0.00    -0.258 N 
ATOM      9  C   UNL     1      -4.749   3.311  25.600  0.00  0.00    +0.127 C 
ATOM     10  C   UNL     1      -5.559   3.155  25.563  0.00  0.00    +0.164 C 
ATOM     11  O   UNL     1      -5.828   2.457  25.215  0.00  0.00    -0.350 OA
ATOM     12  C   UNL     1      -5.288   1.916  24.904  0.00  0.00    +0.164 C 
ATOM     13  C   UNL     1      -4.479   2.072  24.942  0.00  0.00    +0.127 C 
ENDBRANCH   4   5
ENDBRANCH   3   4
BRANCH  16  17
ATOM     17  N   UNL     1       0.198   1.176  23.827  0.00  0.00    -0.209 NA
BRANCH  17  18
ATOM     18  C   UNL     1       0.459   0.400  23.725  0.00  0.00    +0.115 C 
BRANCH  18  19
ATOM     19  C   UNL     1       1.050   0.231  23.177  0.00  0.00    -0.004 A 
ATOM     20  C   UNL     1       0.880  -0.231  22.515  0.00  0.00    -0.003 A 
ATOM     21  C   UNL     1       1.472  -0.400  21.965  0.00  0.00    +0.000 A 
ATOM     22  C   UNL     1       2.235  -0.107  22.078  0.00  0.00    +0.010 A 
ATOM     23  C   UNL     1       2.405   0.356  22.740  0.00  0.00    +0.068 A 
ATOM     24  C   UNL     1       1.813   0.524  23.289  0.00  0.00    +0.007 A 
BRANCH  23  25
ATOM     25  C   UNL     1       3.168   0.649  22.853  0.00  0.00    +0.100 C 
ATOM     26  N   UNL     1       3.932   0.941  22.965  0.00  0.00    -0.191 NA
ENDBRANCH  23  25
ENDBRANCH  18  19
ENDBRANCH  17  18
ENDBRANCH  16  17
TORSDOF 6
ENDMDL
MODEL 8
REMARK VINA RESULT:      -7.7      1.776      2.760
REMARK  Name = 
REMARK  6 active torsions:
REMARK  status: ('A' for Active; 'I' for Inactive)
REMARK    1  A    between atoms: C_3  and  C_4
REMARK    2  A    between atoms: C_4  and  N_5
REMARK    3  A    between atoms: C_16  and  N_17
REMARK    4  A    between atoms: N_17  and  C_18
REMARK    5  A    between atoms: C_18  and  C_19
REMARK    6  A    between atoms: C_23  and  C_25
REMARK                            x       y       z     vdW  Elec       q    Type
REMARK                         _______ _______ _______ _____ _____    ______ ____
ROOT
ATOM      1  O   UNL     1      -2.447   1.201  23.826  0.00  0.00    -0.219 OA
ATOM      2  C   UNL     1      -2.018   1.367  24.511  0.00  0.00    +0.199 C 
ATOM      3  C   UNL     1      -2.038   2.072  24.938  0.00  0.00    +0.169 C 
ATOM     14  O   UNL     1      -1.527   1.996  25.580  0.00  0.00    -0.350 OA
ATOM     15  C   UNL     1      -1.191   1.244  25.551  0.00  0.00    +0.162 C 
ATOM     16  C   UNL     1      -1.494   0.855  24.890  0.00  0.00    +0.135 C 
ENDROOT
BRANCH   3   4
ATOM      4  C   UNL     1      -2.491   2.737  24.754  0.00  0.00    +0.149 C 
BRANCH   4   5
ATOM      5  N   UNL     1      -3.263   2.802  25.037  0.00  0.00    -0.186 NA
ATOM      6  C   UNL     1      -3.672   3.515  24.962  0.00  0.00    +0.323 C 
ATOM      7  O   UNL     1      -3.308   4.163  24.604  0.00  0.00    -0.251 OA
ATOM      8  N   UNL     1      -4.444   3.579  25.244  0.00  0.00    -0.258 N 
ATOM      9  C   UNL     1      -4.853   4.291  25.169  0.00  0.00    +0.127 C 
ATOM     10  C   UNL     1      -5.626   4.356  25.452  0.00  0.00    +0.164 C 
ATOM     11  O   UNL     1      -5.989   3.708  25.810  0.00  0.00    -0.350 OA
ATOM     12  C   UNL     1      -5.580   2.995  25.885  0.00  0.00    +0.164 C 
ATOM     13  C   UNL     1      -4.808   2.930  25.602  0.00  0.00    +0.127 C 
ENDBRANCH   4   5
ENDBRANCH   3   4
BRANCH  16  17
ATOM     17  N   UNL     1      -1.306   0.088  24.651  0.00  0.00    -0.209 NA
BRANCH  17  18
ATOM     18  C   UNL     1      -1.351  -0.536  25.189  0.00  0.00    +0.115 C 
BRANCH  18  19
ATOM     19  C   UNL     1      -1.483  -1.304  24.921  0.00  0.00    -0.004 A 
ATOM     20  C   UNL     1      -0.843  -1.793  24.742  0.00  0.00    -0.003 A 
ATOM     21  C   UNL     1      -0.974  -2.563  24.474  0.00  0.00    +0.000 A 
ATOM     22  C   UNL     1      -1.745  -2.843  24.385  0.00  0.00    +0.010 A 
ATOM     23  C   UNL     1      -2.385  -2.353  24.564  0.00  0.00    +0.068 A 
ATOM     24  C   UNL     1      -2.254  -1.584  24.832  0.00  0.00    +0.007 A 
BRANCH  23  25
ATOM     25  C   UNL     1      -3.156  -2.633  24.475  0.00  0.00    +0.100 C 
ATOM     26  N   UNL     1      -3.927  -2.914  24.386  0.00  0.00    -0.191 NA
ENDBRANCH  23  25
ENDBRANCH  18  19
ENDBRANCH  17  18
ENDBRANCH  16  17
TORSDOF 6
ENDMDL
MODEL 9
REMARK VINA RESULT:      -7.6      4.471      6.071
REMARK  Name = 
REMARK  6 active torsions:
REMARK  status: ('A' for Active; 'I' for Inactive)
REMARK    1  A    between atoms: C_3  and  C_4
REMARK    2  A    between atoms: C_4  and  N_5
REMARK    3  A    between atoms: C_16  and  N_17
REMARK    4  A    between atoms: N_17  and  C_18
REMARK    5  A    between atoms: C_18  and  C_19
REMARK    6  A    between atoms: C_23  and  C_25
REMARK                            x       y       z     vdW  Elec       q    Type
REMARK                         _______ _______ _______ _____ _____    ______ ____
ROOT
ATOM      1  O   UNL     1       0.614   1.755  24.121  0.00  0.00    -0.219 OA
ATOM      2  C   UNL     1       0.480   1.003  23.809  0.00  0.00    +0.199 C 
ATOM      3  C   UNL     1      -0.233   0.588  23.831  0.00  0.00    +0.169 C 
ATOM     14  O   UNL     1      -0.117  -0.137  23.456  0.00  0.00    -0.350 OA
ATOM     15  C   UNL     1       0.666  -0.170  23.202  0.00  0.00    +0.162 C 
ATOM     16  C   UNL     1       1.035   0.534  23.420  0.00  0.00    +0.135 C 
ENDROOT
BRANCH   3   4
ATOM      4  C   UNL     1      -0.937   0.853  24.169  0.00  0.00    +0.149 C 
BRANCH   4   5
ATOM      5  N   UNL     1      -1.576   0.337  24.249  0.00  0.00    -0.186 NA
ATOM      6  C   UNL     1      -2.302   0.618  24.524  0.00  0.00    +0.323 C 
ATOM      7  O   UNL     1      -2.388   1.415  24.719  0.00  0.00    -0.251 OA
ATOM      8  N   UNL     1      -2.940   0.102  24.604  0.00  0.00    -0.258 N 
ATOM      9  C   UNL     1      -3.665   0.383  24.879  0.00  0.00    +0.127 C 
ATOM     10  C   UNL     1      -4.304  -0.133  24.959  0.00  0.00    +0.164 C 
ATOM     11  O   UNL     1      -4.217  -0.930  24.765  0.00  0.00    -0.350 OA
ATOM     12  C   UNL     1      -3.491  -1.211  24.490  0.00  0.00    +0.164 C 
ATOM     13  C   UNL     1      -2.853  -0.695  24.410  0.00  0.00    +0.127 C 
ENDBRANCH   4   5
ENDBRANCH   3   4
BRANCH  16  17
ATOM     17  N   UNL     1       1.823   0.734  23.274  0.00  0.00    -0.209 NA
BRANCH  17  18
ATOM     18  C   UNL     1       2.332   0.182  22.932  0.00  0.00    +0.115 C 
BRANCH  18  19
ATOM     19  C   UNL     1       3.145   0.320  22.925  0.00  0.00    -0.004 A 
ATOM     20  C   UNL     1       3.454   0.946  22.486  0.00  0.00    -0.003 A 
ATOM     21  C   UNL     1       4.268   1.084  22.479  0.00  0.00    +0.000 A 
ATOM     22  C   UNL     1       4.773   0.596  22.912  0.00  0.00    +0.010 A 
ATOM     23  C   UNL     1       4.463  -0.031  23.352  0.00  0.00    +0.068 A 
ATOM     24  C   UNL     1       3.650  -0.168  23.358  0.00  0.00    +0.007 A 
BRANCH  23  25
ATOM     25  C   UNL     1       4.968  -0.519  23.784  0.00  0.00    +0.100 C 
ATOM     26  N   UNL     1       5.474  -1.007  24.217  0.00  0.00    -0.191 NA
ENDBRANCH  23  25
ENDBRANCH  18  19
ENDBRANCH  17  18
ENDBRANCH  16  17
TORSDOF 6
ENDMDL
MODEL 10
REMARK VINA RESULT:      -7.6     13.671     15.840
REMARK  Name = 
REMARK  6 active torsions:
REMARK  status: ('A' for Active; 'I' for Inactive)
REMARK    1  A    between atoms: C_3  and  C_4
REMARK    2  A    between atoms: C_4  and  N_5
REMARK    3  A    between atoms: C_16  and  N_17
REMARK    4  A    between atoms: N_17  and  C_18
REMARK    5  A    between atoms: C_18  and  C_19
REMARK    6  A    between atoms: C_23  and  C_25
REMARK                            x       y       z     vdW  Elec       q    Type
REMARK                         _______ _______ _______ _____ _____    ______ ____
ROOT
ATOM      1  O   UNL     1      -2.908 -10.549  15.659  0.00  0.00    -0.219 OA
ATOM      2  C   UNL     1      -3.676 -10.618  15.366  0.00  0.00    +0.199 C 
ATOM      3  C   UNL     1      -4.362 -10.692  15.817  0.00  0.00    +0.169 C 
ATOM     14  O   UNL     1      -5.002 -10.746  15.300  0.00  0.00    -0.350 OA
ATOM     15  C   UNL     1      -4.712 -10.705  14.529  0.00  0.00    +0.162 C 
ATOM     16  C   UNL     1      -3.892 -10.627  14.570  0.00  0.00    +0.135 C 
ENDROOT
BRANCH   3   4
ATOM      4  C   UNL     1      -4.402 -10.709  16.641  0.00  0.00    +0.149 C 
BRANCH   4   5
ATOM      5  N   UNL     1      -5.126 -10.606  17.021  0.00  0.00    -0.186 NA
ATOM      6  C   UNL     1      -5.168 -10.639  17.845  0.00  0.00    +0.323 C 
ATOM      7  O   UNL     1      -4.485 -10.775  18.287  0.00  0.00    -0.251 OA
ATOM      8  N   UNL     1      -5.893 -10.537  18.226  0.00  0.00    -0.258 N 
ATOM      9  C   UNL     1      -5.934 -10.570  19.048  0.00  0.00    +0.127 C 
ATOM     10  C   UNL     1      -6.659 -10.467  19.430  0.00  0.00    +0.164 C 
ATOM     11  O   UNL     1      -7.342 -10.332  18.987  0.00  0.00    -0.350 OA
ATOM     12  C   UNL     1      -7.300 -10.299  18.163  0.00  0.00    +0.164 C 
ATOM     13  C   UNL     1      -6.576 -10.401  17.783  0.00  0.00    +0.127 C 
ENDBRANCH   4   5
ENDBRANCH   3   4
BRANCH  16  17
ATOM     17  N   UNL     1      -3.378 -10.567  13.927  0.00  0.00    -0.209 NA
BRANCH  17  18
ATOM     18  C   UNL     1      -3.666 -10.652  13.158  0.00  0.00    +0.115 C 
BRANCH  18  19
ATOM     19  C   UNL     1      -3.167 -10.526  12.514  0.00  0.00    -0.004 A 
ATOM     20  C   UNL     1      -2.383 -10.781  12.544  0.00  0.00    -0.003 A 
ATOM     21  C   UNL     1      -1.884 -10.655  11.899  0.00  0.00    +0.000 A 
ATOM     22  C   UNL     1      -2.168 -10.275  11.224  0.00  0.00    +0.010 A 
ATOM     23  C   UNL     1      -2.953 -10.020  11.195  0.00  0.00    +0.068 A 
ATOM     24  C   UNL     1      -3.452 -10.146  11.840  0.00  0.00    +0.007 A 
BRANCH  23  25
ATOM     25  C   UNL     1      -3.238  -9.640  10.521  0.00  0.00    +0.100 C 
ATOM     26  N   UNL     1      -3.522  -9.258   9.847  0.00  0.00    -0.191 NA
ENDBRANCH  23  25
ENDBRANCH  18  19
ENDBRANCH  17  18
ENDBRANCH  16  17
TORSDOF 6
ENDMDL
