MODEL 1
REMARK VINA RESULT:     -12.9      0.000      0.000
REMARK  Name = 
REMARK  8 active torsions:
REMARK  status: ('A' for Active; 'I' for Inactive)
REMARK    1  A    between atoms: O_2  and  C_3
REMARK    2  A    between atoms: C_6  and  C_7
REMARK    3  A    between atoms: C_7  and  C_8
REMARK    4  A    between atoms: C_8  and  N_9
REMARK    5  A    between atoms: C_8  and  C_31
REMARK    6  A    between atoms: C_10  and  C_12
REMARK    7  A    between atoms: C_14  and  N_15
REMARK    8  A    between atoms: N_18  and  C_19
REMARK                            x       y       z     vdW  Elec       q    Type
REMARK                         _______ _______ _______ _____ _____    ______ ____
ROOT
ATOM     12  C   UNL     1      -4.093   3.008  24.940  0.00  0.00    +0.033 C 
ATOM     13  C   UNL     1      -4.183   2.225  24.695  0.00  0.00    -0.002 C 
ATOM     14  C   UNL     1      -4.894   1.828  24.834  0.00  0.00    +0.152 C 
ATOM     26  C   UNL     1      -5.513   2.215  25.217  0.00  0.00    +0.206 C 
ATOM     27  O   UNL     1      -6.223   1.818  25.356  0.00  0.00    -0.218 OA
ATOM     28  C   UNL     1      -5.423   2.998  25.462  0.00  0.00    +0.189 C 
ATOM     29  O   UNL     1      -6.043   3.383  25.845  0.00  0.00    -0.220 OA
ATOM     30  C   UNL     1      -4.713   3.394  25.323  0.00  0.00    +0.066 C 
ENDROOT
BRANCH  14  15
ATOM     15  N   UNL     1      -4.984   1.046  24.590  0.00  0.00    -0.181 NA
ATOM     16  C   UNL     1      -4.472   0.464  24.872  0.00  0.00    +0.344 C 
ATOM     17  O   UNL     1      -3.870   0.665  25.399  0.00  0.00    -0.249 OA
ATOM     18  N   UNL     1      -4.562  -0.319  24.627  0.00  0.00    -0.160 NA
BRANCH  18  19
ATOM     19  C   UNL     1      -4.051  -0.900  24.909  0.00  0.00    +0.081 A 
ATOM     20  C   UNL     1      -3.686  -0.807  25.643  0.00  0.00    +0.017 A 
ATOM     21  C   UNL     1      -3.173  -1.389  25.926  0.00  0.00    +0.001 A 
ATOM     22  C   UNL     1      -3.026  -2.065  25.475  0.00  0.00    +0.001 A 
ATOM     23  C   UNL     1      -3.391  -2.158  24.741  0.00  0.00    +0.008 A 
ATOM     24  C   UNL     1      -3.903  -1.575  24.458  0.00  0.00    +0.050 A 
ATOM     25 BR   UNL     1      -4.268  -1.668  23.725  0.00  0.00    -0.048 Br
ENDBRANCH  18  19
ENDBRANCH  14  15
BRANCH  12  10
ATOM      9  N   UNL     1      -2.685   3.135  25.152  0.00  0.00    -0.194 NA
ATOM     10  C   UNL     1      -3.383   3.404  24.801  0.00  0.00    +0.261 C 
ATOM     11  O   UNL     1      -3.369   4.068  24.312  0.00  0.00    -0.269 OA
BRANCH   9   8
ATOM      8  C   UNL     1      -1.975   3.532  25.013  0.00  0.00    +0.179 C 
BRANCH   8  31
ATOM     31  C   UNL     1      -1.779   4.197  25.459  0.00  0.00    +0.281 C 
ATOM     32  N   UNL     1      -1.457   4.862  25.089  0.00  0.00    -0.086 NA
ATOM     33  O   UNL     1      -1.905   4.199  26.274  0.00  0.00    -0.270 OA
ENDBRANCH   8  31
BRANCH   8   7
ATOM      7  C   UNL     1      -1.461   3.262  24.427  0.00  0.00    +0.057 C 
BRANCH   7   6
ATOM      3  C   UNL     1      -0.432   1.020  24.615  0.00  0.00    +0.139 A 
ATOM      4  C   UNL     1      -0.809   1.243  23.917  0.00  0.00    +0.037 A 
ATOM      5  C   UNL     1      -1.152   1.990  23.854  0.00  0.00    -0.001 A 
ATOM      6  C   UNL     1      -1.118   2.515  24.490  0.00  0.00    -0.020 A 
ATOM     34  C   UNL     1      -0.740   2.292  25.188  0.00  0.00    -0.001 A 
ATOM     35  C   UNL     1      -0.397   1.544  25.251  0.00  0.00    +0.037 A 
BRANCH   3   2
ATOM      1  C   UNL     1      -0.152  -0.265  24.055  0.00  0.00    +0.252 C 
ATOM      2  O   UNL     1      -0.089   0.272  24.678  0.00  0.00    -0.471 OA
ENDBRANCH   3   2
ENDBRANCH   7   6
ENDBRANCH   8   7
ENDBRANCH   9   8
ENDBRANCH  12  10
TORSDOF 8
ENDMDL
MODEL 2
REMARK VINA RESULT:     -12.5      1.204      3.680
REMARK  Name = 
REMARK  8 active torsions:
REMARK  status: ('A' for Active; 'I' for Inactive)
REMARK    1  A    between atoms: O_2  and  C_3
REMARK    2  A    between atoms: C_6  and  C_7
REMARK    3  A    between atoms: C_7  and  C_8
REMARK    4  A    between atoms: C_8  and  N_9
REMARK    5  A    between atoms: C_8  and  C_31
REMARK    6  A    between atoms: C_10  and  C_12
REMARK    7  A    between atoms: C_14  and  N_15
REMARK    8  A    between atoms: N_18  and  C_19
REMARK                            x       y       z     vdW  Elec       q    Type
REMARK                         _______ _______ _______ _____ _____    ______ ____
ROOT
ATOM     12  C   UNL     1      -1.022   2.010  24.543  0.00  0.00    +0.033 C 
ATOM     13  C   UNL     1      -1.379   1.329  24.841  0.00  0.00    -0.002 C 
ATOM     14  C   UNL     1      -0.995   0.601  24.782  0.00  0.00    +0.152 C 
ATOM     26  C   UNL     1      -0.253   0.555  24.424  0.00  0.00    +0.206 C 
ATOM     27  O   UNL     1       0.131  -0.173  24.364  0.00  0.00    -0.218 OA
ATOM     28  C   UNL     1       0.104   1.236  24.125  0.00  0.00    +0.189 C 
ATOM     29  O   UNL     1       0.846   1.189  23.768  0.00  0.00    -0.220 OA
ATOM     30  C   UNL     1      -0.280   1.963  24.185  0.00  0.00    +0.066 C 
ENDROOT
BRANCH  14  15
ATOM     15  N   UNL     1      -1.352  -0.080  25.080  0.00  0.00    -0.181 NA
ATOM     16  C   UNL     1      -2.026  -0.385  24.716  0.00  0.00    +0.344 C 
ATOM     17  O   UNL     1      -2.342  -0.009  24.053  0.00  0.00    -0.249 OA
ATOM     18  N   UNL     1      -2.383  -1.067  25.014  0.00  0.00    -0.160 NA
BRANCH  18  19
ATOM     19  C   UNL     1      -3.057  -1.372  24.649  0.00  0.00    +0.081 A 
ATOM     20  C   UNL     1      -3.669  -0.866  24.425  0.00  0.00    +0.017 A 
ATOM     21  C   UNL     1      -4.344  -1.171  24.060  0.00  0.00    +0.001 A 
ATOM     22  C   UNL     1      -4.406  -1.983  23.920  0.00  0.00    +0.001 A 
ATOM     23  C   UNL     1      -3.794  -2.488  24.144  0.00  0.00    +0.008 A 
ATOM     24  C   UNL     1      -3.119  -2.182  24.508  0.00  0.00    +0.050 A 
ATOM     25 BR   UNL     1      -2.507  -2.688  24.732  0.00  0.00    -0.048 Br
ENDBRANCH  18  19
ENDBRANCH  14  15
BRANCH  12  10
ATOM      9  N   UNL     1      -2.077   2.811  25.079  0.00  0.00    -0.194 NA
ATOM     10  C   UNL     1      -1.406   2.737  24.603  0.00  0.00    +0.261 C 
ATOM     11  O   UNL     1      -1.121   3.391  24.188  0.00  0.00    -0.269 OA
BRANCH   9   8
ATOM      8  C   UNL     1      -2.461   3.539  25.138  0.00  0.00    +0.179 C 
BRANCH   8  31
ATOM     31  C   UNL     1      -2.200   4.101  25.683  0.00  0.00    +0.281 C 
ATOM     32  N   UNL     1      -2.023   4.868  25.432  0.00  0.00    -0.086 NA
ATOM     33  O   UNL     1      -2.115   3.897  26.478  0.00  0.00    -0.270 OA
ENDBRANCH   8  31
BRANCH   8   7
ATOM      7  C   UNL     1      -3.107   3.705  24.653  0.00  0.00    +0.057 C 
BRANCH   7   6
ATOM      3  C   UNL     1      -5.295   2.636  25.091  0.00  0.00    +0.139 A 
ATOM      4  C   UNL     1      -4.907   2.502  24.377  0.00  0.00    +0.037 A 
ATOM      5  C   UNL     1      -4.177   2.858  24.230  0.00  0.00    -0.001 A 
ATOM      6  C   UNL     1      -3.836   3.349  24.799  0.00  0.00    -0.020 A 
ATOM     34  C   UNL     1      -4.225   3.484  25.514  0.00  0.00    -0.001 A 
ATOM     35  C   UNL     1      -4.955   3.127  25.660  0.00  0.00    +0.037 A 
BRANCH   3   2
ATOM      1  C   UNL     1      -6.084   1.671  25.791  0.00  0.00    +0.252 C 
ATOM      2  O   UNL     1      -6.025   2.280  25.238  0.00  0.00    -0.471 OA
ENDBRANCH   3   2
ENDBRANCH   7   6
ENDBRANCH   8   7
ENDBRANCH   9   8
ENDBRANCH  12  10
TORSDOF 8
ENDMDL
MODEL 3
REMARK VINA RESULT:     -11.5      1.511      3.716
REMARK  Name = 
REMARK  8 active torsions:
REMARK  status: ('A' for Active; 'I' for Inactive)
REMARK    1  A    between atoms: O_2  and  C_3
REMARK    2  A    between atoms: C_6  and  C_7
REMARK    3  A    between atoms: C_7  and  C_8
REMARK    4  A    between atoms: C_8  and  N_9
REMARK    5  A    between atoms: C_8  and  C_31
REMARK    6  A    between atoms: C_10  and  C_12
REMARK    7  A    between atoms: C_14  and  N_15
REMARK    8  A    between atoms: N_18  and  C_19
REMARK                            x       y       z     vdW  Elec       q    Type
REMARK                         _______ _______ _______ _____ _____    ______ ____
ROOT
ATOM     12  C   UNL     1      -2.654   3.627  24.819  0.00  0.00    +0.033 C 
ATOM     13  C   UNL     1      -2.121   3.048  24.571  0.00  0.00    -0.002 C 
ATOM     14  C   UNL     1      -1.308   3.187  24.618  0.00  0.00    +0.152 C 
ATOM     26  C   UNL     1      -1.030   3.906  24.912  0.00  0.00    +0.206 C 
ATOM     27  O   UNL     1      -0.218   4.044  24.958  0.00  0.00    -0.218 OA
ATOM     28  C   UNL     1      -1.562   4.485  25.160  0.00  0.00    +0.189 C 
ATOM     29  O   UNL     1      -1.283   5.203  25.454  0.00  0.00    -0.220 OA
ATOM     30  C   UNL     1      -2.374   4.346  25.113  0.00  0.00    +0.066 C 
ENDROOT
BRANCH  14  15
ATOM     15  N   UNL     1      -0.776   2.609  24.371  0.00  0.00    -0.181 NA
ATOM     16  C   UNL     1      -0.866   1.829  24.626  0.00  0.00    +0.344 C 
ATOM     17  O   UNL     1      -1.488   1.630  25.129  0.00  0.00    -0.249 OA
ATOM     18  N   UNL     1      -0.333   1.250  24.378  0.00  0.00    -0.160 NA
BRANCH  18  19
ATOM     19  C   UNL     1      -0.423   0.471  24.633  0.00  0.00    +0.081 A 
ATOM     20  C   UNL     1      -0.744   0.316  25.377  0.00  0.00    +0.017 A 
ATOM     21  C   UNL     1      -0.835  -0.464  25.633  0.00  0.00    +0.001 A 
ATOM     22  C   UNL     1      -0.603  -1.088  25.144  0.00  0.00    +0.001 A 
ATOM     23  C   UNL     1      -0.282  -0.933  24.401  0.00  0.00    +0.008 A 
ATOM     24  C   UNL     1      -0.192  -0.153  24.145  0.00  0.00    +0.050 A 
ATOM     25 BR   UNL     1       0.129   0.003  23.402  0.00  0.00    -0.048 Br
ENDBRANCH  18  19
ENDBRANCH  14  15
BRANCH  12  10
ATOM      9  N   UNL     1      -3.800   2.858  25.188  0.00  0.00    -0.194 NA
ATOM     10  C   UNL     1      -3.465   3.488  24.773  0.00  0.00    +0.261 C 
ATOM     11  O   UNL     1      -3.942   3.978  24.311  0.00  0.00    -0.269 OA
BRANCH   9   8
ATOM      8  C   UNL     1      -4.612   2.719  25.141  0.00  0.00    +0.179 C 
BRANCH   8  31
ATOM     31  C   UNL     1      -5.128   3.108  25.654  0.00  0.00    +0.281 C 
ATOM     32  N   UNL     1      -5.808   3.471  25.358  0.00  0.00    -0.086 NA
ATOM     33  O   UNL     1      -4.965   3.134  26.462  0.00  0.00    -0.270 OA
ENDBRANCH   8  31
BRANCH   8   7
ATOM      7  C   UNL     1      -4.908   2.191  24.581  0.00  0.00    +0.057 C 
BRANCH   7   6
ATOM      3  C   UNL     1      -4.378  -0.220  24.748  0.00  0.00    +0.139 A 
ATOM      4  C   UNL     1      -4.223   0.188  24.049  0.00  0.00    +0.037 A 
ATOM      5  C   UNL     1      -4.400   0.992  23.993  0.00  0.00    -0.001 A 
ATOM      6  C   UNL     1      -4.731   1.387  24.637  0.00  0.00    -0.020 A 
ATOM     34  C   UNL     1      -4.886   0.979  25.336  0.00  0.00    -0.001 A 
ATOM     35  C   UNL     1      -4.709   0.174  25.392  0.00  0.00    +0.037 A 
BRANCH   3   2
ATOM      1  C   UNL     1      -4.105  -1.475  24.120  0.00  0.00    +0.252 C 
ATOM      2  O   UNL     1      -4.201  -1.025  24.804  0.00  0.00    -0.471 OA
ENDBRANCH   3   2
ENDBRANCH   7   6
ENDBRANCH   8   7
ENDBRANCH   9   8
ENDBRANCH  12  10
TORSDOF 8
ENDMDL
MODEL 4
REMARK VINA RESULT:     -11.5      1.923      5.548
REMARK  Name = 
REMARK  8 active torsions:
REMARK  status: ('A' for Active; 'I' for Inactive)
REMARK    1  A    between atoms: O_2  and  C_3
REMARK    2  A    between atoms: C_6  and  C_7
REMARK    3  A    between atoms: C_7  and  C_8
REMARK    4  A    between atoms: C_8  and  N_9
REMARK    5  A    between atoms: C_8  and  C_31
REMARK    6  A    between atoms: C_10  and  C_12
REMARK    7  A    between atoms: C_14  and  N_15
REMARK    8  A    between atoms: N_18  and  C_19
REMARK                            x       y       z     vdW  Elec       q    Type
REMARK                         _______ _______ _______ _____ _____    ______ ____
ROOT
ATOM     12  C   UNL     1      -0.968  -0.213  24.740  0.00  0.00    +0.033 C 
ATOM     13  C   UNL     1      -0.850   0.539  25.059  0.00  0.00    -0.002 C 
ATOM     14  C   UNL     1      -0.259   1.028  24.756  0.00  0.00    +0.152 C 
ATOM     26  C   UNL     1       0.214   0.765  24.133  0.00  0.00    +0.206 C 
ATOM     27  O   UNL     1       0.805   1.254  23.830  0.00  0.00    -0.218 OA
ATOM     28  C   UNL     1       0.096   0.013  23.814  0.00  0.00    +0.189 C 
ATOM     29  O   UNL     1       0.569  -0.249  23.192  0.00  0.00    -0.220 OA
ATOM     30  C   UNL     1      -0.495  -0.475  24.117  0.00  0.00    +0.066 C 
ENDROOT
BRANCH  14  15
ATOM     15  N   UNL     1      -0.141   1.779  25.075  0.00  0.00    -0.181 NA
ATOM     16  C   UNL     1      -0.768   2.313  25.117  0.00  0.00    +0.344 C 
ATOM     17  O   UNL     1      -1.513   2.094  24.839  0.00  0.00    -0.249 OA
ATOM     18  N   UNL     1      -0.650   3.064  25.436  0.00  0.00    -0.160 NA
BRANCH  18  19
ATOM     19  C   UNL     1      -1.277   3.597  25.477  0.00  0.00    +0.081 A 
ATOM     20  C   UNL     1      -1.989   3.370  25.827  0.00  0.00    +0.017 A 
ATOM     21  C   UNL     1      -2.618   3.904  25.869  0.00  0.00    +0.001 A 
ATOM     22  C   UNL     1      -2.534   4.665  25.560  0.00  0.00    +0.001 A 
ATOM     23  C   UNL     1      -1.822   4.892  25.210  0.00  0.00    +0.008 A 
ATOM     24  C   UNL     1      -1.194   4.358  25.169  0.00  0.00    +0.050 A 
ATOM     25 BR   UNL     1      -0.483   4.585  24.819  0.00  0.00    -0.048 Br
ENDBRANCH  18  19
ENDBRANCH  14  15
BRANCH  12  10
ATOM      9  N   UNL     1      -2.294  -0.742  24.668  0.00  0.00    -0.194 NA
ATOM     10  C   UNL     1      -1.559  -0.701  25.043  0.00  0.00    +0.261 C 
ATOM     11  O   UNL     1      -1.417  -1.150  25.721  0.00  0.00    -0.269 OA
BRANCH   9   8
ATOM      8  C   UNL     1      -2.885  -1.231  24.972  0.00  0.00    +0.179 C 
BRANCH   8  31
ATOM     31  C   UNL     1      -2.923  -2.022  24.746  0.00  0.00    +0.281 C 
ATOM     32  N   UNL     1      -3.065  -2.607  25.311  0.00  0.00    -0.086 NA
ATOM     33  O   UNL     1      -2.820  -2.231  23.954  0.00  0.00    -0.270 OA
ENDBRANCH   8  31
BRANCH   8   7
ATOM      7  C   UNL     1      -3.439  -0.927  25.504  0.00  0.00    +0.057 C 
BRANCH   7   6
ATOM      3  C   UNL     1      -5.015   0.838  24.779  0.00  0.00    +0.139 A 
ATOM      4  C   UNL     1      -4.709   0.847  25.544  0.00  0.00    +0.037 A 
ATOM      5  C   UNL     1      -4.184   0.259  25.786  0.00  0.00    -0.001 A 
ATOM      6  C   UNL     1      -3.964  -0.339  25.261  0.00  0.00    -0.020 A 
ATOM     34  C   UNL     1      -4.270  -0.349  24.496  0.00  0.00    -0.001 A 
ATOM     35  C   UNL     1      -4.796   0.240  24.254  0.00  0.00    +0.037 A 
BRANCH   3   2
ATOM      1  C   UNL     1      -5.709   2.061  25.037  0.00  0.00    +0.252 C 
ATOM      2  O   UNL     1      -5.541   1.426  24.537  0.00  0.00    -0.471 OA
ENDBRANCH   3   2
ENDBRANCH   7   6
ENDBRANCH   8   7
ENDBRANCH   9   8
ENDBRANCH  12  10
TORSDOF 8
ENDMDL
MODEL 5
REMARK VINA RESULT:     -11.3      1.693      4.172
REMARK  Name = 
REMARK  8 active torsions:
REMARK  status: ('A' for Active; 'I' for Inactive)
REMARK    1  A    between atoms: O_2  and  C_3
REMARK    2  A    between atoms: C_6  and  C_7
REMARK    3  A    between atoms: C_7  and  C_8
REMARK    4  A    between atoms: C_8  and  N_9
REMARK    5  A    between atoms: C_8  and  C_31
REMARK    6  A    between atoms: C_10  and  C_12
REMARK    7  A    between atoms: C_14  and  N_15
REMARK    8  A    between atoms: N_18  and  C_19
REMARK                            x       y       z     vdW  Elec       q    Type
REMARK                         _______ _______ _______ _____ _____    ______ ____
ROOT
ATOM     12  C   UNL     1      -4.589   1.056  25.246  0.00  0.00    +0.033 C 
ATOM     13  C   UNL     1      -4.141   1.694  25.515  0.00  0.00    -0.002 C 
ATOM     14  C   UNL     1      -4.451   2.458  25.486  0.00  0.00    +0.152 C 
ATOM     26  C   UNL     1      -5.210   2.583  25.189  0.00  0.00    +0.206 C 
ATOM     27  O   UNL     1      -5.520   3.347  25.161  0.00  0.00    -0.218 OA
ATOM     28  C   UNL     1      -5.659   1.945  24.920  0.00  0.00    +0.189 C 
ATOM     29  O   UNL     1      -6.418   2.071  24.624  0.00  0.00    -0.220 OA
ATOM     30  C   UNL     1      -5.349   1.182  24.949  0.00  0.00    +0.066 C 
ENDROOT
BRANCH  14  15
ATOM     15  N   UNL     1      -4.003   3.095  25.754  0.00  0.00    -0.181 NA
ATOM     16  C   UNL     1      -3.235   3.207  25.475  0.00  0.00    +0.344 C 
ATOM     17  O   UNL     1      -2.916   2.680  24.926  0.00  0.00    -0.249 OA
ATOM     18  N   UNL     1      -2.786   3.845  25.743  0.00  0.00    -0.160 NA
BRANCH  18  19
ATOM     19  C   UNL     1      -2.019   3.956  25.463  0.00  0.00    +0.081 A 
ATOM     20  C   UNL     1      -1.517   3.308  25.368  0.00  0.00    +0.017 A 
ATOM     21  C   UNL     1      -0.748   3.418  25.088  0.00  0.00    +0.001 A 
ATOM     22  C   UNL     1      -0.482   4.177  24.903  0.00  0.00    +0.001 A 
ATOM     23  C   UNL     1      -0.984   4.825  24.998  0.00  0.00    +0.008 A 
ATOM     24  C   UNL     1      -1.752   4.714  25.278  0.00  0.00    +0.050 A 
ATOM     25 BR   UNL     1      -2.253   5.362  25.373  0.00  0.00    -0.048 Br
ENDBRANCH  18  19
ENDBRANCH  14  15
BRANCH  12  10
ATOM      9  N   UNL     1      -3.765   0.033  24.683  0.00  0.00    -0.194 NA
ATOM     10  C   UNL     1      -4.279   0.292  25.275  0.00  0.00    +0.261 C 
ATOM     11  O   UNL     1      -4.482  -0.213  25.895  0.00  0.00    -0.269 OA
BRANCH   9   8
ATOM      8  C   UNL     1      -3.454  -0.731  24.712  0.00  0.00    +0.179 C 
BRANCH   8  31
ATOM     31  C   UNL     1      -3.798  -1.333  24.266  0.00  0.00    +0.281 C 
ATOM     32  N   UNL     1      -3.970  -2.060  24.618  0.00  0.00    -0.086 NA
ATOM     33  O   UNL     1      -3.970  -1.211  23.468  0.00  0.00    -0.270 OA
ENDBRANCH   8  31
BRANCH   8   7
ATOM      7  C   UNL     1      -2.800  -0.891  25.188  0.00  0.00    +0.057 C 
BRANCH   7   6
ATOM      3  C   UNL     1      -0.515  -0.724  24.252  0.00  0.00    +0.139 A 
ATOM      4  C   UNL     1      -0.756  -1.415  24.630  0.00  0.00    +0.037 A 
ATOM      5  C   UNL     1      -1.517  -1.472  24.942  0.00  0.00    -0.001 A 
ATOM      6  C   UNL     1      -2.038  -0.835  24.875  0.00  0.00    -0.020 A 
ATOM     34  C   UNL     1      -1.798  -0.144  24.497  0.00  0.00    -0.001 A 
ATOM     35  C   UNL     1      -1.036  -0.088  24.184  0.00  0.00    +0.037 A 
BRANCH   3   2
ATOM      1  C   UNL     1       0.463  -0.007  23.495  0.00  0.00    +0.252 C 
ATOM      2  O   UNL     1       0.247  -0.668  23.939  0.00  0.00    -0.471 OA
ENDBRANCH   3   2
ENDBRANCH   7   6
ENDBRANCH   8   7
ENDBRANCH   9   8
ENDBRANCH  12  10
TORSDOF 8
ENDMDL
MODEL 6
REMARK VINA RESULT:     -11.3      1.632      3.916
REMARK  Name = 
REMARK  8 active torsions:
REMARK  status: ('A' for Active; 'I' for Inactive)
REMARK    1  A    between atoms: O_2  and  C_3
REMARK    2  A    between atoms: C_6  and  C_7
REMARK    3  A    between atoms: C_7  and  C_8
REMARK    4  A    between atoms: C_8  and  N_9
REMARK    5  A    between atoms: C_8  and  C_31
REMARK    6  A    between atoms: C_10  and  C_12
REMARK    7  A    between atoms: C_14  and  N_15
REMARK    8  A    between atoms: N_18  and  C_19
REMARK                            x       y       z     vdW  Elec       q    Type
REMARK                         _______ _______ _______ _____ _____    ______ ____
ROOT
ATOM     12  C   UNL     1      -2.051  -0.604  24.625  0.00  0.00    +0.033 C 
ATOM     13  C   UNL     1      -2.679  -0.105  24.429  0.00  0.00    -0.002 C 
ATOM     14  C   UNL     1      -3.456  -0.383  24.471  0.00  0.00    +0.152 C 
ATOM     26  C   UNL     1      -3.603  -1.159  24.709  0.00  0.00    +0.206 C 
ATOM     27  O   UNL     1      -4.379  -1.436  24.751  0.00  0.00    -0.218 OA
ATOM     28  C   UNL     1      -2.976  -1.657  24.904  0.00  0.00    +0.189 C 
ATOM     29  O   UNL     1      -3.124  -2.433  25.142  0.00  0.00    -0.220 OA
ATOM     30  C   UNL     1      -2.201  -1.380  24.863  0.00  0.00    +0.066 C 
ENDROOT
BRANCH  14  15
ATOM     15  N   UNL     1      -4.082   0.115  24.276  0.00  0.00    -0.181 NA
ATOM     16  C   UNL     1      -4.178   0.833  24.671  0.00  0.00    +0.344 C 
ATOM     17  O   UNL     1      -3.646   1.051  25.262  0.00  0.00    -0.249 OA
ATOM     18  N   UNL     1      -4.806   1.331  24.476  0.00  0.00    -0.160 NA
BRANCH  18  19
ATOM     19  C   UNL     1      -4.901   2.048  24.871  0.00  0.00    +0.081 A 
ATOM     20  C   UNL     1      -4.264   2.569  24.941  0.00  0.00    +0.017 A 
ATOM     21  C   UNL     1      -4.359   3.287  25.337  0.00  0.00    +0.001 A 
ATOM     22  C   UNL     1      -5.092   3.484  25.663  0.00  0.00    +0.001 A 
ATOM     23  C   UNL     1      -5.728   2.964  25.594  0.00  0.00    +0.008 A 
ATOM     24  C   UNL     1      -5.632   2.246  25.198  0.00  0.00    +0.050 A 
ATOM     25 BR   UNL     1      -6.269   1.726  25.128  0.00  0.00    -0.048 Br
ENDBRANCH  18  19
ENDBRANCH  14  15
BRANCH  12  10
ATOM      9  N   UNL     1      -1.125   0.433  24.297  0.00  0.00    -0.194 NA
ATOM     10  C   UNL     1      -1.276  -0.327  24.583  0.00  0.00    +0.261 C 
ATOM     11  O   UNL     1      -0.652  -0.807  24.827  0.00  0.00    -0.269 OA
BRANCH   9   8
ATOM      8  C   UNL     1      -0.349   0.710  24.255  0.00  0.00    +0.179 C 
BRANCH   8  31
ATOM     31  C   UNL     1       0.105   0.568  23.581  0.00  0.00    +0.281 C 
ATOM     32  N   UNL     1       0.874   0.275  23.656  0.00  0.00    -0.086 NA
ATOM     33  O   UNL     1      -0.208   0.717  22.833  0.00  0.00    -0.270 OA
ENDBRANCH   8  31
BRANCH   8   7
ATOM      7  C   UNL     1      -0.027   1.131  24.887  0.00  0.00    +0.057 C 
BRANCH   7   6
ATOM      3  C   UNL     1      -0.749   3.456  25.327  0.00  0.00    +0.139 A 
ATOM      4  C   UNL     1      -0.685   2.920  25.950  0.00  0.00    +0.037 A 
ATOM      5  C   UNL     1      -0.444   2.145  25.804  0.00  0.00    -0.001 A 
ATOM      6  C   UNL     1      -0.267   1.906  25.033  0.00  0.00    -0.020 A 
ATOM     34  C   UNL     1      -0.332   2.442  24.411  0.00  0.00    -0.001 A 
ATOM     35  C   UNL     1      -0.573   3.218  24.557  0.00  0.00    +0.037 A 
BRANCH   3   2
ATOM      1  C   UNL     1      -0.927   4.803  24.881  0.00  0.00    +0.252 C 
ATOM      2  O   UNL     1      -0.990   4.232  25.474  0.00  0.00    -0.471 OA
ENDBRANCH   3   2
ENDBRANCH   7   6
ENDBRANCH   8   7
ENDBRANCH   9   8
ENDBRANCH  12  10
TORSDOF 8
ENDMDL
MODEL 7
REMARK VINA RESULT:     -11.2      1.833      4.389
REMARK  Name = 
REMARK  8 active torsions:
REMARK  status: ('A' for Active; 'I' for Inactive)
REMARK    1  A    between atoms: O_2  and  C_3
REMARK    2  A    between atoms: C_6  and  C_7
REMARK    3  A    between atoms: C_7  and  C_8
REMARK    4  A    between atoms: C_8  and  N_9
REMARK    5  A    between atoms: C_8  and  C_31
REMARK    6  A    between atoms: C_10  and  C_12
REMARK    7  A    between atoms: C_14  and  N_15
REMARK    8  A    between atoms: N_18  and  C_19
REMARK                            x       y       z     vdW  Elec       q    Type
REMARK                         _______ _______ _______ _____ _____    ______ ____
ROOT
ATOM     12  C   UNL     1      -0.985   1.667  25.015  0.00  0.00    +0.033 C 
ATOM     13  C   UNL     1      -1.695   1.975  25.301  0.00  0.00    -0.002 C 
ATOM     14  C   UNL     1      -1.904   2.755  25.131  0.00  0.00    +0.152 C 
ATOM     26  C   UNL     1      -1.403   3.226  24.675  0.00  0.00    +0.206 C 
ATOM     27  O   UNL     1      -1.613   4.006  24.506  0.00  0.00    -0.218 OA
ATOM     28  C   UNL     1      -0.694   2.918  24.389  0.00  0.00    +0.189 C 
ATOM     29  O   UNL     1      -0.194   3.389  23.934  0.00  0.00    -0.220 OA
ATOM     30  C   UNL     1      -0.485   2.139  24.560  0.00  0.00    +0.066 C 
ENDROOT
BRANCH  14  15
ATOM     15  N   UNL     1      -2.613   3.063  25.417  0.00  0.00    -0.181 NA
ATOM     16  C   UNL     1      -3.326   2.685  25.247  0.00  0.00    +0.344 C 
ATOM     17  O   UNL     1      -3.328   1.998  24.790  0.00  0.00    -0.249 OA
ATOM     18  N   UNL     1      -4.036   2.993  25.532  0.00  0.00    -0.160 NA
BRANCH  18  19
ATOM     19  C   UNL     1      -4.748   2.614  25.362  0.00  0.00    +0.081 A 
ATOM     20  C   UNL     1      -4.749   1.822  25.131  0.00  0.00    +0.017 A 
ATOM     21  C   UNL     1      -5.462   1.442  24.960  0.00  0.00    +0.001 A 
ATOM     22  C   UNL     1      -6.174   1.855  25.021  0.00  0.00    +0.001 A 
ATOM     23  C   UNL     1      -6.173   2.647  25.252  0.00  0.00    +0.008 A 
ATOM     24  C   UNL     1      -5.460   3.026  25.422  0.00  0.00    +0.050 A 
ATOM     25 BR   UNL     1      -5.460   3.818  25.654  0.00  0.00    -0.048 Br
ENDBRANCH  18  19
ENDBRANCH  14  15
BRANCH  12  10
ATOM      9  N   UNL     1      -1.072   0.271  24.723  0.00  0.00    -0.194 NA
ATOM     10  C   UNL     1      -0.776   0.888  25.186  0.00  0.00    +0.261 C 
ATOM     11  O   UNL     1      -0.271   0.724  25.817  0.00  0.00    -0.269 OA
BRANCH   9   8
ATOM      8  C   UNL     1      -0.862  -0.509  24.894  0.00  0.00    +0.179 C 
BRANCH   8  31
ATOM     31  C   UNL     1      -0.219  -0.857  24.513  0.00  0.00    +0.281 C 
ATOM     32  N   UNL     1      -0.087  -0.712  23.710  0.00  0.00    -0.086 NA
ATOM     33  O   UNL     1       0.293  -1.349  24.932  0.00  0.00    -0.270 OA
ENDBRANCH   8  31
BRANCH   8   7
ATOM      7  C   UNL     1      -1.297  -0.941  25.446  0.00  0.00    +0.057 C 
BRANCH   7   6
ATOM      3  C   UNL     1      -3.364  -2.112  24.755  0.00  0.00    +0.139 A 
ATOM      4  C   UNL     1      -3.394  -1.538  25.346  0.00  0.00    +0.037 A 
ATOM      5  C   UNL     1      -2.705  -1.147  25.576  0.00  0.00    -0.001 A 
ATOM      6  C   UNL     1      -1.986  -1.332  25.215  0.00  0.00    -0.020 A 
ATOM     34  C   UNL     1      -1.956  -1.906  24.625  0.00  0.00    -0.001 A 
ATOM     35  C   UNL     1      -2.646  -2.297  24.394  0.00  0.00    +0.037 A 
BRANCH   3   2
ATOM      1  C   UNL     1      -4.423  -2.305  23.814  0.00  0.00    +0.252 C 
ATOM      2  O   UNL     1      -4.054  -2.503  24.525  0.00  0.00    -0.471 OA
ENDBRANCH   3   2
ENDBRANCH   7   6
ENDBRANCH   8   7
ENDBRANCH   9   8
ENDBRANCH  12  10
TORSDOF 8
ENDMDL
