MODEL 1
REMARK VINA RESULT:      -8.2      0.000      0.000
REMARK  Name = 
REMARK  6 active torsions:
REMARK  status: ('A' for Active; 'I' for Inactive)
REMARK    1  A    between atoms: C_2  and  C_5
REMARK    2  A    between atoms: N_10  and  C_11
REMARK    3  A    between atoms: C_15  and  N_19
REMARK    4  A    between atoms: N_19  and  C_20
REMARK    5  A    between atoms: C_20  and  C_21
REMARK    6  A    between atoms: C_24  and  C_27
REMARK                            x       y       z     vdW  Elec       q    Type
REMARK                         _______ _______ _______ _____ _____    ______ ____
ROOT
ATOM     11  C   UNL     1       1.402  -0.249  23.175  0.00  0.00    +0.154 C 
ATOM     12  C   UNL     1       1.085   0.275  22.622  0.00  0.00    +0.166 C 
ATOM     13  O   UNL     1       0.283   0.367  22.791  0.00  0.00    -0.350 OA
ATOM     14  C   UNL     1       0.104  -0.099  23.447  0.00  0.00    +0.162 C 
ATOM     15  C   UNL     1      -0.501  -0.331  23.958  0.00  0.00    +0.132 C 
ATOM     16  C   UNL     1      -0.183  -0.854  24.510  0.00  0.00    +0.162 C 
ATOM     17  O   UNL     1       0.619  -0.947  24.341  0.00  0.00    -0.350 OA
ATOM     18  C   UNL     1       0.797  -0.480  23.684  0.00  0.00    +0.166 C 
ENDROOT
BRANCH  11  10
ATOM      5  C   UNL     1       4.196   0.347  23.061  0.00  0.00    +0.063 A 
ATOM      6  C   UNL     1       4.020   1.143  22.932  0.00  0.00    +0.035 A 
ATOM      7  C   UNL     1       3.234   1.392  22.896  0.00  0.00    +0.103 A 
ATOM      8  N   UNL     1       2.623   0.845  22.989  0.00  0.00    -0.211 NA
ATOM      9  C   UNL     1       2.799   0.049  23.118  0.00  0.00    +0.236 A 
ATOM     10  N   UNL     1       2.188  -0.498  23.211  0.00  0.00    -0.200 NA
ATOM     33  N   UNL     1       3.585  -0.199  23.154  0.00  0.00    -0.217 NA
BRANCH   5   2
ATOM      1  C   UNL     1       5.767  -0.150  23.134  0.00  0.00    +0.006 C 
ATOM      2  C   UNL     1       4.981   0.099  23.098  0.00  0.00    +0.036 C 
ATOM      3  C   UNL     1       4.967   0.174  23.918  0.00  0.00    +0.006 C 
ATOM      4  C   UNL     1       4.995   0.024  22.276  0.00  0.00    +0.006 C 
ENDBRANCH   5   2
ENDBRANCH  11  10
BRANCH  15  19
ATOM     19  N   UNL     1      -1.287  -0.082  23.921  0.00  0.00    -0.210 NA
BRANCH  19  20
ATOM     20  C   UNL     1      -1.805  -0.262  24.537  0.00  0.00    +0.115 C 
BRANCH  20  21
ATOM     21  C   UNL     1      -2.506   0.166  24.626  0.00  0.00    -0.005 A 
ATOM     22  C   UNL     1      -2.493   0.908  24.986  0.00  0.00    -0.003 A 
ATOM     23  C   UNL     1      -3.192   1.336  25.075  0.00  0.00    -0.000 A 
ATOM     24  C   UNL     1      -3.905   1.021  24.802  0.00  0.00    -0.000 A 
ATOM     25  C   UNL     1      -3.917   0.280  24.442  0.00  0.00    -0.000 A 
ATOM     26  C   UNL     1      -3.218  -0.149  24.353  0.00  0.00    -0.003 A 
BRANCH  24  27
ATOM     27  C   UNL     1      -4.606   1.449  24.891  0.00  0.00    -0.000 A 
ATOM     28  C   UNL     1      -5.242   1.118  25.299  0.00  0.00    -0.000 A 
ATOM     29  C   UNL     1      -5.942   1.546  25.387  0.00  0.00    +0.000 A 
ATOM     30  C   UNL     1      -6.005   2.304  25.068  0.00  0.00    +0.000 A 
ATOM     31  C   UNL     1      -5.369   2.634  24.660  0.00  0.00    +0.000 A 
ATOM     32  C   UNL     1      -4.669   2.206  24.571  0.00  0.00    -0.000 A 
ENDBRANCH  24  27
ENDBRANCH  20  21
ENDBRANCH  19  20
ENDBRANCH  15  19
TORSDOF 6
ENDMDL
MODEL 2
REMARK VINA RESULT:      -7.6      1.507      7.571
REMARK  Name = 
REMARK  6 active torsions:
REMARK  status: ('A' for Active; 'I' for Inactive)
REMARK    1  A    between atoms: C_2  and  C_5
REMARK    2  A    between atoms: N_10  and  C_11
REMARK    3  A    between atoms: C_15  and  N_19
REMARK    4  A    between atoms: N_19  and  C_20
REMARK    5  A    between atoms: C_20  and  C_21
REMARK    6  A    between atoms: C_24  and  C_27
REMARK                            x       y       z     vdW  Elec       q    Type
REMARK                         _______ _______ _______ _____ _____    ______ ____
ROOT
ATOM     11  C   UNL     1      -2.737   1.359  23.854  0.00  0.00    +0.154 C 
ATOM     12  C   UNL     1      -2.509   1.970  23.349  0.00  0.00    +0.166 C 
ATOM     13  O   UNL     1      -1.702   1.891  23.201  0.00  0.00    -0.350 OA
ATOM     14  C   UNL     1      -1.430   1.231  23.613  0.00  0.00    +0.162 C 
ATOM     15  C   UNL     1      -0.764   0.773  23.778  0.00  0.00    +0.132 C 
ATOM     16  C   UNL     1      -0.991   0.162  24.283  0.00  0.00    +0.162 C 
ATOM     17  O   UNL     1      -1.798   0.242  24.431  0.00  0.00    -0.350 OA
ATOM     18  C   UNL     1      -2.070   0.902  24.017  0.00  0.00    +0.166 C 
ENDROOT
BRANCH  11  10
ATOM      5  C   UNL     1      -5.087   2.324  25.164  0.00  0.00    +0.063 A 
ATOM      6  C   UNL     1      -4.739   3.068  25.239  0.00  0.00    +0.035 A 
ATOM      7  C   UNL     1      -3.978   3.200  24.948  0.00  0.00    +0.103 A 
ATOM      8  N   UNL     1      -3.564   2.586  24.583  0.00  0.00    -0.211 NA
ATOM      9  C   UNL     1      -3.912   1.841  24.509  0.00  0.00    +0.236 A 
ATOM     10  N   UNL     1      -3.498   1.228  24.144  0.00  0.00    -0.200 NA
ATOM     33  N   UNL     1      -4.673   1.711  24.799  0.00  0.00    -0.217 NA
BRANCH   5   2
ATOM      1  C   UNL     1      -6.608   2.062  25.745  0.00  0.00    +0.006 C 
ATOM      2  C   UNL     1      -5.847   2.193  25.454  0.00  0.00    +0.036 C 
ATOM      3  C   UNL     1      -5.617   2.487  26.190  0.00  0.00    +0.006 C 
ATOM      4  C   UNL     1      -6.078   1.899  24.718  0.00  0.00    +0.006 C 
ENDBRANCH   5   2
ENDBRANCH  11  10
BRANCH  15  19
ATOM     19  N   UNL     1      -0.002   0.905  23.487  0.00  0.00    -0.210 NA
BRANCH  19  20
ATOM     20  C   UNL     1       0.401   0.299  23.100  0.00  0.00    +0.115 C 
BRANCH  20  21
ATOM     21  C   UNL     1       1.227   0.287  23.099  0.00  0.00    -0.005 A 
ATOM     22  C   UNL     1       1.648   0.905  23.447  0.00  0.00    -0.003 A 
ATOM     23  C   UNL     1       2.473   0.895  23.447  0.00  0.00    -0.000 A 
ATOM     24  C   UNL     1       2.876   0.264  23.098  0.00  0.00    -0.000 A 
ATOM     25  C   UNL     1       2.455  -0.353  22.750  0.00  0.00    -0.000 A 
ATOM     26  C   UNL     1       1.630  -0.343  22.751  0.00  0.00    -0.003 A 
BRANCH  24  27
ATOM     27  C   UNL     1       3.702   0.253  23.097  0.00  0.00    -0.000 A 
ATOM     28  C   UNL     1       4.122   0.839  22.694  0.00  0.00    -0.000 A 
ATOM     29  C   UNL     1       4.946   0.827  22.694  0.00  0.00    +0.000 A 
ATOM     30  C   UNL     1       5.351   0.231  23.095  0.00  0.00    +0.000 A 
ATOM     31  C   UNL     1       4.931  -0.355  23.497  0.00  0.00    +0.000 A 
ATOM     32  C   UNL     1       4.106  -0.343  23.497  0.00  0.00    -0.000 A 
ENDBRANCH  24  27
ENDBRANCH  20  21
ENDBRANCH  19  20
ENDBRANCH  15  19
TORSDOF 6
ENDMDL
MODEL 3
REMARK VINA RESULT:      -6.9     14.716     15.687
REMARK  Name = 
REMARK  6 active torsions:
REMARK  status: ('A' for Active; 'I' for Inactive)
REMARK    1  A    between atoms: C_2  and  C_5
REMARK    2  A    between atoms: N_10  and  C_11
REMARK    3  A    between atoms: C_15  and  N_19
REMARK    4  A    between atoms: N_19  and  C_20
REMARK    5  A    between atoms: C_20  and  C_21
REMARK    6  A    between atoms: C_24  and  C_27
REMARK                            x       y       z     vdW  Elec       q    Type
REMARK                         _______ _______ _______ _____ _____    ______ ____
ROOT
ATOM     11  C   UNL     1      -5.867 -10.270  13.189  0.00  0.00    +0.154 C 
ATOM     12  C   UNL     1      -6.658 -10.425  13.015  0.00  0.00    +0.166 C 
ATOM     13  O   UNL     1      -7.086 -10.385  13.719  0.00  0.00    -0.350 OA
ATOM     14  C   UNL     1      -6.560 -10.205  14.328  0.00  0.00    +0.162 C 
ATOM     15  C   UNL     1      -6.499 -10.069  15.139  0.00  0.00    +0.132 C 
ATOM     16  C   UNL     1      -5.708  -9.914  15.313  0.00  0.00    +0.162 C 
ATOM     17  O   UNL     1      -5.280  -9.954  14.610  0.00  0.00    -0.350 OA
ATOM     18  C   UNL     1      -5.807 -10.134  14.000  0.00  0.00    +0.166 C 
ENDROOT
BRANCH  11  10
ATOM      5  C   UNL     1      -4.745  -9.322  10.737  0.00  0.00    +0.063 A 
ATOM      6  C   UNL     1      -5.427  -8.880  10.596  0.00  0.00    +0.035 A 
ATOM      7  C   UNL     1      -6.049  -8.897  11.138  0.00  0.00    +0.103 A 
ATOM      8  N   UNL     1      -5.989  -9.354  11.822  0.00  0.00    -0.211 NA
ATOM      9  C   UNL     1      -5.305  -9.796  11.963  0.00  0.00    +0.236 A 
ATOM     10  N   UNL     1      -5.245 -10.254  12.647  0.00  0.00    -0.200 NA
ATOM     33  N   UNL     1      -4.684  -9.779  11.421  0.00  0.00    -0.217 NA
BRANCH   5   2
ATOM      1  C   UNL     1      -3.502  -9.289   9.653  0.00  0.00    +0.006 C 
ATOM      2  C   UNL     1      -4.124  -9.305  10.195  0.00  0.00    +0.036 C 
ATOM      3  C   UNL     1      -4.438  -9.966   9.815  0.00  0.00    +0.006 C 
ATOM      4  C   UNL     1      -3.809  -8.644  10.576  0.00  0.00    +0.006 C 
ENDBRANCH   5   2
ENDBRANCH  11  10
BRANCH  15  19
ATOM     19  N   UNL     1      -7.121 -10.085  15.681  0.00  0.00    -0.210 NA
BRANCH  19  20
ATOM     20  C   UNL     1      -6.989  -9.869  16.467  0.00  0.00    +0.115 C 
BRANCH  20  21
ATOM     21  C   UNL     1      -7.589  -9.960  17.026  0.00  0.00    -0.005 A 
ATOM     22  C   UNL     1      -7.636 -10.654  17.471  0.00  0.00    -0.003 A 
ATOM     23  C   UNL     1      -8.236 -10.746  18.030  0.00  0.00    -0.000 A 
ATOM     24  C   UNL     1      -8.788 -10.143  18.144  0.00  0.00    -0.000 A 
ATOM     25  C   UNL     1      -8.741  -9.451  17.699  0.00  0.00    -0.000 A 
ATOM     26  C   UNL     1      -8.141  -9.358  17.140  0.00  0.00    -0.003 A 
BRANCH  24  27
ATOM     27  C   UNL     1      -9.388 -10.235  18.704  0.00  0.00    -0.000 A 
ATOM     28  C   UNL     1     -10.121  -9.872  18.586  0.00  0.00    -0.000 A 
ATOM     29  C   UNL     1     -10.720  -9.963  19.145  0.00  0.00    +0.000 A 
ATOM     30  C   UNL     1     -10.588 -10.417  19.821  0.00  0.00    +0.000 A 
ATOM     31  C   UNL     1      -9.856 -10.779  19.938  0.00  0.00    +0.000 A 
ATOM     32  C   UNL     1      -9.256 -10.688  19.379  0.00  0.00    -0.000 A 
ENDBRANCH  24  27
ENDBRANCH  20  21
ENDBRANCH  19  20
ENDBRANCH  15  19
TORSDOF 6
ENDMDL
MODEL 4
REMARK VINA RESULT:      -6.3     14.974     16.993
REMARK  Name = 
REMARK  6 active torsions:
REMARK  status: ('A' for Active; 'I' for Inactive)
REMARK    1  A    between atoms: C_2  and  C_5
REMARK    2  A    between atoms: N_10  and  C_11
REMARK    3  A    between atoms: C_15  and  N_19
REMARK    4  A    between atoms: N_19  and  C_20
REMARK    5  A    between atoms: C_20  and  C_21
REMARK    6  A    between atoms: C_24  and  C_27
REMARK                            x       y       z     vdW  Elec       q    Type
REMARK                         _______ _______ _______ _____ _____    ______ ____
ROOT
ATOM     11  C   UNL     1      -8.383  -9.620  16.285  0.00  0.00    +0.154 C 
ATOM     12  C   UNL     1      -7.594  -9.447  16.454  0.00  0.00    +0.166 C 
ATOM     13  O   UNL     1      -7.162  -9.520  15.755  0.00  0.00    -0.350 OA
ATOM     14  C   UNL     1      -7.683  -9.739  15.155  0.00  0.00    +0.162 C 
ATOM     15  C   UNL     1      -7.739  -9.920  14.352  0.00  0.00    +0.132 C 
ATOM     16  C   UNL     1      -8.527 -10.093  14.183  0.00  0.00    +0.162 C 
ATOM     17  O   UNL     1      -8.959 -10.020  14.881  0.00  0.00    -0.350 OA
ATOM     18  C   UNL     1      -8.437  -9.801  15.482  0.00  0.00    +0.166 C 
ENDROOT
BRANCH  11  10
ATOM      5  C   UNL     1      -9.472 -10.371  18.819  0.00  0.00    +0.063 A 
ATOM      6  C   UNL     1      -8.768 -10.759  19.006  0.00  0.00    +0.035 A 
ATOM      7  C   UNL     1      -8.144 -10.765  18.467  0.00  0.00    +0.103 A 
ATOM      8  N   UNL     1      -8.223 -10.383  17.739  0.00  0.00    -0.211 NA
ATOM      9  C   UNL     1      -8.928  -9.996  17.552  0.00  0.00    +0.236 A 
ATOM     10  N   UNL     1      -9.007  -9.614  16.825  0.00  0.00    -0.200 NA
ATOM     33  N   UNL     1      -9.551  -9.990  18.092  0.00  0.00    -0.217 NA
BRANCH   5   2
ATOM      1  C   UNL     1     -10.720 -10.360  19.898  0.00  0.00    +0.006 C 
ATOM      2  C   UNL     1     -10.095 -10.366  19.358  0.00  0.00    +0.036 C 
ATOM      3  C   UNL     1      -9.629 -10.775  19.901  0.00  0.00    +0.006 C 
ATOM      4  C   UNL     1     -10.562  -9.956  18.815  0.00  0.00    +0.006 C 
ENDBRANCH   5   2
ENDBRANCH  11  10
BRANCH  15  19
ATOM     19  N   UNL     1      -7.114  -9.926  13.812  0.00  0.00    -0.210 NA
BRANCH  19  20
ATOM     20  C   UNL     1      -7.258  -9.774  13.014  0.00  0.00    +0.115 C 
BRANCH  20  21
ATOM     21  C   UNL     1      -6.625  -9.693  12.490  0.00  0.00    -0.005 A 
ATOM     22  C   UNL     1      -6.197 -10.357  12.254  0.00  0.00    -0.003 A 
ATOM     23  C   UNL     1      -5.565 -10.277  11.730  0.00  0.00    -0.000 A 
ATOM     24  C   UNL     1      -5.362  -9.530  11.441  0.00  0.00    -0.000 A 
ATOM     25  C   UNL     1      -5.790  -8.867  11.677  0.00  0.00    -0.000 A 
ATOM     26  C   UNL     1      -6.422  -8.947  12.201  0.00  0.00    -0.003 A 
BRANCH  24  27
ATOM     27  C   UNL     1      -4.730  -9.450  10.916  0.00  0.00    -0.000 A 
ATOM     28  C   UNL     1      -4.864  -9.177  10.149  0.00  0.00    -0.000 A 
ATOM     29  C   UNL     1      -4.232  -9.096   9.625  0.00  0.00    +0.000 A 
ATOM     30  C   UNL     1      -3.467  -9.287   9.868  0.00  0.00    +0.000 A 
ATOM     31  C   UNL     1      -3.334  -9.560  10.635  0.00  0.00    +0.000 A 
ATOM     32  C   UNL     1      -3.966  -9.641  11.159  0.00  0.00    -0.000 A 
ENDBRANCH  24  27
ENDBRANCH  20  21
ENDBRANCH  19  20
ENDBRANCH  15  19
TORSDOF 6
ENDMDL
MODEL 5
REMARK VINA RESULT:      -6.1     14.774     16.400
REMARK  Name = 
REMARK  6 active torsions:
REMARK  status: ('A' for Active; 'I' for Inactive)
REMARK    1  A    between atoms: C_2  and  C_5
REMARK    2  A    between atoms: N_10  and  C_11
REMARK    3  A    between atoms: C_15  and  N_19
REMARK    4  A    between atoms: N_19  and  C_20
REMARK    5  A    between atoms: C_20  and  C_21
REMARK    6  A    between atoms: C_24  and  C_27
REMARK                            x       y       z     vdW  Elec       q    Type
REMARK                         _______ _______ _______ _____ _____    ______ ____
ROOT
ATOM     11  C   UNL     1      -6.346  -9.871  16.082  0.00  0.00    +0.154 C 
ATOM     12  C   UNL     1      -5.596  -9.582  15.897  0.00  0.00    +0.166 C 
ATOM     13  O   UNL     1      -5.505  -9.617  15.078  0.00  0.00    -0.350 OA
ATOM     14  C   UNL     1      -6.198  -9.928  14.757  0.00  0.00    +0.162 C 
ATOM     15  C   UNL     1      -6.571 -10.143  14.053  0.00  0.00    +0.132 C 
ATOM     16  C   UNL     1      -7.320 -10.433  14.239  0.00  0.00    +0.162 C 
ATOM     17  O   UNL     1      -7.411 -10.397  15.058  0.00  0.00    -0.350 OA
ATOM     18  C   UNL     1      -6.717 -10.085  15.378  0.00  0.00    +0.166 C 
ENDROOT
BRANCH  11  10
ATOM      5  C   UNL     1      -6.060 -10.556  18.843  0.00  0.00    +0.063 A 
ATOM      6  C   UNL     1      -5.275 -10.770  18.708  0.00  0.00    +0.035 A 
ATOM      7  C   UNL     1      -4.953 -10.706  17.951  0.00  0.00    +0.103 A 
ATOM      8  N   UNL     1      -5.417 -10.428  17.328  0.00  0.00    -0.211 NA
ATOM      9  C   UNL     1      -6.203 -10.213  17.463  0.00  0.00    +0.236 A 
ATOM     10  N   UNL     1      -6.667  -9.935  16.840  0.00  0.00    -0.200 NA
ATOM     33  N   UNL     1      -6.524 -10.277  18.220  0.00  0.00    -0.217 NA
BRANCH   5   2
ATOM      1  C   UNL     1      -6.701 -10.684  20.357  0.00  0.00    +0.006 C 
ATOM      2  C   UNL     1      -6.381 -10.620  19.600  0.00  0.00    +0.036 C 
ATOM      3  C   UNL     1      -5.628 -10.539  19.926  0.00  0.00    +0.006 C 
ATOM      4  C   UNL     1      -7.135 -10.700  19.274  0.00  0.00    +0.006 C 
ENDBRANCH   5   2
ENDBRANCH  11  10
BRANCH  15  19
ATOM     19  N   UNL     1      -6.249 -10.079  13.296  0.00  0.00    -0.210 NA
BRANCH  19  20
ATOM     20  C   UNL     1      -6.629  -9.622  12.724  0.00  0.00    +0.115 C 
BRANCH  20  21
ATOM     21  C   UNL     1      -6.281  -9.515  11.983  0.00  0.00    -0.005 A 
ATOM     22  C   UNL     1      -6.281 -10.131  11.435  0.00  0.00    -0.003 A 
ATOM     23  C   UNL     1      -5.933 -10.025  10.694  0.00  0.00    -0.000 A 
ATOM     24  C   UNL     1      -5.586  -9.301  10.502  0.00  0.00    -0.000 A 
ATOM     25  C   UNL     1      -5.587  -8.686  11.050  0.00  0.00    -0.000 A 
ATOM     26  C   UNL     1      -5.935  -8.791  11.791  0.00  0.00    -0.003 A 
BRANCH  24  27
ATOM     27  C   UNL     1      -5.238  -9.194   9.761  0.00  0.00    -0.000 A 
ATOM     28  C   UNL     1      -5.705  -8.989   9.113  0.00  0.00    -0.000 A 
ATOM     29  C   UNL     1      -5.358  -8.882   8.373  0.00  0.00    +0.000 A 
ATOM     30  C   UNL     1      -4.544  -8.980   8.281  0.00  0.00    +0.000 A 
ATOM     31  C   UNL     1      -4.077  -9.186   8.929  0.00  0.00    +0.000 A 
ATOM     32  C   UNL     1      -4.425  -9.293   9.670  0.00  0.00    -0.000 A 
ENDBRANCH  24  27
ENDBRANCH  20  21
ENDBRANCH  19  20
ENDBRANCH  15  19
TORSDOF 6
ENDMDL
MODEL 6
REMARK VINA RESULT:      -6.0     13.978     14.763
REMARK  Name = 
REMARK  6 active torsions:
REMARK  status: ('A' for Active; 'I' for Inactive)
REMARK    1  A    between atoms: C_2  and  C_5
REMARK    2  A    between atoms: N_10  and  C_11
REMARK    3  A    between atoms: C_15  and  N_19
REMARK    4  A    between atoms: N_19  and  C_20
REMARK    5  A    between atoms: C_20  and  C_21
REMARK    6  A    between atoms: C_24  and  C_27
REMARK                            x       y       z     vdW  Elec       q    Type
REMARK                         _______ _______ _______ _____ _____    ______ ____
ROOT
ATOM     11  C   UNL     1      -3.862 -10.563  14.453  0.00  0.00    +0.154 C 
ATOM     12  C   UNL     1      -4.594 -10.755  14.124  0.00  0.00    +0.166 C 
ATOM     13  O   UNL     1      -5.148 -10.780  14.733  0.00  0.00    -0.350 OA
ATOM     14  C   UNL     1      -4.760 -10.604  15.439  0.00  0.00    +0.162 C 
ATOM     15  C   UNL     1      -4.862 -10.510  16.252  0.00  0.00    +0.132 C 
ATOM     16  C   UNL     1      -4.131 -10.318  16.581  0.00  0.00    +0.162 C 
ATOM     17  O   UNL     1      -3.576 -10.293  15.972  0.00  0.00    -0.350 OA
ATOM     18  C   UNL     1      -3.965 -10.470  15.265  0.00  0.00    +0.166 C 
ENDROOT
BRANCH  11  10
ATOM      5  C   UNL     1      -2.459 -10.111  12.004  0.00  0.00    +0.063 A 
ATOM      6  C   UNL     1      -3.178 -10.052  11.603  0.00  0.00    +0.035 A 
ATOM      7  C   UNL     1      -3.888 -10.136  12.015  0.00  0.00    +0.103 A 
ATOM      8  N   UNL     1      -3.880 -10.278  12.828  0.00  0.00    -0.211 NA
ATOM      9  C   UNL     1      -3.160 -10.337  13.228  0.00  0.00    +0.236 A 
ATOM     10  N   UNL     1      -3.152 -10.479  14.041  0.00  0.00    -0.200 NA
ATOM     33  N   UNL     1      -2.451 -10.253  12.816  0.00  0.00    -0.217 NA
BRANCH   5   2
ATOM      1  C   UNL     1      -1.040  -9.943  11.179  0.00  0.00    +0.006 C 
ATOM      2  C   UNL     1      -1.750 -10.027  11.592  0.00  0.00    +0.036 C 
ATOM      3  C   UNL     1      -2.049  -9.358  11.213  0.00  0.00    +0.006 C 
ATOM      4  C   UNL     1      -1.451 -10.697  11.970  0.00  0.00    +0.006 C 
ENDBRANCH   5   2
ENDBRANCH  11  10
BRANCH  15  19
ATOM     19  N   UNL     1      -5.573 -10.594  16.664  0.00  0.00    -0.210 NA
BRANCH  19  20
ATOM     20  C   UNL     1      -5.841  -9.985  17.151  0.00  0.00    +0.115 C 
BRANCH  20  21
ATOM     21  C   UNL     1      -6.647  -9.912  17.315  0.00  0.00    -0.005 A 
ATOM     22  C   UNL     1      -7.110  -9.387  16.879  0.00  0.00    -0.003 A 
ATOM     23  C   UNL     1      -7.916  -9.313  17.042  0.00  0.00    -0.000 A 
ATOM     24  C   UNL     1      -8.257  -9.767  17.642  0.00  0.00    -0.000 A 
ATOM     25  C   UNL     1      -7.794 -10.291  18.077  0.00  0.00    -0.000 A 
ATOM     26  C   UNL     1      -6.988 -10.365  17.914  0.00  0.00    -0.003 A 
BRANCH  24  27
ATOM     27  C   UNL     1      -9.063  -9.694  17.806  0.00  0.00    -0.000 A 
ATOM     28  C   UNL     1      -9.483 -10.339  18.105  0.00  0.00    -0.000 A 
ATOM     29  C   UNL     1     -10.288 -10.266  18.268  0.00  0.00    +0.000 A 
ATOM     30  C   UNL     1     -10.673  -9.549  18.133  0.00  0.00    +0.000 A 
ATOM     31  C   UNL     1     -10.254  -8.905  17.833  0.00  0.00    +0.000 A 
ATOM     32  C   UNL     1      -9.448  -8.978  17.670  0.00  0.00    -0.000 A 
ENDBRANCH  24  27
ENDBRANCH  20  21
ENDBRANCH  19  20
ENDBRANCH  15  19
TORSDOF 6
ENDMDL
MODEL 7
REMARK VINA RESULT:      -5.5     14.718     16.961
REMARK  Name = 
REMARK  6 active torsions:
REMARK  status: ('A' for Active; 'I' for Inactive)
REMARK    1  A    between atoms: C_2  and  C_5
REMARK    2  A    between atoms: N_10  and  C_11
REMARK    3  A    between atoms: C_15  and  N_19
REMARK    4  A    between atoms: N_19  and  C_20
REMARK    5  A    between atoms: C_20  and  C_21
REMARK    6  A    between atoms: C_24  and  C_27
REMARK                            x       y       z     vdW  Elec       q    Type
REMARK                         _______ _______ _______ _____ _____    ______ ____
ROOT
ATOM     11  C   UNL     1      -7.379 -10.321  15.232  0.00  0.00    +0.154 C 
ATOM     12  C   UNL     1      -6.684 -10.241  15.668  0.00  0.00    +0.166 C 
ATOM     13  O   UNL     1      -6.048 -10.366  15.158  0.00  0.00    -0.350 OA
ATOM     14  C   UNL     1      -6.349 -10.524  14.407  0.00  0.00    +0.162 C 
ATOM     15  C   UNL     1      -6.144 -10.700  13.628  0.00  0.00    +0.132 C 
ATOM     16  C   UNL     1      -6.839 -10.781  13.192  0.00  0.00    +0.162 C 
ATOM     17  O   UNL     1      -7.475 -10.655  13.702  0.00  0.00    -0.350 OA
ATOM     18  C   UNL     1      -7.173 -10.497  14.453  0.00  0.00    +0.166 C 
ENDROOT
BRANCH  11  10
ATOM      5  C   UNL     1      -9.185  -9.306  17.202  0.00  0.00    +0.063 A 
ATOM      6  C   UNL     1      -8.552  -8.960  17.603  0.00  0.00    +0.035 A 
ATOM      7  C   UNL     1      -7.785  -9.041  17.311  0.00  0.00    +0.103 A 
ATOM      8  N   UNL     1      -7.649  -9.468  16.618  0.00  0.00    -0.211 NA
ATOM      9  C   UNL     1      -8.282  -9.814  16.217  0.00  0.00    +0.236 A 
ATOM     10  N   UNL     1      -8.147 -10.241  15.524  0.00  0.00    -0.200 NA
ATOM     33  N   UNL     1      -9.049  -9.733  16.509  0.00  0.00    -0.217 NA
BRANCH   5   2
ATOM      1  C   UNL     1     -10.719  -9.145  17.786  0.00  0.00    +0.006 C 
ATOM      2  C   UNL     1      -9.951  -9.226  17.494  0.00  0.00    +0.036 C 
ATOM      3  C   UNL     1     -10.103  -8.641  16.933  0.00  0.00    +0.006 C 
ATOM      4  C   UNL     1      -9.800  -9.812  18.055  0.00  0.00    +0.006 C 
ENDBRANCH   5   2
ENDBRANCH  11  10
BRANCH  15  19
ATOM     19  N   UNL     1      -5.376 -10.780  13.336  0.00  0.00    -0.210 NA
BRANCH  19  20
ATOM     20  C   UNL     1      -5.233 -10.710  12.526  0.00  0.00    +0.115 C 
BRANCH  20  21
ATOM     21  C   UNL     1      -4.493 -10.462  12.258  0.00  0.00    -0.005 A 
ATOM     22  C   UNL     1      -3.808 -10.735  12.627  0.00  0.00    -0.003 A 
ATOM     23  C   UNL     1      -3.068 -10.487  12.359  0.00  0.00    -0.000 A 
ATOM     24  C   UNL     1      -3.014  -9.965  11.721  0.00  0.00    -0.000 A 
ATOM     25  C   UNL     1      -3.700  -9.693  11.353  0.00  0.00    -0.000 A 
ATOM     26  C   UNL     1      -4.440  -9.941  11.620  0.00  0.00    -0.003 A 
BRANCH  24  27
ATOM     27  C   UNL     1      -2.275  -9.717  11.452  0.00  0.00    -0.000 A 
ATOM     28  C   UNL     1      -2.222  -9.176  10.831  0.00  0.00    -0.000 A 
ATOM     29  C   UNL     1      -1.483  -8.928  10.563  0.00  0.00    +0.000 A 
ATOM     30  C   UNL     1      -0.796  -9.220  10.915  0.00  0.00    +0.000 A 
ATOM     31  C   UNL     1      -0.850  -9.761  11.536  0.00  0.00    +0.000 A 
ATOM     32  C   UNL     1      -1.589 -10.009  11.804  0.00  0.00    -0.000 A 
ENDBRANCH  24  27
ENDBRANCH  20  21
ENDBRANCH  19  20
ENDBRANCH  15  19
TORSDOF 6
ENDMDL
MODEL 8
REMARK VINA RESULT:      -4.6     15.252     17.478
REMARK  Name = 
REMARK  6 active torsions:
REMARK  status: ('A' for Active; 'I' for Inactive)
REMARK    1  A    between atoms: C_2  and  C_5
REMARK    2  A    between atoms: N_10  and  C_11
REMARK    3  A    between atoms: C_15  and  N_19
REMARK    4  A    between atoms: N_19  and  C_20
REMARK    5  A    between atoms: C_20  and  C_21
REMARK    6  A    between atoms: C_24  and  C_27
REMARK                            x       y       z     vdW  Elec       q    Type
REMARK                         _______ _______ _______ _____ _____    ______ ____
ROOT
ATOM     11  C   UNL     1      -6.521 -10.263  13.284  0.00  0.00    +0.154 C 
ATOM     12  C   UNL     1      -6.011 -10.026  13.887  0.00  0.00    +0.166 C 
ATOM     13  O   UNL     1      -5.240 -10.062  13.596  0.00  0.00    -0.350 OA
ATOM     14  C   UNL     1      -5.273 -10.322  12.815  0.00  0.00    +0.162 C 
ATOM     15  C   UNL     1      -4.818 -10.505  12.152  0.00  0.00    +0.132 C 
ATOM     16  C   UNL     1      -5.328 -10.743  11.549  0.00  0.00    +0.162 C 
ATOM     17  O   UNL     1      -6.099 -10.707  11.839  0.00  0.00    -0.350 OA
ATOM     18  C   UNL     1      -6.065 -10.446  12.622  0.00  0.00    +0.166 C 
ENDROOT
BRANCH  11  10
ATOM      5  C   UNL     1      -8.928  -9.979  14.799  0.00  0.00    +0.063 A 
ATOM      6  C   UNL     1      -8.487  -9.743  15.455  0.00  0.00    +0.035 A 
ATOM      7  C   UNL     1      -7.664  -9.697  15.405  0.00  0.00    +0.103 A 
ATOM      8  N   UNL     1      -7.283  -9.886  14.698  0.00  0.00    -0.211 NA
ATOM      9  C   UNL     1      -7.725 -10.121  14.041  0.00  0.00    +0.236 A 
ATOM     10  N   UNL     1      -7.344 -10.310  13.334  0.00  0.00    -0.200 NA
ATOM     33  N   UNL     1      -8.547 -10.168  14.092  0.00  0.00    -0.217 NA
BRANCH   5   2
ATOM      1  C   UNL     1     -10.572 -10.071  14.901  0.00  0.00    +0.006 C 
ATOM      2  C   UNL     1      -9.749 -10.025  14.850  0.00  0.00    +0.036 C 
ATOM      3  C   UNL     1      -9.813  -9.283  14.497  0.00  0.00    +0.006 C 
ATOM      4  C   UNL     1      -9.686 -10.768  15.205  0.00  0.00    +0.006 C 
ENDBRANCH   5   2
ENDBRANCH  11  10
BRANCH  15  19
ATOM     19  N   UNL     1      -3.995 -10.459  12.101  0.00  0.00    -0.210 NA
BRANCH  19  20
ATOM     20  C   UNL     1      -3.635 -10.299  11.376  0.00  0.00    +0.115 C 
BRANCH  20  21
ATOM     21  C   UNL     1      -2.880  -9.966  11.355  0.00  0.00    -0.005 A 
ATOM     22  C   UNL     1      -2.681  -9.432  10.759  0.00  0.00    -0.003 A 
ATOM     23  C   UNL     1      -1.926  -9.099  10.737  0.00  0.00    -0.000 A 
ATOM     24  C   UNL     1      -1.370  -9.303  11.313  0.00  0.00    -0.000 A 
ATOM     25  C   UNL     1      -1.570  -9.837  11.908  0.00  0.00    -0.000 A 
ATOM     26  C   UNL     1      -2.324 -10.169  11.930  0.00  0.00    -0.003 A 
BRANCH  24  27
ATOM     27  C   UNL     1      -0.615  -8.970  11.292  0.00  0.00    -0.000 A 
ATOM     28  C   UNL     1      -0.404  -8.391  11.840  0.00  0.00    -0.000 A 
ATOM     29  C   UNL     1       0.351  -8.059  11.819  0.00  0.00    +0.000 A 
ATOM     30  C   UNL     1       0.894  -8.306  11.250  0.00  0.00    +0.000 A 
ATOM     31  C   UNL     1       0.683  -8.885  10.702  0.00  0.00    +0.000 A 
ATOM     32  C   UNL     1      -0.072  -9.217  10.723  0.00  0.00    -0.000 A 
ENDBRANCH  24  27
ENDBRANCH  20  21
ENDBRANCH  19  20
ENDBRANCH  15  19
TORSDOF 6
ENDMDL
