MODEL 1
REMARK VINA RESULT:     -11.3      0.000      0.000
REMARK  Name = 
REMARK  4 active torsions:
REMARK  status: ('A' for Active; 'I' for Inactive)
REMARK    1  A    between atoms: C_4  and  C_25
REMARK    2  A    between atoms: C_6  and  C_7
REMARK    3  A    between atoms: C_14  and  C_15
REMARK    4  A    between atoms: C_15  and  N_16
REMARK                            x       y       z     vdW  Elec       q    Type
REMARK                         _______ _______ _______ _____ _____    ______ ____
ROOT
ATOM      7  C   UNL     1      -0.797   1.435  25.260  0.00  0.00    +0.056 C 
ATOM      8  C   UNL     1      -1.219   0.991  25.740  0.00  0.00    +0.078 C 
ATOM      9  N   UNL     1      -0.838   0.739  25.053  0.00  0.00    -0.272 NA
ATOM     10  C   UNL     1      -0.361   1.576  24.639  0.00  0.00    +0.072 C 
ATOM     11  C   UNL     1       0.008   1.847  24.173  0.00  0.00    +0.018 C 
ATOM     12  C   UNL     1      -0.426   1.180  24.587  0.00  0.00    +0.010 C 
ATOM     13  C   UNL     1      -0.376   0.392  24.205  0.00  0.00    +0.018 C 
ATOM     14  C   UNL     1      -0.781  -0.078  24.650  0.00  0.00    +0.079 C 
ENDROOT
BRANCH   7   6
ATOM      1  C   UNL     1       0.178   2.109  26.608  0.00  0.00    +0.153 C 
ATOM      2  N   UNL     1      -0.274   2.544  26.072  0.00  0.00    -0.253 N 
ATOM      3  N   UNL     1      -0.357   3.365  26.061  0.00  0.00    -0.174 NA
ATOM      4  C   UNL     1      -0.857   3.562  25.435  0.00  0.00    +0.079 A 
ATOM      5  C   UNL     1      -1.082   2.864  25.059  0.00  0.00    +0.031 A 
ATOM      6  C   UNL     1      -0.722   2.235  25.453  0.00  0.00    +0.058 A 
BRANCH   4  25
ATOM     25  C   UNL     1      -1.089   4.325  25.223  0.00  0.00    +0.042 C 
ATOM     26  C   UNL     1      -0.637   4.871  24.801  0.00  0.00    +0.006 C 
ATOM     27  C   UNL     1      -1.084   5.558  24.714  0.00  0.00    +0.000 C 
ATOM     28  C   UNL     1      -1.812   5.437  25.081  0.00  0.00    +0.000 C 
ATOM     29  C   UNL     1      -1.816   4.675  25.397  0.00  0.00    +0.006 C 
ENDBRANCH   4  25
ENDBRANCH   7   6
BRANCH  14  15
ATOM     15  C   UNL     1      -1.025  -0.862  24.723  0.00  0.00    +0.133 C 
BRANCH  15  16
ATOM     16  N   UNL     1      -1.799  -1.074  24.533  0.00  0.00    -0.187 NA
ATOM     17  C   UNL     1      -2.036  -1.862  24.587  0.00  0.00    +0.323 C 
ATOM     18  O   UNL     1      -1.498  -2.439  24.830  0.00  0.00    -0.251 OA
ATOM     19  N   UNL     1      -2.810  -2.074  24.396  0.00  0.00    -0.258 N 
ATOM     20  C   UNL     1      -3.047  -2.862  24.449  0.00  0.00    +0.127 C 
ATOM     21  C   UNL     1      -3.822  -3.074  24.259  0.00  0.00    +0.164 C 
ATOM     22  O   UNL     1      -4.359  -2.497  24.016  0.00  0.00    -0.350 OA
ATOM     23  C   UNL     1      -4.121  -1.709  23.963  0.00  0.00    +0.164 C 
ATOM     24  C   UNL     1      -3.348  -1.497  24.153  0.00  0.00    +0.127 C 
ENDBRANCH  15  16
ENDBRANCH  14  15
TORSDOF 4
ENDMDL
MODEL 2
REMARK VINA RESULT:     -11.2      1.923      2.544
REMARK  Name = 
REMARK  4 active torsions:
REMARK  status: ('A' for Active; 'I' for Inactive)
REMARK    1  A    between atoms: C_4  and  C_25
REMARK    2  A    between atoms: C_6  and  C_7
REMARK    3  A    between atoms: C_14  and  C_15
REMARK    4  A    between atoms: C_15  and  N_16
REMARK                            x       y       z     vdW  Elec       q    Type
REMARK                         _______ _______ _______ _____ _____    ______ ____
ROOT
ATOM      7  C   UNL     1      -3.459   2.216  24.812  0.00  0.00    +0.056 C 
ATOM      8  C   UNL     1      -3.553   1.700  25.386  0.00  0.00    +0.078 C 
ATOM      9  N   UNL     1      -3.700   1.569  24.585  0.00  0.00    -0.272 NA
ATOM     10  C   UNL     1      -3.475   2.460  24.079  0.00  0.00    +0.072 C 
ATOM     11  C   UNL     1      -3.435   2.804  23.526  0.00  0.00    +0.018 C 
ATOM     12  C   UNL     1      -3.606   2.081  24.027  0.00  0.00    +0.010 C 
ATOM     13  C   UNL     1      -3.894   1.372  23.597  0.00  0.00    +0.018 C 
ATOM     14  C   UNL     1      -3.999   0.837  24.130  0.00  0.00    +0.079 C 
ENDROOT
BRANCH   7   6
ATOM      1  C   UNL     1      -4.356   3.436  25.779  0.00  0.00    +0.153 C 
ATOM      2  N   UNL     1      -3.599   3.527  25.464  0.00  0.00    -0.253 N 
ATOM      3  N   UNL     1      -3.120   4.196  25.538  0.00  0.00    -0.174 NA
ATOM      4  C   UNL     1      -2.413   4.049  25.140  0.00  0.00    +0.079 A 
ATOM      5  C   UNL     1      -2.454   3.290  24.820  0.00  0.00    +0.031 A 
ATOM      6  C   UNL     1      -3.186   2.968  25.020  0.00  0.00    +0.058 A 
BRANCH   4  25
ATOM     25  C   UNL     1      -1.776   4.570  25.075  0.00  0.00    +0.042 C 
ATOM     26  C   UNL     1      -1.824   5.393  25.044  0.00  0.00    +0.006 C 
ATOM     27  C   UNL     1      -1.057   5.690  24.979  0.00  0.00    +0.000 C 
ATOM     28  C   UNL     1      -0.536   5.051  24.969  0.00  0.00    +0.000 C 
ATOM     29  C   UNL     1      -0.980   4.358  25.028  0.00  0.00    +0.006 C 
ENDBRANCH   4  25
ENDBRANCH   7   6
BRANCH  14  15
ATOM     15  C   UNL     1      -4.241   0.055  24.234  0.00  0.00    +0.133 C 
BRANCH  15  16
ATOM     16  N   UNL     1      -3.679  -0.543  24.322  0.00  0.00    -0.187 NA
ATOM     17  C   UNL     1      -3.909  -1.333  24.274  0.00  0.00    +0.323 C 
ATOM     18  O   UNL     1      -4.699  -1.527  24.139  0.00  0.00    -0.251 OA
ATOM     19  N   UNL     1      -3.347  -1.931  24.362  0.00  0.00    -0.258 N 
ATOM     20  C   UNL     1      -3.576  -2.723  24.314  0.00  0.00    +0.127 C 
ATOM     21  C   UNL     1      -3.015  -3.321  24.402  0.00  0.00    +0.164 C 
ATOM     22  O   UNL     1      -2.224  -3.127  24.538  0.00  0.00    -0.350 OA
ATOM     23  C   UNL     1      -1.995  -2.336  24.586  0.00  0.00    +0.164 C 
ATOM     24  C   UNL     1      -2.556  -1.739  24.498  0.00  0.00    +0.127 C 
ENDBRANCH  15  16
ENDBRANCH  14  15
TORSDOF 4
ENDMDL
MODEL 3
REMARK VINA RESULT:     -10.5      2.006      5.654
REMARK  Name = 
REMARK  4 active torsions:
REMARK  status: ('A' for Active; 'I' for Inactive)
REMARK    1  A    between atoms: C_4  and  C_25
REMARK    2  A    between atoms: C_6  and  C_7
REMARK    3  A    between atoms: C_14  and  C_15
REMARK    4  A    between atoms: C_15  and  N_16
REMARK                            x       y       z     vdW  Elec       q    Type
REMARK                         _______ _______ _______ _____ _____    ______ ____
ROOT
ATOM      7  C   UNL     1      -1.224  -0.045  24.811  0.00  0.00    +0.056 C 
ATOM      8  C   UNL     1      -0.995   0.399  24.214  0.00  0.00    +0.078 C 
ATOM      9  N   UNL     1      -0.956   0.600  25.014  0.00  0.00    -0.272 NA
ATOM     10  C   UNL     1      -1.340  -0.211  25.556  0.00  0.00    +0.072 C 
ATOM     11  C   UNL     1      -1.496  -0.491  26.125  0.00  0.00    +0.018 C 
ATOM     12  C   UNL     1      -1.182   0.159  25.593  0.00  0.00    +0.010 C 
ATOM     13  C   UNL     1      -0.892   0.882  25.998  0.00  0.00    +0.018 C 
ATOM     14  C   UNL     1      -0.656   1.348  25.442  0.00  0.00    +0.079 C 
ENDROOT
BRANCH   7   6
ATOM      1  C   UNL     1      -0.280  -1.509  24.372  0.00  0.00    +0.153 C 
ATOM      2  N   UNL     1      -1.102  -1.460  24.430  0.00  0.00    -0.253 N 
ATOM      3  N   UNL     1      -1.635  -2.076  24.296  0.00  0.00    -0.174 NA
ATOM      4  C   UNL     1      -2.397  -1.784  24.414  0.00  0.00    +0.079 A 
ATOM      5  C   UNL     1      -2.336  -0.988  24.622  0.00  0.00    +0.031 A 
ATOM      6  C   UNL     1      -1.536  -0.788  24.631  0.00  0.00    +0.058 A 
BRANCH   4  25
ATOM     25  C   UNL     1      -3.097  -2.214  24.339  0.00  0.00    +0.042 C 
ATOM     26  C   UNL     1      -3.244  -2.962  24.653  0.00  0.00    +0.006 C 
ATOM     27  C   UNL     1      -4.012  -3.181  24.443  0.00  0.00    +0.000 C 
ATOM     28  C   UNL     1      -4.339  -2.567  24.000  0.00  0.00    +0.000 C 
ATOM     29  C   UNL     1      -3.775  -1.969  23.935  0.00  0.00    +0.006 C 
ENDBRANCH   4  25
ENDBRANCH   7   6
BRANCH  14  15
ATOM     15  C   UNL     1      -0.326   2.091  25.307  0.00  0.00    +0.133 C 
BRANCH  15  16
ATOM     16  N   UNL     1      -0.794   2.768  25.362  0.00  0.00    -0.187 NA
ATOM     17  C   UNL     1      -0.513   3.488  25.075  0.00  0.00    +0.323 C 
ATOM     18  O   UNL     1       0.236   3.532  24.732  0.00  0.00    -0.251 OA
ATOM     19  N   UNL     1      -0.981   4.165  25.130  0.00  0.00    -0.258 N 
ATOM     20  C   UNL     1      -0.700   4.886  24.843  0.00  0.00    +0.127 C 
ATOM     21  C   UNL     1      -1.169   5.563  24.898  0.00  0.00    +0.164 C 
ATOM     22  O   UNL     1      -1.918   5.519  25.241  0.00  0.00    -0.350 OA
ATOM     23  C   UNL     1      -2.199   4.798  25.528  0.00  0.00    +0.164 C 
ATOM     24  C   UNL     1      -1.731   4.122  25.473  0.00  0.00    +0.127 C 
ENDBRANCH  15  16
ENDBRANCH  14  15
TORSDOF 4
ENDMDL
MODEL 4
REMARK VINA RESULT:      -9.6      3.040      4.431
REMARK  Name = 
REMARK  4 active torsions:
REMARK  status: ('A' for Active; 'I' for Inactive)
REMARK    1  A    between atoms: C_4  and  C_25
REMARK    2  A    between atoms: C_6  and  C_7
REMARK    3  A    between atoms: C_14  and  C_15
REMARK    4  A    between atoms: C_15  and  N_16
REMARK                            x       y       z     vdW  Elec       q    Type
REMARK                         _______ _______ _______ _____ _____    ______ ____
ROOT
ATOM      7  C   UNL     1      -2.248   1.433  23.953  0.00  0.00    +0.056 C 
ATOM      8  C   UNL     1      -2.200   0.924  23.366  0.00  0.00    +0.078 C 
ATOM      9  N   UNL     1      -1.603   1.102  23.906  0.00  0.00    -0.272 NA
ATOM     10  C   UNL     1      -1.985   1.822  24.565  0.00  0.00    +0.072 C 
ATOM     11  C   UNL     1      -1.911   2.217  25.081  0.00  0.00    +0.018 C 
ATOM     12  C   UNL     1      -1.657   1.602  24.479  0.00  0.00    +0.010 C 
ATOM     13  C   UNL     1      -0.837   1.299  24.561  0.00  0.00    +0.018 C 
ATOM     14  C   UNL     1      -0.749   0.791  23.997  0.00  0.00    +0.079 C 
ENDROOT
BRANCH   7   6
ATOM      1  C   UNL     1      -2.951   2.623  22.806  0.00  0.00    +0.153 C 
ATOM      2  N   UNL     1      -3.286   2.381  23.520  0.00  0.00    -0.253 N 
ATOM      3  N   UNL     1      -4.003   2.644  23.833  0.00  0.00    -0.174 NA
ATOM      4  C   UNL     1      -4.123   2.260  24.553  0.00  0.00    +0.079 A 
ATOM      5  C   UNL     1      -3.481   1.760  24.685  0.00  0.00    +0.031 A 
ATOM      6  C   UNL     1      -2.964   1.835  24.047  0.00  0.00    +0.058 A 
BRANCH   4  25
ATOM     25  C   UNL     1      -4.772   2.360  25.052  0.00  0.00    +0.042 C 
ATOM     26  C   UNL     1      -4.987   3.058  25.436  0.00  0.00    +0.006 C 
ATOM     27  C   UNL     1      -5.668   2.907  25.876  0.00  0.00    +0.000 C 
ATOM     28  C   UNL     1      -5.873   2.116  25.765  0.00  0.00    +0.000 C 
ATOM     29  C   UNL     1      -5.320   1.777  25.256  0.00  0.00    +0.006 C 
ENDBRANCH   4  25
ENDBRANCH   7   6
BRANCH  14  15
ATOM     15  C   UNL     1      -0.204   0.269  23.666  0.00  0.00    +0.133 C 
BRANCH  15  16
ATOM     16  N   UNL     1       0.569   0.518  23.520  0.00  0.00    -0.187 NA
ATOM     17  C   UNL     1       1.071   0.053  23.059  0.00  0.00    +0.323 C 
ATOM     18  O   UNL     1       0.800  -0.659  22.743  0.00  0.00    -0.251 OA
ATOM     19  N   UNL     1       1.844   0.301  22.913  0.00  0.00    -0.258 N 
ATOM     20  C   UNL     1       2.347  -0.163  22.452  0.00  0.00    +0.127 C 
ATOM     21  C   UNL     1       3.120   0.085  22.306  0.00  0.00    +0.164 C 
ATOM     22  O   UNL     1       3.391   0.797  22.622  0.00  0.00    -0.350 OA
ATOM     23  C   UNL     1       2.888   1.262  23.083  0.00  0.00    +0.164 C 
ATOM     24  C   UNL     1       2.116   1.014  23.229  0.00  0.00    +0.127 C 
ENDBRANCH  15  16
ENDBRANCH  14  15
TORSDOF 4
ENDMDL
MODEL 5
REMARK VINA RESULT:      -9.5      2.592      6.041
REMARK  Name = 
REMARK  4 active torsions:
REMARK  status: ('A' for Active; 'I' for Inactive)
REMARK    1  A    between atoms: C_4  and  C_25
REMARK    2  A    between atoms: C_6  and  C_7
REMARK    3  A    between atoms: C_14  and  C_15
REMARK    4  A    between atoms: C_15  and  N_16
REMARK                            x       y       z     vdW  Elec       q    Type
REMARK                         _______ _______ _______ _____ _____    ______ ____
ROOT
ATOM      7  C   UNL     1      -3.319   0.609  24.639  0.00  0.00    +0.056 C 
ATOM      8  C   UNL     1      -2.787   1.044  24.274  0.00  0.00    +0.078 C 
ATOM      9  N   UNL     1      -3.479   1.318  24.632  0.00  0.00    -0.272 NA
ATOM     10  C   UNL     1      -3.973   0.483  25.030  0.00  0.00    +0.072 C 
ATOM     11  C   UNL     1      -4.476   0.222  25.354  0.00  0.00    +0.018 C 
ATOM     12  C   UNL     1      -3.995   0.885  24.988  0.00  0.00    +0.010 C 
ATOM     13  C   UNL     1      -4.329   1.693  25.068  0.00  0.00    +0.018 C 
ATOM     14  C   UNL     1      -3.831   2.155  24.719  0.00  0.00    +0.079 C 
ENDROOT
BRANCH   7   6
ATOM      1  C   UNL     1      -1.905  -0.195  25.400  0.00  0.00    +0.153 C 
ATOM      2  N   UNL     1      -2.533  -0.574  25.022  0.00  0.00    -0.253 N 
ATOM      3  N   UNL     1      -2.621  -1.389  24.928  0.00  0.00    -0.174 NA
ATOM      4  C   UNL     1      -3.325  -1.524  24.519  0.00  0.00    +0.079 A 
ATOM      5  C   UNL     1      -3.672  -0.792  24.361  0.00  0.00    +0.031 A 
ATOM      6  C   UNL     1      -3.182  -0.205  24.672  0.00  0.00    +0.058 A 
BRANCH   4  25
ATOM     25  C   UNL     1      -3.628  -2.261  24.307  0.00  0.00    +0.042 C 
ATOM     26  C   UNL     1      -3.475  -2.977  24.687  0.00  0.00    +0.006 C 
ATOM     27  C   UNL     1      -3.891  -3.569  24.291  0.00  0.00    +0.000 C 
ATOM     28  C   UNL     1      -4.300  -3.219  23.666  0.00  0.00    +0.000 C 
ATOM     29  C   UNL     1      -4.139  -2.411  23.675  0.00  0.00    +0.006 C 
ENDBRANCH   4  25
ENDBRANCH   7   6
BRANCH  14  15
ATOM     15  C   UNL     1      -3.694   2.946  24.532  0.00  0.00    +0.133 C 
BRANCH  15  16
ATOM     16  N   UNL     1      -2.953   3.281  24.673  0.00  0.00    -0.187 NA
ATOM     17  C   UNL     1      -2.874   4.101  24.714  0.00  0.00    +0.323 C 
ATOM     18  O   UNL     1      -3.533   4.586  24.614  0.00  0.00    -0.251 OA
ATOM     19  N   UNL     1      -2.133   4.437  24.855  0.00  0.00    -0.258 N 
ATOM     20  C   UNL     1      -2.053   5.257  24.897  0.00  0.00    +0.127 C 
ATOM     21  C   UNL     1      -1.312   5.592  25.038  0.00  0.00    +0.164 C 
ATOM     22  O   UNL     1      -0.652   5.108  25.138  0.00  0.00    -0.350 OA
ATOM     23  C   UNL     1      -0.733   4.287  25.097  0.00  0.00    +0.164 C 
ATOM     24  C   UNL     1      -1.472   3.952  24.956  0.00  0.00    +0.127 C 
ENDBRANCH  15  16
ENDBRANCH  14  15
TORSDOF 4
ENDMDL
MODEL 6
REMARK VINA RESULT:      -9.4      3.199      5.282
REMARK  Name = 
REMARK  4 active torsions:
REMARK  status: ('A' for Active; 'I' for Inactive)
REMARK    1  A    between atoms: C_4  and  C_25
REMARK    2  A    between atoms: C_6  and  C_7
REMARK    3  A    between atoms: C_14  and  C_15
REMARK    4  A    between atoms: C_15  and  N_16
REMARK                            x       y       z     vdW  Elec       q    Type
REMARK                         _______ _______ _______ _____ _____    ______ ____
ROOT
ATOM      7  C   UNL     1      -0.264   0.415  23.976  0.00  0.00    +0.056 C 
ATOM      8  C   UNL     1       0.074   1.075  23.738  0.00  0.00    +0.078 C 
ATOM      9  N   UNL     1       0.371   0.311  23.637  0.00  0.00    -0.272 NA
ATOM     10  C   UNL     1      -0.320  -0.349  24.069  0.00  0.00    +0.072 C 
ATOM     11  C   UNL     1      -0.507  -0.956  24.221  0.00  0.00    +0.018 C 
ATOM     12  C   UNL     1       0.034  -0.331  23.874  0.00  0.00    +0.010 C 
ATOM     13  C   UNL     1       0.769  -0.624  23.494  0.00  0.00    +0.018 C 
ATOM     14  C   UNL     1       1.133  -0.001  23.244  0.00  0.00    +0.079 C 
ENDROOT
BRANCH   7   6
ATOM      1  C   UNL     1      -0.566   1.337  25.487  0.00  0.00    +0.153 C 
ATOM      2  N   UNL     1      -1.126   0.906  25.062  0.00  0.00    -0.253 N 
ATOM      3  N   UNL     1      -1.924   0.822  25.256  0.00  0.00    -0.174 NA
ATOM      4  C   UNL     1      -2.278   0.347  24.682  0.00  0.00    +0.079 A 
ATOM      5  C   UNL     1      -1.699   0.137  24.133  0.00  0.00    +0.031 A 
ATOM      6  C   UNL     1      -0.988   0.482  24.368  0.00  0.00    +0.058 A 
BRANCH   4  25
ATOM     25  C   UNL     1      -3.071   0.121  24.661  0.00  0.00    +0.042 C 
ATOM     26  C   UNL     1      -3.621   0.333  24.084  0.00  0.00    +0.006 C 
ATOM     27  C   UNL     1      -4.343  -0.013  24.281  0.00  0.00    +0.000 C 
ATOM     28  C   UNL     1      -4.240  -0.439  24.979  0.00  0.00    +0.000 C 
ATOM     29  C   UNL     1      -3.454  -0.356  25.215  0.00  0.00    +0.006 C 
ENDBRANCH   4  25
ENDBRANCH   7   6
BRANCH  14  15
ATOM     15  C   UNL     1       1.815   0.244  22.851  0.00  0.00    +0.133 C 
BRANCH  15  16
ATOM     16  N   UNL     1       2.552  -0.041  23.085  0.00  0.00    -0.187 NA
ATOM     17  C   UNL     1       3.236   0.382  22.898  0.00  0.00    +0.323 C 
ATOM     18  O   UNL     1       3.182   1.089  22.477  0.00  0.00    -0.251 OA
ATOM     19  N   UNL     1       3.973   0.096  23.132  0.00  0.00    -0.258 N 
ATOM     20  C   UNL     1       4.658   0.519  22.945  0.00  0.00    +0.127 C 
ATOM     21  C   UNL     1       5.395   0.233  23.180  0.00  0.00    +0.164 C 
ATOM     22  O   UNL     1       5.449  -0.474  23.601  0.00  0.00    -0.350 OA
ATOM     23  C   UNL     1       4.765  -0.896  23.788  0.00  0.00    +0.164 C 
ATOM     24  C   UNL     1       4.028  -0.611  23.554  0.00  0.00    +0.127 C 
ENDBRANCH  15  16
ENDBRANCH  14  15
TORSDOF 4
ENDMDL
