MODEL 1
REMARK VINA RESULT:     -12.3      0.000      0.000
REMARK  Name = 
REMARK  7 active torsions:
REMARK  status: ('A' for Active; 'I' for Inactive)
REMARK    1  A    between atoms: C_2  and  C_4
REMARK    2  A    between atoms: C_4  and  C_5
REMARK    3  A    between atoms: C_10  and  C_11
REMARK    4  A    between atoms: C_11  and  C_12
REMARK    5  A    between atoms: C_12  and  N_13
REMARK    6  A    between atoms: N_16  and  C_19
REMARK    7  A    between atoms: C_26  and  C_28
REMARK                            x       y       z     vdW  Elec       q    Type
REMARK                         _______ _______ _______ _____ _____    ______ ____
ROOT
ATOM      5  C   UNL     1      -4.081   3.576  25.248  0.00  0.00    +0.015 C 
ATOM      6  C   UNL     1      -3.867   4.370  25.315  0.00  0.00    +0.022 C 
ATOM      7  C   UNL     1      -3.069   4.582  25.334  0.00  0.00    +0.094 C 
ATOM      8  N   UNL     1      -2.486   3.999  25.287  0.00  0.00    -0.276 N 
ATOM      9  C   UNL     1      -2.702   3.205  25.221  0.00  0.00    +0.094 C 
ATOM     10  C   UNL     1      -3.499   2.994  25.202  0.00  0.00    +0.022 C 
ATOM     26  C   UNL     1      -1.690   4.209  25.307  0.00  0.00    +0.249 C 
ATOM     27  O   UNL     1      -1.475   5.004  25.373  0.00  0.00    -0.270 OA
ENDROOT
BRANCH  26  28
ATOM     28  C   UNL     1      -1.107   3.627  25.260  0.00  0.00    +0.054 A 
ATOM     29  C   UNL     1      -0.871   3.224  25.940  0.00  0.00    +0.005 A 
ATOM     30  C   UNL     1      -0.289   2.643  25.893  0.00  0.00    +0.000 A 
ATOM     31  C   UNL     1       0.058   2.463  25.166  0.00  0.00    +0.000 A 
ATOM     32  C   UNL     1      -0.178   2.866  24.486  0.00  0.00    +0.000 A 
ATOM     33  C   UNL     1      -0.762   3.449  24.533  0.00  0.00    +0.005 A 
ENDBRANCH  26  28
BRANCH   5   4
ATOM      4  C   UNL     1      -4.879   3.365  25.229  0.00  0.00    +0.114 C 
BRANCH   4   2
ATOM      1  O   UNL     1      -5.604   3.504  26.452  0.00  0.00    -0.246 OA
ATOM      2  C   UNL     1      -5.425   3.774  25.693  0.00  0.00    +0.365 C 
ATOM      3  O   UNL     1      -5.792   4.451  25.399  0.00  0.00    -0.246 OA
ENDBRANCH   4   2
ENDBRANCH   5   4
BRANCH  10  11
ATOM     11  C   UNL     1      -3.714   2.201  25.136  0.00  0.00    +0.019 C 
BRANCH  11  12
ATOM     12  C   UNL     1      -3.575   1.793  24.431  0.00  0.00    +0.072 C 
BRANCH  12  13
ATOM     13  N   UNL     1      -3.606   0.968  24.419  0.00  0.00    -0.270 NA
ATOM     14  C   UNL     1      -4.290   0.577  24.663  0.00  0.00    +0.094 C 
ATOM     15  C   UNL     1      -4.320  -0.247  24.651  0.00  0.00    +0.108 C 
ATOM     16  N   UNL     1      -3.667  -0.680  24.395  0.00  0.00    -0.305 N 
ATOM     17  C   UNL     1      -2.982  -0.290  24.151  0.00  0.00    +0.108 C 
ATOM     18  C   UNL     1      -2.952   0.535  24.163  0.00  0.00    +0.094 C 
BRANCH  16  19
ATOM     19  C   UNL     1      -3.696  -1.505  24.383  0.00  0.00    +0.048 A 
ATOM     20  C   UNL     1      -3.281  -1.940  24.948  0.00  0.00    +0.017 A 
ATOM     21  C   UNL     1      -3.311  -2.765  24.936  0.00  0.00    +0.031 A 
ATOM     22  C   UNL     1      -3.754  -3.153  24.360  0.00  0.00    +0.140 A 
ATOM     23  F   UNL     1      -3.784  -3.978  24.349  0.00  0.00    -0.204 F 
ATOM     24  C   UNL     1      -4.170  -2.718  23.796  0.00  0.00    +0.031 A 
ATOM     25  C   UNL     1      -4.140  -1.893  23.808  0.00  0.00    +0.017 A 
ENDBRANCH  16  19
ENDBRANCH  12  13
ENDBRANCH  11  12
ENDBRANCH  10  11
TORSDOF 7
ENDMDL
MODEL 2
REMARK VINA RESULT:     -11.1      3.079      4.935
REMARK  Name = 
REMARK  7 active torsions:
REMARK  status: ('A' for Active; 'I' for Inactive)
REMARK    1  A    between atoms: C_2  and  C_4
REMARK    2  A    between atoms: C_4  and  C_5
REMARK    3  A    between atoms: C_10  and  C_11
REMARK    4  A    between atoms: C_11  and  C_12
REMARK    5  A    between atoms: C_12  and  N_13
REMARK    6  A    between atoms: N_16  and  C_19
REMARK    7  A    between atoms: C_26  and  C_28
REMARK                            x       y       z     vdW  Elec       q    Type
REMARK                         _______ _______ _______ _____ _____    ______ ____
ROOT
ATOM      5  C   UNL     1      -3.584  -0.663  24.590  0.00  0.00    +0.015 C 
ATOM      6  C   UNL     1      -4.349  -0.606  24.894  0.00  0.00    +0.022 C 
ATOM      7  C   UNL     1      -4.690   0.135  25.013  0.00  0.00    +0.094 C 
ATOM      8  N   UNL     1      -4.267   0.820  24.829  0.00  0.00    -0.276 N 
ATOM      9  C   UNL     1      -3.502   0.761  24.525  0.00  0.00    +0.094 C 
ATOM     10  C   UNL     1      -3.161   0.020  24.406  0.00  0.00    +0.022 C 
ATOM     26  C   UNL     1      -4.608   1.560  24.948  0.00  0.00    +0.249 C 
ATOM     27  O   UNL     1      -5.373   1.619  25.252  0.00  0.00    -0.270 OA
ENDROOT
BRANCH  26  28
ATOM     28  C   UNL     1      -4.185   2.244  24.764  0.00  0.00    +0.054 A 
ATOM     29  C   UNL     1      -4.192   2.540  23.994  0.00  0.00    +0.005 A 
ATOM     30  C   UNL     1      -3.769   3.223  23.811  0.00  0.00    +0.000 A 
ATOM     31  C   UNL     1      -3.338   3.612  24.397  0.00  0.00    +0.000 A 
ATOM     32  C   UNL     1      -3.331   3.317  25.167  0.00  0.00    +0.000 A 
ATOM     33  C   UNL     1      -3.754   2.632  25.351  0.00  0.00    +0.005 A 
ENDBRANCH  26  28
BRANCH   5   4
ATOM      4  C   UNL     1      -3.242  -1.406  24.471  0.00  0.00    +0.114 C 
BRANCH   4   2
ATOM      1  O   UNL     1      -3.670  -2.492  25.294  0.00  0.00    -0.246 OA
ATOM      2  C   UNL     1      -3.694  -2.089  24.575  0.00  0.00    +0.365 C 
ATOM      3  O   UNL     1      -4.168  -2.368  23.961  0.00  0.00    -0.246 OA
ENDBRANCH   4   2
ENDBRANCH   5   4
BRANCH  10  11
ATOM     11  C   UNL     1      -2.396  -0.038  24.103  0.00  0.00    +0.019 C 
BRANCH  11  12
ATOM     12  C   UNL     1      -1.757   0.259  24.534  0.00  0.00    +0.072 C 
BRANCH  12  13
ATOM     13  N   UNL     1      -1.005   0.279  24.195  0.00  0.00    -0.270 NA
ATOM     14  C   UNL     1      -0.519  -0.388  24.228  0.00  0.00    +0.094 C 
ATOM     15  C   UNL     1       0.232  -0.368  23.889  0.00  0.00    +0.108 C 
ATOM     16  N   UNL     1       0.499   0.319  23.517  0.00  0.00    -0.305 N 
ATOM     17  C   UNL     1       0.014   0.985  23.483  0.00  0.00    +0.108 C 
ATOM     18  C   UNL     1      -0.739   0.965  23.823  0.00  0.00    +0.094 C 
BRANCH  16  19
ATOM     19  C   UNL     1       1.250   0.339  23.178  0.00  0.00    +0.048 A 
ATOM     20  C   UNL     1       1.818   0.866  23.465  0.00  0.00    +0.017 A 
ATOM     21  C   UNL     1       2.569   0.887  23.126  0.00  0.00    +0.031 A 
ATOM     22  C   UNL     1       2.754   0.382  22.502  0.00  0.00    +0.140 A 
ATOM     23  F   UNL     1       3.507   0.403  22.163  0.00  0.00    -0.204 F 
ATOM     24  C   UNL     1       2.188  -0.145  22.215  0.00  0.00    +0.031 A 
ATOM     25  C   UNL     1       1.435  -0.166  22.554  0.00  0.00    +0.017 A 
ENDBRANCH  16  19
ENDBRANCH  12  13
ENDBRANCH  11  12
ENDBRANCH  10  11
TORSDOF 7
ENDMDL
MODEL 3
REMARK VINA RESULT:     -10.8      1.006      3.075
REMARK  Name = 
REMARK  7 active torsions:
REMARK  status: ('A' for Active; 'I' for Inactive)
REMARK    1  A    between atoms: C_2  and  C_4
REMARK    2  A    between atoms: C_4  and  C_5
REMARK    3  A    between atoms: C_10  and  C_11
REMARK    4  A    between atoms: C_11  and  C_12
REMARK    5  A    between atoms: C_12  and  N_13
REMARK    6  A    between atoms: N_16  and  C_19
REMARK    7  A    between atoms: C_26  and  C_28
REMARK                            x       y       z     vdW  Elec       q    Type
REMARK                         _______ _______ _______ _____ _____    ______ ____
ROOT
ATOM      5  C   UNL     1      -1.901   3.452  25.020  0.00  0.00    +0.015 C 
ATOM      6  C   UNL     1      -2.184   4.185  25.272  0.00  0.00    +0.022 C 
ATOM      7  C   UNL     1      -2.989   4.289  25.415  0.00  0.00    +0.094 C 
ATOM      8  N   UNL     1      -3.513   3.660  25.306  0.00  0.00    -0.276 N 
ATOM      9  C   UNL     1      -3.229   2.927  25.054  0.00  0.00    +0.094 C 
ATOM     10  C   UNL     1      -2.424   2.823  24.911  0.00  0.00    +0.022 C 
ATOM     26  C   UNL     1      -4.318   3.764  25.449  0.00  0.00    +0.249 C 
ATOM     27  O   UNL     1      -4.601   4.497  25.701  0.00  0.00    -0.270 OA
ENDROOT
BRANCH  26  28
ATOM     28  C   UNL     1      -4.841   3.135  25.341  0.00  0.00    +0.054 A 
ATOM     29  C   UNL     1      -5.075   2.919  24.580  0.00  0.00    +0.005 A 
ATOM     30  C   UNL     1      -5.598   2.291  24.472  0.00  0.00    +0.000 A 
ATOM     31  C   UNL     1      -5.888   1.878  25.125  0.00  0.00    +0.000 A 
ATOM     32  C   UNL     1      -5.654   2.095  25.886  0.00  0.00    +0.000 A 
ATOM     33  C   UNL     1      -5.130   2.724  25.994  0.00  0.00    +0.005 A 
ENDBRANCH  26  28
BRANCH   5   4
ATOM      4  C   UNL     1      -1.094   3.347  24.877  0.00  0.00    +0.114 C 
BRANCH   4   2
ATOM      1  O   UNL     1      -0.437   4.274  24.010  0.00  0.00    -0.246 OA
ATOM      2  C   UNL     1      -0.606   4.004  24.771  0.00  0.00    +0.365 C 
ATOM      3  O   UNL     1      -0.288   4.391  25.426  0.00  0.00    -0.246 OA
ENDBRANCH   4   2
ENDBRANCH   5   4
BRANCH  10  11
ATOM     11  C   UNL     1      -2.141   2.091  24.660  0.00  0.00    +0.019 C 
BRANCH  11  12
ATOM     12  C   UNL     1      -2.044   1.477  25.204  0.00  0.00    +0.072 C 
BRANCH  12  13
ATOM     13  N   UNL     1      -2.335   0.724  25.031  0.00  0.00    -0.270 NA
ATOM     14  C   UNL     1      -2.423   0.484  24.247  0.00  0.00    +0.094 C 
ATOM     15  C   UNL     1      -2.713  -0.268  24.075  0.00  0.00    +0.108 C 
ATOM     16  N   UNL     1      -2.915  -0.782  24.687  0.00  0.00    -0.305 N 
ATOM     17  C   UNL     1      -2.827  -0.544  25.472  0.00  0.00    +0.108 C 
ATOM     18  C   UNL     1      -2.537   0.210  25.644  0.00  0.00    +0.094 C 
BRANCH  16  19
ATOM     19  C   UNL     1      -3.206  -1.535  24.516  0.00  0.00    +0.048 A 
ATOM     20  C   UNL     1      -3.888  -1.619  24.060  0.00  0.00    +0.017 A 
ATOM     21  C   UNL     1      -4.179  -2.372  23.888  0.00  0.00    +0.031 A 
ATOM     22  C   UNL     1      -3.788  -3.039  24.173  0.00  0.00    +0.140 A 
ATOM     23  F   UNL     1      -4.079  -3.793  24.001  0.00  0.00    -0.204 F 
ATOM     24  C   UNL     1      -3.106  -2.956  24.629  0.00  0.00    +0.031 A 
ATOM     25  C   UNL     1      -2.815  -2.202  24.801  0.00  0.00    +0.017 A 
ENDBRANCH  16  19
ENDBRANCH  12  13
ENDBRANCH  11  12
ENDBRANCH  10  11
TORSDOF 7
ENDMDL
MODEL 4
REMARK VINA RESULT:     -10.8      2.727      4.816
REMARK  Name = 
REMARK  7 active torsions:
REMARK  status: ('A' for Active; 'I' for Inactive)
REMARK    1  A    between atoms: C_2  and  C_4
REMARK    2  A    between atoms: C_4  and  C_5
REMARK    3  A    between atoms: C_10  and  C_11
REMARK    4  A    between atoms: C_11  and  C_12
REMARK    5  A    between atoms: C_12  and  N_13
REMARK    6  A    between atoms: N_16  and  C_19
REMARK    7  A    between atoms: C_26  and  C_28
REMARK                            x       y       z     vdW  Elec       q    Type
REMARK                         _______ _______ _______ _____ _____    ______ ____
ROOT
ATOM      5  C   UNL     1      -3.221   2.228  24.586  0.00  0.00    +0.015 C 
ATOM      6  C   UNL     1      -3.987   2.269  24.891  0.00  0.00    +0.022 C 
ATOM      7  C   UNL     1      -4.405   1.576  25.051  0.00  0.00    +0.094 C 
ATOM      8  N   UNL     1      -4.057   0.841  24.905  0.00  0.00    -0.276 N 
ATOM      9  C   UNL     1      -3.292   0.801  24.599  0.00  0.00    +0.094 C 
ATOM     10  C   UNL     1      -2.874   1.494  24.440  0.00  0.00    +0.022 C 
ATOM     26  C   UNL     1      -4.474   0.149  25.064  0.00  0.00    +0.249 C 
ATOM     27  O   UNL     1      -5.240   0.189  25.369  0.00  0.00    -0.270 OA
ENDROOT
BRANCH  26  28
ATOM     28  C   UNL     1      -4.128  -0.585  24.918  0.00  0.00    +0.054 A 
ATOM     29  C   UNL     1      -4.199  -0.936  24.175  0.00  0.00    +0.005 A 
ATOM     30  C   UNL     1      -3.852  -1.669  24.030  0.00  0.00    +0.000 A 
ATOM     31  C   UNL     1      -3.433  -2.054  24.628  0.00  0.00    +0.000 A 
ATOM     32  C   UNL     1      -3.362  -1.704  25.372  0.00  0.00    +0.000 A 
ATOM     33  C   UNL     1      -3.710  -0.969  25.517  0.00  0.00    +0.005 A 
ENDBRANCH  26  28
BRANCH   5   4
ATOM      4  C   UNL     1      -2.803   2.922  24.426  0.00  0.00    +0.114 C 
BRANCH   4   2
ATOM      1  O   UNL     1      -2.971   4.032  25.309  0.00  0.00    -0.246 OA
ATOM      2  C   UNL     1      -3.141   3.655  24.595  0.00  0.00    +0.365 C 
ATOM      3  O   UNL     1      -3.649   4.011  24.052  0.00  0.00    -0.246 OA
ENDBRANCH   4   2
ENDBRANCH   5   4
BRANCH  10  11
ATOM     11  C   UNL     1      -2.109   1.454  24.135  0.00  0.00    +0.019 C 
BRANCH  11  12
ATOM     12  C   UNL     1      -1.511   1.083  24.568  0.00  0.00    +0.072 C 
BRANCH  12  13
ATOM     13  N   UNL     1      -0.774   0.951  24.222  0.00  0.00    -0.270 NA
ATOM     14  C   UNL     1      -0.593   0.212  23.901  0.00  0.00    +0.094 C 
ATOM     15  C   UNL     1       0.144   0.081  23.556  0.00  0.00    +0.108 C 
ATOM     16  N   UNL     1       0.702   0.688  23.531  0.00  0.00    -0.305 N 
ATOM     17  C   UNL     1       0.523   1.427  23.852  0.00  0.00    +0.108 C 
ATOM     18  C   UNL     1      -0.216   1.558  24.198  0.00  0.00    +0.094 C 
BRANCH  16  19
ATOM     19  C   UNL     1       1.439   0.558  23.186  0.00  0.00    +0.048 A 
ATOM     20  C   UNL     1       2.089   1.013  23.417  0.00  0.00    +0.017 A 
ATOM     21  C   UNL     1       2.826   0.882  23.072  0.00  0.00    +0.031 A 
ATOM     22  C   UNL     1       2.915   0.298  22.497  0.00  0.00    +0.140 A 
ATOM     23  F   UNL     1       3.654   0.168  22.152  0.00  0.00    -0.204 F 
ATOM     24  C   UNL     1       2.267  -0.157  22.267  0.00  0.00    +0.031 A 
ATOM     25  C   UNL     1       1.528  -0.027  22.612  0.00  0.00    +0.017 A 
ENDBRANCH  16  19
ENDBRANCH  12  13
ENDBRANCH  11  12
ENDBRANCH  10  11
TORSDOF 7
ENDMDL
MODEL 5
REMARK VINA RESULT:     -10.5      3.023      5.086
REMARK  Name = 
REMARK  7 active torsions:
REMARK  status: ('A' for Active; 'I' for Inactive)
REMARK    1  A    between atoms: C_2  and  C_4
REMARK    2  A    between atoms: C_4  and  C_5
REMARK    3  A    between atoms: C_10  and  C_11
REMARK    4  A    between atoms: C_11  and  C_12
REMARK    5  A    between atoms: C_12  and  N_13
REMARK    6  A    between atoms: N_16  and  C_19
REMARK    7  A    between atoms: C_26  and  C_28
REMARK                            x       y       z     vdW  Elec       q    Type
REMARK                         _______ _______ _______ _____ _____    ______ ____
ROOT
ATOM      5  C   UNL     1      -2.792  -1.799  24.566  0.00  0.00    +0.015 C 
ATOM      6  C   UNL     1      -2.114  -2.257  24.464  0.00  0.00    +0.022 C 
ATOM      7  C   UNL     1      -1.370  -1.899  24.471  0.00  0.00    +0.094 C 
ATOM      8  N   UNL     1      -1.305  -1.084  24.581  0.00  0.00    -0.276 N 
ATOM      9  C   UNL     1      -1.984  -0.627  24.682  0.00  0.00    +0.094 C 
ATOM     10  C   UNL     1      -2.728  -0.984  24.675  0.00  0.00    +0.022 C 
ATOM     26  C   UNL     1      -0.563  -0.727  24.588  0.00  0.00    +0.249 C 
ATOM     27  O   UNL     1       0.117  -1.184  24.486  0.00  0.00    -0.270 OA
ENDROOT
BRANCH  26  28
ATOM     28  C   UNL     1      -0.497   0.088  24.697  0.00  0.00    +0.054 A 
ATOM     29  C   UNL     1      -0.579   0.412  25.452  0.00  0.00    +0.005 A 
ATOM     30  C   UNL     1      -0.514   1.226  25.560  0.00  0.00    +0.000 A 
ATOM     31  C   UNL     1      -0.367   1.719  24.915  0.00  0.00    +0.000 A 
ATOM     32  C   UNL     1      -0.285   1.395  24.160  0.00  0.00    +0.000 A 
ATOM     33  C   UNL     1      -0.350   0.580  24.051  0.00  0.00    +0.005 A 
ENDBRANCH  26  28
BRANCH   5   4
ATOM      4  C   UNL     1      -3.536  -2.157  24.558  0.00  0.00    +0.114 C 
BRANCH   4   2
ATOM      1  O   UNL     1      -3.539  -3.381  25.295  0.00  0.00    -0.246 OA
ATOM      2  C   UNL     1      -3.598  -2.979  24.577  0.00  0.00    +0.365 C 
ATOM      3  O   UNL     1      -3.719  -3.400  23.879  0.00  0.00    -0.246 OA
ENDBRANCH   4   2
ENDBRANCH   5   4
BRANCH  10  11
ATOM     11  C   UNL     1      -3.406  -0.527  24.777  0.00  0.00    +0.019 C 
BRANCH  11  12
ATOM     12  C   UNL     1      -3.618   0.031  24.205  0.00  0.00    +0.072 C 
BRANCH  12  13
ATOM     13  N   UNL     1      -3.984   0.735  24.432  0.00  0.00    -0.270 NA
ATOM     14  C   UNL     1      -4.473   0.751  25.096  0.00  0.00    +0.094 C 
ATOM     15  C   UNL     1      -4.838   1.455  25.322  0.00  0.00    +0.108 C 
ATOM     16  N   UNL     1      -4.715   2.143  24.884  0.00  0.00    -0.305 N 
ATOM     17  C   UNL     1      -4.226   2.127  24.220  0.00  0.00    +0.108 C 
ATOM     18  C   UNL     1      -3.860   1.423  23.993  0.00  0.00    +0.094 C 
BRANCH  16  19
ATOM     19  C   UNL     1      -5.081   2.847  25.109  0.00  0.00    +0.048 A 
ATOM     20  C   UNL     1      -4.669   3.561  25.054  0.00  0.00    +0.017 A 
ATOM     21  C   UNL     1      -5.035   4.265  25.279  0.00  0.00    +0.031 A 
ATOM     22  C   UNL     1      -5.809   4.257  25.560  0.00  0.00    +0.140 A 
ATOM     23  F   UNL     1      -6.175   4.962  25.785  0.00  0.00    -0.204 F 
ATOM     24  C   UNL     1      -6.221   3.544  25.615  0.00  0.00    +0.031 A 
ATOM     25  C   UNL     1      -5.855   2.839  25.390  0.00  0.00    +0.017 A 
ENDBRANCH  16  19
ENDBRANCH  12  13
ENDBRANCH  11  12
ENDBRANCH  10  11
TORSDOF 7
ENDMDL
MODEL 6
REMARK VINA RESULT:     -10.3      3.037      5.577
REMARK  Name = 
REMARK  7 active torsions:
REMARK  status: ('A' for Active; 'I' for Inactive)
REMARK    1  A    between atoms: C_2  and  C_4
REMARK    2  A    between atoms: C_4  and  C_5
REMARK    3  A    between atoms: C_10  and  C_11
REMARK    4  A    between atoms: C_11  and  C_12
REMARK    5  A    between atoms: C_12  and  N_13
REMARK    6  A    between atoms: N_16  and  C_19
REMARK    7  A    between atoms: C_26  and  C_28
REMARK                            x       y       z     vdW  Elec       q    Type
REMARK                         _______ _______ _______ _____ _____    ______ ____
ROOT
ATOM      5  C   UNL     1      -0.152   0.159  23.876  0.00  0.00    +0.015 C 
ATOM      6  C   UNL     1       0.170  -0.600  23.841  0.00  0.00    +0.022 C 
ATOM      7  C   UNL     1      -0.268  -1.246  24.109  0.00  0.00    +0.094 C 
ATOM      8  N   UNL     1      -1.027  -1.132  24.412  0.00  0.00    -0.276 N 
ATOM      9  C   UNL     1      -1.348  -0.373  24.446  0.00  0.00    +0.094 C 
ATOM     10  C   UNL     1      -0.910   0.273  24.178  0.00  0.00    +0.022 C 
ATOM     26  C   UNL     1      -1.465  -1.777  24.680  0.00  0.00    +0.249 C 
ATOM     27  O   UNL     1      -1.143  -2.537  24.646  0.00  0.00    -0.270 OA
ENDROOT
BRANCH  26  28
ATOM     28  C   UNL     1      -2.224  -1.665  24.982  0.00  0.00    +0.054 A 
ATOM     29  C   UNL     1      -2.325  -1.407  25.760  0.00  0.00    +0.005 A 
ATOM     30  C   UNL     1      -3.083  -1.295  26.061  0.00  0.00    +0.000 A 
ATOM     31  C   UNL     1      -3.743  -1.440  25.586  0.00  0.00    +0.000 A 
ATOM     32  C   UNL     1      -3.642  -1.698  24.809  0.00  0.00    +0.000 A 
ATOM     33  C   UNL     1      -2.882  -1.810  24.507  0.00  0.00    +0.005 A 
ENDBRANCH  26  28
BRANCH   5   4
ATOM      4  C   UNL     1       0.287   0.806  23.607  0.00  0.00    +0.114 C 
BRANCH   4   2
ATOM      1  O   UNL     1       1.655   1.080  23.913  0.00  0.00    -0.246 OA
ATOM      2  C   UNL     1       1.089   0.717  23.435  0.00  0.00    +0.365 C 
ATOM      3  O   UNL     1       1.325   0.266  22.787  0.00  0.00    -0.246 OA
ENDBRANCH   4   2
ENDBRANCH   5   4
BRANCH  10  11
ATOM     11  C   UNL     1      -1.231   1.031  24.212  0.00  0.00    +0.019 C 
BRANCH  11  12
ATOM     12  C   UNL     1      -1.863   1.234  23.720  0.00  0.00    +0.072 C 
BRANCH  12  13
ATOM     13  N   UNL     1      -2.488   1.684  24.017  0.00  0.00    -0.270 NA
ATOM     14  C   UNL     1      -2.392   2.118  24.712  0.00  0.00    +0.094 C 
ATOM     15  C   UNL     1      -3.016   2.568  25.008  0.00  0.00    +0.108 C 
ATOM     16  N   UNL     1      -3.738   2.584  24.609  0.00  0.00    -0.305 N 
ATOM     17  C   UNL     1      -3.836   2.150  23.914  0.00  0.00    +0.108 C 
ATOM     18  C   UNL     1      -3.210   1.700  23.618  0.00  0.00    +0.094 C 
BRANCH  16  19
ATOM     19  C   UNL     1      -4.364   3.033  24.905  0.00  0.00    +0.048 A 
ATOM     20  C   UNL     1      -4.329   3.858  24.874  0.00  0.00    +0.017 A 
ATOM     21  C   UNL     1      -4.955   4.307  25.170  0.00  0.00    +0.031 A 
ATOM     22  C   UNL     1      -5.613   3.934  25.496  0.00  0.00    +0.140 A 
ATOM     23  F   UNL     1      -6.239   4.384  25.791  0.00  0.00    -0.204 F 
ATOM     24  C   UNL     1      -5.648   3.110  25.527  0.00  0.00    +0.031 A 
ATOM     25  C   UNL     1      -5.022   2.660  25.231  0.00  0.00    +0.017 A 
ENDBRANCH  16  19
ENDBRANCH  12  13
ENDBRANCH  11  12
ENDBRANCH  10  11
TORSDOF 7
ENDMDL
