MODEL 1
REMARK VINA RESULT:      -8.5      0.000      0.000
REMARK  Name = 
REMARK  5 active torsions:
REMARK  status: ('A' for Active; 'I' for Inactive)
REMARK    1  A    between atoms: C_2  and  N_4
REMARK    2  A    between atoms: C_5  and  C_7
REMARK    3  A    between atoms: C_7  and  C_8
REMARK    4  A    between atoms: C_10  and  C_11
REMARK    5  A    between atoms: C_11  and  N_12
REMARK                            x       y       z     vdW  Elec       q    Type
REMARK                         _______ _______ _______ _____ _____    ______ ____
ROOT
ATOM      8  C   UNL     1      -4.308   3.031  25.406  0.00  0.00    +0.157 C 
ATOM      9  O   UNL     1      -4.012   2.285  25.215  0.00  0.00    -0.351 OA
ATOM     10  C   UNL     1      -4.651   1.797  25.030  0.00  0.00    +0.170 C 
ATOM     16  C   UNL     1      -5.341   2.241  25.107  0.00  0.00    +0.213 C 
ATOM     17  O   UNL     1      -6.110   1.970  24.974  0.00  0.00    -0.218 OA
ATOM     18  C   UNL     1      -5.130   3.004  25.339  0.00  0.00    +0.212 C 
ATOM     19  O   UNL     1      -5.649   3.630  25.480  0.00  0.00    -0.218 OA
ENDROOT
BRANCH   8   7
ATOM      7  C   UNL     1      -3.861   3.689  25.626  0.00  0.00    +0.119 C 
BRANCH   7   5
ATOM      4  N   UNL     1      -2.474   3.971  25.817  0.00  0.00    -0.207 NA
ATOM      5  C   UNL     1      -3.105   3.798  25.316  0.00  0.00    +0.244 C 
ATOM      6  O   UNL     1      -2.980   3.732  24.503  0.00  0.00    -0.273 OA
BRANCH   4   2
ATOM      1  C   UNL     1      -1.510   4.802  25.166  0.00  0.00    +0.023 C 
ATOM      2  C   UNL     1      -1.718   4.080  25.507  0.00  0.00    +0.095 C 
ATOM      3  C   UNL     1      -1.168   3.465  25.538  0.00  0.00    +0.023 C 
ENDBRANCH   4   2
ENDBRANCH   7   5
ENDBRANCH   8   7
BRANCH  10  11
ATOM     11  C   UNL     1      -4.606   1.004  24.808  0.00  0.00    +0.147 C 
BRANCH  11  12
ATOM     12  N   UNL     1      -4.143   0.478  25.244  0.00  0.00    -0.203 NA
ATOM     13  C   UNL     1      -4.042  -0.297  24.981  0.00  0.00    +0.242 C 
ATOM     14  C   UNL     1      -3.578  -0.823  25.417  0.00  0.00    +0.096 C 
ATOM     15  O   UNL     1      -4.402  -0.547  24.283  0.00  0.00    -0.273 OA
ENDBRANCH  11  12
ENDBRANCH  10  11
TORSDOF 5
ENDMDL
MODEL 2
REMARK VINA RESULT:      -8.2      0.688      3.623
REMARK  Name = 
REMARK  5 active torsions:
REMARK  status: ('A' for Active; 'I' for Inactive)
REMARK    1  A    between atoms: C_2  and  N_4
REMARK    2  A    between atoms: C_5  and  C_7
REMARK    3  A    between atoms: C_7  and  C_8
REMARK    4  A    between atoms: C_10  and  C_11
REMARK    5  A    between atoms: C_11  and  N_12
REMARK                            x       y       z     vdW  Elec       q    Type
REMARK                         _______ _______ _______ _____ _____    ______ ____
ROOT
ATOM      8  C   UNL     1      -4.698   1.784  25.048  0.00  0.00    +0.157 C 
ATOM      9  O   UNL     1      -3.930   2.084  25.038  0.00  0.00    -0.351 OA
ATOM     10  C   UNL     1      -3.971   2.896  25.182  0.00  0.00    +0.170 C 
ATOM     16  C   UNL     1      -4.765   3.096  25.280  0.00  0.00    +0.213 C 
ATOM     17  O   UNL     1      -5.058   3.852  25.435  0.00  0.00    -0.218 OA
ATOM     18  C   UNL     1      -5.215   2.410  25.198  0.00  0.00    +0.212 C 
ATOM     19  O   UNL     1      -6.036   2.358  25.255  0.00  0.00    -0.218 OA
ENDROOT
BRANCH   8   7
ATOM      7  C   UNL     1      -4.913   0.996  24.929  0.00  0.00    +0.119 C 
BRANCH   7   5
ATOM      4  N   UNL     1      -4.216  -0.202  25.272  0.00  0.00    -0.207 NA
ATOM      5  C   UNL     1      -4.337   0.432  24.759  0.00  0.00    +0.244 C 
ATOM      6  O   UNL     1      -3.882   0.501  24.074  0.00  0.00    -0.273 OA
BRANCH   4   2
ATOM      1  C   UNL     1      -2.917  -0.755  25.500  0.00  0.00    +0.023 C 
ATOM      2  C   UNL     1      -3.639  -0.767  25.101  0.00  0.00    +0.095 C 
ATOM      3  C   UNL     1      -3.785  -1.345  24.531  0.00  0.00    +0.023 C 
ENDBRANCH   4   2
ENDBRANCH   7   5
ENDBRANCH   8   7
BRANCH  10  11
ATOM     11  C   UNL     1      -3.331   3.414  25.220  0.00  0.00    +0.147 C 
BRANCH  11  12
ATOM     12  N   UNL     1      -2.585   3.135  25.433  0.00  0.00    -0.203 NA
ATOM     13  C   UNL     1      -1.941   3.649  25.451  0.00  0.00    +0.242 C 
ATOM     14  C   UNL     1      -1.195   3.369  25.665  0.00  0.00    +0.096 C 
ATOM     15  O   UNL     1      -2.042   4.444  25.255  0.00  0.00    -0.273 OA
ENDBRANCH  11  12
ENDBRANCH  10  11
TORSDOF 5
ENDMDL
MODEL 3
REMARK VINA RESULT:      -7.8      1.794      4.387
REMARK  Name = 
REMARK  5 active torsions:
REMARK  status: ('A' for Active; 'I' for Inactive)
REMARK    1  A    between atoms: C_2  and  N_4
REMARK    2  A    between atoms: C_5  and  C_7
REMARK    3  A    between atoms: C_7  and  C_8
REMARK    4  A    between atoms: C_10  and  C_11
REMARK    5  A    between atoms: C_11  and  N_12
REMARK                            x       y       z     vdW  Elec       q    Type
REMARK                         _______ _______ _______ _____ _____    ______ ____
ROOT
ATOM      8  C   UNL     1      -2.538   0.438  24.791  0.00  0.00    +0.157 C 
ATOM      9  O   UNL     1      -3.268   0.768  24.989  0.00  0.00    -0.351 OA
ATOM     10  C   UNL     1      -3.261   1.560  24.757  0.00  0.00    +0.170 C 
ATOM     16  C   UNL     1      -2.527   1.719  24.415  0.00  0.00    +0.213 C 
ATOM     17  O   UNL     1      -2.283   2.444  24.106  0.00  0.00    -0.218 OA
ATOM     18  C   UNL     1      -2.080   1.026  24.436  0.00  0.00    +0.212 C 
ATOM     19  O   UNL     1      -1.311   0.936  24.152  0.00  0.00    -0.218 OA
ENDROOT
BRANCH   8   7
ATOM      7  C   UNL     1      -2.306  -0.343  24.924  0.00  0.00    +0.119 C 
BRANCH   7   5
ATOM      4  N   UNL     1      -2.957  -1.469  24.336  0.00  0.00    -0.207 NA
ATOM      5  C   UNL     1      -2.872  -0.941  24.963  0.00  0.00    +0.244 C 
ATOM      6  O   UNL     1      -3.353  -1.011  25.629  0.00  0.00    -0.273 OA
BRANCH   4   2
ATOM      1  C   UNL     1      -3.395  -2.729  24.852  0.00  0.00    +0.023 C 
ATOM      2  C   UNL     1      -3.523  -2.068  24.374  0.00  0.00    +0.095 C 
ATOM      3  C   UNL     1      -4.219  -2.007  23.935  0.00  0.00    +0.023 C 
ENDBRANCH   4   2
ENDBRANCH   7   5
ENDBRANCH   8   7
BRANCH  10  11
ATOM     11  C   UNL     1      -3.880   2.097  24.850  0.00  0.00    +0.147 C 
BRANCH  11  12
ATOM     12  N   UNL     1      -4.654   1.826  24.930  0.00  0.00    -0.203 NA
ATOM     13  C   UNL     1      -5.264   2.359  25.086  0.00  0.00    +0.242 C 
ATOM     14  C   UNL     1      -6.039   2.087  25.166  0.00  0.00    +0.096 C 
ATOM     15  O   UNL     1      -5.100   3.163  25.161  0.00  0.00    -0.273 OA
ENDBRANCH  11  12
ENDBRANCH  10  11
TORSDOF 5
ENDMDL
MODEL 4
REMARK VINA RESULT:      -7.6      2.202      3.482
REMARK  Name = 
REMARK  5 active torsions:
REMARK  status: ('A' for Active; 'I' for Inactive)
REMARK    1  A    between atoms: C_2  and  N_4
REMARK    2  A    between atoms: C_5  and  C_7
REMARK    3  A    between atoms: C_7  and  C_8
REMARK    4  A    between atoms: C_10  and  C_11
REMARK    5  A    between atoms: C_11  and  N_12
REMARK                            x       y       z     vdW  Elec       q    Type
REMARK                         _______ _______ _______ _____ _____    ______ ____
ROOT
ATOM      8  C   UNL     1      -1.997   0.755  25.060  0.00  0.00    +0.157 C 
ATOM      9  O   UNL     1      -2.566   0.167  24.952  0.00  0.00    -0.351 OA
ATOM     10  C   UNL     1      -2.216  -0.561  25.119  0.00  0.00    +0.170 C 
ATOM     16  C   UNL     1      -1.431  -0.423  25.330  0.00  0.00    +0.213 C 
ATOM     17  O   UNL     1      -0.878  -0.999  25.542  0.00  0.00    -0.218 OA
ATOM     18  C   UNL     1      -1.295   0.389  25.294  0.00  0.00    +0.212 C 
ATOM     19  O   UNL     1      -0.582   0.770  25.462  0.00  0.00    -0.218 OA
ENDROOT
BRANCH   8   7
ATOM      7  C   UNL     1      -2.109   1.565  24.953  0.00  0.00    +0.119 C 
BRANCH   7   5
ATOM      4  N   UNL     1      -3.331   2.300  24.886  0.00  0.00    -0.207 NA
ATOM      5  C   UNL     1      -2.754   1.839  24.519  0.00  0.00    +0.244 C 
ATOM      6  O   UNL     1      -2.823   1.652  23.719  0.00  0.00    -0.273 OA
BRANCH   4   2
ATOM      1  C   UNL     1      -4.717   2.221  24.543  0.00  0.00    +0.023 C 
ATOM      2  C   UNL     1      -3.978   2.575  24.452  0.00  0.00    +0.095 C 
ATOM      3  C   UNL     1      -3.884   3.204  23.927  0.00  0.00    +0.023 C 
ENDBRANCH   4   2
ENDBRANCH   7   5
ENDBRANCH   8   7
BRANCH  10  11
ATOM     11  C   UNL     1      -2.587  -1.297  25.081  0.00  0.00    +0.147 C 
BRANCH  11  12
ATOM     12  N   UNL     1      -3.163  -1.440  24.508  0.00  0.00    -0.203 NA
ATOM     13  C   UNL     1      -3.592  -2.144  24.522  0.00  0.00    +0.242 C 
ATOM     14  C   UNL     1      -4.168  -2.288  23.949  0.00  0.00    +0.096 C 
ATOM     15  O   UNL     1      -3.446  -2.705  25.109  0.00  0.00    -0.273 OA
ENDBRANCH  11  12
ENDBRANCH  10  11
TORSDOF 5
ENDMDL
