MODEL 1
REMARK VINA RESULT:     -14.5      0.000      0.000
REMARK  Name = 
REMARK  3 active torsions:
REMARK  status: ('A' for Active; 'I' for Inactive)
REMARK    1  A    between atoms: N_9  and  S_11
REMARK    2  A    between atoms: S_11  and  C_14
REMARK    3  A    between atoms: C_22  and  C_23
REMARK                            x       y       z     vdW  Elec       q    Type
REMARK                         _______ _______ _______ _____ _____    ______ ____
ROOT
ATOM      1  O   UNL     1      -3.027   0.696  24.269  0.00  0.00    -0.267 OA
ATOM      2  C   UNL     1      -3.767   0.882  24.582  0.00  0.00    +0.261 A 
ATOM      3  N   UNL     1      -4.009   1.670  24.629  0.00  0.00    -0.299 N 
ATOM      4  C   UNL     1      -4.665   1.264  24.950  0.00  0.00    +0.110 C 
ATOM      5  C   UNL     1      -5.253   2.032  25.152  0.00  0.00    +0.041 C 
ATOM      6  C   UNL     1      -5.845   2.545  25.374  0.00  0.00    +0.011 C 
ATOM      7  C   UNL     1      -5.205   2.584  25.088  0.00  0.00    +0.056 C 
ATOM      8  C   UNL     1      -4.592   3.191  24.771  0.00  0.00    +0.102 C 
ATOM      9  N   UNL     1      -4.004   2.676  24.550  0.00  0.00    -0.155 NA
ATOM     10  C   UNL     1      -4.607   2.659  24.818  0.00  0.00    +0.098 C 
ATOM     19  C   UNL     1      -4.748   1.856  24.942  0.00  0.00    +0.041 A 
ATOM     20  C   UNL     1      -5.247   1.255  25.208  0.00  0.00    +0.013 A 
ATOM     21  C   UNL     1      -5.005   0.469  25.162  0.00  0.00    +0.006 A 
ATOM     22  C   UNL     1      -4.265   0.282  24.849  0.00  0.00    +0.058 A 
ENDROOT
BRANCH  22  23
ATOM     23  C   UNL     1      -4.024  -0.506  24.802  0.00  0.00    +0.024 A 
ATOM     24  C   UNL     1      -4.211  -0.956  24.136  0.00  0.00    +0.003 A 
ATOM     25  C   UNL     1      -3.970  -1.744  24.089  0.00  0.00    +0.021 A 
ATOM     26  C   UNL     1      -3.540  -2.081  24.708  0.00  0.00    +0.099 A 
ATOM     27  N   UNL     1      -3.353  -1.631  25.373  0.00  0.00    -0.242 NA
ATOM     28  C   UNL     1      -3.595  -0.843  25.420  0.00  0.00    +0.099 A 
ENDBRANCH  22  23
BRANCH   9  11
ATOM     11  S   UNL     1      -3.284   2.408  24.252  0.00  0.00    +0.069 S 
ATOM     12  O   UNL     1      -2.952   2.461  25.005  0.00  0.00    -0.152 OA
ATOM     13  O   UNL     1      -3.616   2.355  23.498  0.00  0.00    -0.152 OA
BRANCH  11  14
ATOM     14  C   UNL     1      -2.563   2.140  23.953  0.00  0.00    +0.152 A 
ATOM     15  C   UNL     1      -2.421   1.894  23.179  0.00  0.00    +0.027 A 
ATOM     16  C   UNL     1      -1.628   1.672  23.124  0.00  0.00    +0.009 A 
ATOM     17  C   UNL     1      -1.280   1.782  23.864  0.00  0.00    +0.037 A 
ATOM     18  S   UNL     1      -1.858   2.071  24.377  0.00  0.00    -0.067 S 
ENDBRANCH  11  14
ENDBRANCH   9  11
TORSDOF 3
ENDMDL
MODEL 2
REMARK VINA RESULT:     -14.1      1.416      3.548
REMARK  Name = 
REMARK  3 active torsions:
REMARK  status: ('A' for Active; 'I' for Inactive)
REMARK    1  A    between atoms: N_9  and  S_11
REMARK    2  A    between atoms: S_11  and  C_14
REMARK    3  A    between atoms: C_22  and  C_23
REMARK                            x       y       z     vdW  Elec       q    Type
REMARK                         _______ _______ _______ _____ _____    ______ ____
ROOT
ATOM      1  O   UNL     1      -2.631   0.527  24.884  0.00  0.00    -0.267 OA
ATOM      2  C   UNL     1      -3.140  -0.095  24.697  0.00  0.00    +0.261 A 
ATOM      3  N   UNL     1      -2.854  -0.868  24.666  0.00  0.00    -0.299 N 
ATOM      4  C   UNL     1      -3.661  -0.970  24.478  0.00  0.00    +0.110 C 
ATOM      5  C   UNL     1      -3.679  -1.951  24.355  0.00  0.00    +0.041 C 
ATOM      6  C   UNL     1      -3.859  -2.734  24.221  0.00  0.00    +0.011 C 
ATOM      7  C   UNL     1      -3.295  -2.353  24.390  0.00  0.00    +0.056 C 
ATOM      8  C   UNL     1      -2.398  -2.436  24.575  0.00  0.00    +0.102 C 
ATOM      9  N   UNL     1      -2.222  -1.654  24.708  0.00  0.00    -0.155 NA
ATOM     10  C   UNL     1      -2.742  -2.027  24.550  0.00  0.00    +0.098 C 
ATOM     19  C   UNL     1      -3.362  -1.489  24.480  0.00  0.00    +0.041 A 
ATOM     20  C   UNL     1      -4.158  -1.338  24.325  0.00  0.00    +0.013 A 
ATOM     21  C   UNL     1      -4.445  -0.566  24.356  0.00  0.00    +0.006 A 
ATOM     22  C   UNL     1      -3.936   0.056  24.542  0.00  0.00    +0.058 A 
ENDROOT
BRANCH  22  23
ATOM     23  C   UNL     1      -4.223   0.829  24.574  0.00  0.00    +0.024 A 
ATOM     24  C   UNL     1      -4.671   1.078  25.221  0.00  0.00    +0.003 A 
ATOM     25  C   UNL     1      -4.958   1.851  25.252  0.00  0.00    +0.021 A 
ATOM     26  C   UNL     1      -4.796   2.375  24.636  0.00  0.00    +0.099 A 
ATOM     27  N   UNL     1      -4.349   2.128  23.989  0.00  0.00    -0.242 NA
ATOM     28  C   UNL     1      -4.062   1.355  23.958  0.00  0.00    +0.099 A 
ENDBRANCH  22  23
BRANCH   9  11
ATOM     11  S   UNL     1      -1.781  -0.981  24.886  0.00  0.00    +0.069 S 
ATOM     12  O   UNL     1      -1.970  -1.067  25.685  0.00  0.00    -0.152 OA
ATOM     13  O   UNL     1      -1.591  -0.894  24.088  0.00  0.00    -0.152 OA
BRANCH  11  14
ATOM     14  C   UNL     1      -1.338  -0.307  25.064  0.00  0.00    +0.152 A 
ATOM     15  C   UNL     1      -1.271   0.046  25.806  0.00  0.00    +0.027 A 
ATOM     16  C   UNL     1      -0.777   0.703  25.732  0.00  0.00    +0.009 A 
ATOM     17  C   UNL     1      -0.540   0.755  24.943  0.00  0.00    +0.037 A 
ATOM     18  S   UNL     1      -0.887   0.131  24.530  0.00  0.00    -0.067 S 
ENDBRANCH  11  14
ENDBRANCH   9  11
TORSDOF 3
ENDMDL
MODEL 3
REMARK VINA RESULT:     -13.3      1.502      2.031
REMARK  Name = 
REMARK  3 active torsions:
REMARK  status: ('A' for Active; 'I' for Inactive)
REMARK    1  A    between atoms: N_9  and  S_11
REMARK    2  A    between atoms: S_11  and  C_14
REMARK    3  A    between atoms: C_22  and  C_23
REMARK                            x       y       z     vdW  Elec       q    Type
REMARK                         _______ _______ _______ _____ _____    ______ ____
ROOT
ATOM      1  O   UNL     1      -2.596   2.365  25.060  0.00  0.00    -0.267 OA
ATOM      2  C   UNL     1      -3.318   1.968  25.001  0.00  0.00    +0.261 A 
ATOM      3  N   UNL     1      -4.025   2.383  25.097  0.00  0.00    -0.299 N 
ATOM      4  C   UNL     1      -4.293   1.605  24.954  0.00  0.00    +0.110 C 
ATOM      5  C   UNL     1      -5.268   1.754  25.006  0.00  0.00    +0.041 C 
ATOM      6  C   UNL     1      -6.082   1.710  25.016  0.00  0.00    +0.011 C 
ATOM      7  C   UNL     1      -5.588   2.202  25.099  0.00  0.00    +0.056 C 
ATOM      8  C   UNL     1      -5.485   3.099  25.268  0.00  0.00    +0.102 C 
ATOM      9  N   UNL     1      -4.674   3.139  25.257  0.00  0.00    -0.155 NA
ATOM     10  C   UNL     1      -5.151   2.690  25.182  0.00  0.00    +0.098 C 
ATOM     19  C   UNL     1      -4.745   1.987  25.038  0.00  0.00    +0.041 A 
ATOM     20  C   UNL     1      -4.760   1.177  24.884  0.00  0.00    +0.013 A 
ATOM     21  C   UNL     1      -4.054   0.763  24.788  0.00  0.00    +0.006 A 
ATOM     22  C   UNL     1      -3.332   1.158  24.846  0.00  0.00    +0.058 A 
ENDROOT
BRANCH  22  23
ATOM     23  C   UNL     1      -2.625   0.744  24.751  0.00  0.00    +0.024 A 
ATOM     24  C   UNL     1      -2.288   0.349  25.393  0.00  0.00    +0.003 A 
ATOM     25  C   UNL     1      -1.581  -0.065  25.297  0.00  0.00    +0.021 A 
ATOM     26  C   UNL     1      -1.211  -0.085  24.559  0.00  0.00    +0.099 A 
ATOM     27  N   UNL     1      -1.548   0.309  23.918  0.00  0.00    -0.242 NA
ATOM     28  C   UNL     1      -2.255   0.724  24.014  0.00  0.00    +0.099 A 
ENDBRANCH  22  23
BRANCH   9  11
ATOM     11  S   UNL     1      -3.915   3.459  25.300  0.00  0.00    +0.069 S 
ATOM     12  O   UNL     1      -3.930   3.605  24.488  0.00  0.00    -0.152 OA
ATOM     13  O   UNL     1      -3.900   3.314  26.112  0.00  0.00    -0.152 OA
BRANCH  11  14
ATOM     14  C   UNL     1      -3.156   3.780  25.344  0.00  0.00    +0.152 A 
ATOM     15  C   UNL     1      -2.686   3.821  26.020  0.00  0.00    +0.027 A 
ATOM     16  C   UNL     1      -1.973   4.183  25.813  0.00  0.00    +0.009 A 
ATOM     17  C   UNL     1      -2.003   4.365  25.009  0.00  0.00    +0.037 A 
ATOM     18  S   UNL     1      -2.735   4.116  24.718  0.00  0.00    -0.067 S 
ENDBRANCH  11  14
ENDBRANCH   9  11
TORSDOF 3
ENDMDL
MODEL 4
REMARK VINA RESULT:     -13.0      1.423      2.943
REMARK  Name = 
REMARK  3 active torsions:
REMARK  status: ('A' for Active; 'I' for Inactive)
REMARK    1  A    between atoms: N_9  and  S_11
REMARK    2  A    between atoms: S_11  and  C_14
REMARK    3  A    between atoms: C_22  and  C_23
REMARK                            x       y       z     vdW  Elec       q    Type
REMARK                         _______ _______ _______ _____ _____    ______ ____
ROOT
ATOM      1  O   UNL     1      -2.661   0.070  24.686  0.00  0.00    -0.267 OA
ATOM      2  C   UNL     1      -2.984   0.830  24.692  0.00  0.00    +0.261 A 
ATOM      3  N   UNL     1      -3.798   0.931  24.780  0.00  0.00    -0.299 N 
ATOM      4  C   UNL     1      -3.528   1.719  24.718  0.00  0.00    +0.110 C 
ATOM      5  C   UNL     1      -4.389   2.196  24.796  0.00  0.00    +0.041 C 
ATOM      6  C   UNL     1      -5.003   2.730  24.844  0.00  0.00    +0.011 C 
ATOM      7  C   UNL     1      -4.918   2.033  24.862  0.00  0.00    +0.056 C 
ATOM      8  C   UNL     1      -5.393   1.251  24.947  0.00  0.00    +0.102 C 
ATOM      9  N   UNL     1      -4.779   0.722  24.899  0.00  0.00    -0.155 NA
ATOM     10  C   UNL     1      -4.877   1.374  24.884  0.00  0.00    +0.098 C 
ATOM     19  C   UNL     1      -4.121   1.689  24.786  0.00  0.00    +0.041 A 
ATOM     20  C   UNL     1      -3.631   2.347  24.704  0.00  0.00    +0.013 A 
ATOM     21  C   UNL     1      -2.817   2.246  24.617  0.00  0.00    +0.006 A 
ATOM     22  C   UNL     1      -2.494   1.488  24.610  0.00  0.00    +0.058 A 
ENDROOT
BRANCH  22  23
ATOM     23  C   UNL     1      -1.680   1.387  24.522  0.00  0.00    +0.024 A 
ATOM     24  C   UNL     1      -1.189   1.392  25.186  0.00  0.00    +0.003 A 
ATOM     25  C   UNL     1      -0.375   1.291  25.098  0.00  0.00    +0.021 A 
ATOM     26  C   UNL     1      -0.051   1.185  24.347  0.00  0.00    +0.099 A 
ATOM     27  N   UNL     1      -0.541   1.180  23.683  0.00  0.00    -0.242 NA
ATOM     28  C   UNL     1      -1.355   1.281  23.771  0.00  0.00    +0.099 A 
ENDBRANCH  22  23
BRANCH   9  11
ATOM     11  S   UNL     1      -4.380   0.001  24.882  0.00  0.00    +0.069 S 
ATOM     12  O   UNL     1      -4.461  -0.026  24.062  0.00  0.00    -0.152 OA
ATOM     13  O   UNL     1      -4.298   0.027  25.703  0.00  0.00    -0.152 OA
BRANCH  11  14
ATOM     14  C   UNL     1      -3.980  -0.721  24.866  0.00  0.00    +0.152 A 
ATOM     15  C   UNL     1      -3.617  -1.088  25.510  0.00  0.00    +0.027 A 
ATOM     16  C   UNL     1      -3.286  -1.796  25.245  0.00  0.00    +0.009 A 
ATOM     17  C   UNL     1      -3.445  -1.866  24.438  0.00  0.00    +0.037 A 
ATOM     18  S   UNL     1      -3.874  -1.201  24.204  0.00  0.00    -0.067 S 
ENDBRANCH  11  14
ENDBRANCH   9  11
TORSDOF 3
ENDMDL
MODEL 5
REMARK VINA RESULT:     -13.0      1.983      3.427
REMARK  Name = 
REMARK  3 active torsions:
REMARK  status: ('A' for Active; 'I' for Inactive)
REMARK    1  A    between atoms: N_9  and  S_11
REMARK    2  A    between atoms: S_11  and  C_14
REMARK    3  A    between atoms: C_22  and  C_23
REMARK                            x       y       z     vdW  Elec       q    Type
REMARK                         _______ _______ _______ _____ _____    ______ ____
ROOT
ATOM      1  O   UNL     1      -2.644   1.948  24.967  0.00  0.00    -0.267 OA
ATOM      2  C   UNL     1      -2.612   2.772  25.014  0.00  0.00    +0.261 A 
ATOM      3  N   UNL     1      -1.881   3.154  25.044  0.00  0.00    -0.299 N 
ATOM      4  C   UNL     1      -2.418   3.794  25.074  0.00  0.00    +0.110 C 
ATOM      5  C   UNL     1      -1.778   4.545  25.123  0.00  0.00    +0.041 C 
ATOM      6  C   UNL     1      -1.391   5.260  25.168  0.00  0.00    +0.011 C 
ATOM      7  C   UNL     1      -1.222   4.580  25.131  0.00  0.00    +0.056 C 
ATOM      8  C   UNL     1      -0.495   4.018  25.108  0.00  0.00    +0.102 C 
ATOM      9  N   UNL     1      -0.884   3.307  25.064  0.00  0.00    -0.155 NA
ATOM     10  C   UNL     1      -1.025   3.950  25.098  0.00  0.00    +0.098 C 
ATOM     19  C   UNL     1      -1.849   3.976  25.090  0.00  0.00    +0.041 A 
ATOM     20  C   UNL     1      -2.546   4.417  25.107  0.00  0.00    +0.013 A 
ATOM     21  C   UNL     1      -3.276   4.035  25.078  0.00  0.00    +0.006 A 
ATOM     22  C   UNL     1      -3.309   3.212  25.031  0.00  0.00    +0.058 A 
ENDROOT
BRANCH  22  23
ATOM     23  C   UNL     1      -4.039   2.829  25.001  0.00  0.00    +0.024 A 
ATOM     24  C   UNL     1      -4.463   2.693  25.697  0.00  0.00    +0.003 A 
ATOM     25  C   UNL     1      -5.193   2.311  25.667  0.00  0.00    +0.021 A 
ATOM     26  C   UNL     1      -5.500   2.064  24.942  0.00  0.00    +0.099 A 
ATOM     27  N   UNL     1      -5.077   2.199  24.247  0.00  0.00    -0.242 NA
ATOM     28  C   UNL     1      -4.347   2.582  24.277  0.00  0.00    +0.099 A 
ENDBRANCH  22  23
BRANCH   9  11
ATOM     11  S   UNL     1      -1.002   2.493  25.016  0.00  0.00    +0.069 S 
ATOM     12  O   UNL     1      -1.016   2.446  25.840  0.00  0.00    -0.152 OA
ATOM     13  O   UNL     1      -0.988   2.538  24.192  0.00  0.00    -0.152 OA
BRANCH  11  14
ATOM     14  C   UNL     1      -1.120   1.677  24.969  0.00  0.00    +0.152 A 
ATOM     15  C   UNL     1      -1.231   1.166  25.606  0.00  0.00    +0.027 A 
ATOM     16  C   UNL     1      -1.327   0.403  25.306  0.00  0.00    +0.009 A 
ATOM     17  C   UNL     1      -1.275   0.443  24.483  0.00  0.00    +0.037 A 
ATOM     18  S   UNL     1      -1.146   1.231  24.274  0.00  0.00    -0.067 S 
ENDBRANCH  11  14
ENDBRANCH   9  11
TORSDOF 3
ENDMDL
MODEL 6
REMARK VINA RESULT:     -13.0      1.558      3.337
REMARK  Name = 
REMARK  3 active torsions:
REMARK  status: ('A' for Active; 'I' for Inactive)
REMARK    1  A    between atoms: N_9  and  S_11
REMARK    2  A    between atoms: S_11  and  C_14
REMARK    3  A    between atoms: C_22  and  C_23
REMARK                            x       y       z     vdW  Elec       q    Type
REMARK                         _______ _______ _______ _____ _____    ______ ____
ROOT
ATOM      1  O   UNL     1      -2.456   1.801  24.654  0.00  0.00    -0.267 OA
ATOM      2  C   UNL     1      -2.387   1.013  24.892  0.00  0.00    +0.261 A 
ATOM      3  N   UNL     1      -3.046   0.517  24.871  0.00  0.00    -0.299 N 
ATOM      4  C   UNL     1      -2.450   0.008  25.159  0.00  0.00    +0.110 C 
ATOM      5  C   UNL     1      -2.977  -0.821  25.264  0.00  0.00    +0.041 C 
ATOM      6  C   UNL     1      -3.264  -1.571  25.405  0.00  0.00    +0.011 C 
ATOM      7  C   UNL     1      -3.510  -0.956  25.172  0.00  0.00    +0.056 C 
ATOM      8  C   UNL     1      -4.281  -0.555  24.873  0.00  0.00    +0.102 C 
ATOM      9  N   UNL     1      -3.991   0.191  24.733  0.00  0.00    -0.155 NA
ATOM     10  C   UNL     1      -3.777  -0.394  24.950  0.00  0.00    +0.098 C 
ATOM     19  C   UNL     1      -2.978  -0.269  25.109  0.00  0.00    +0.041 A 
ATOM     20  C   UNL     1      -2.251  -0.560  25.367  0.00  0.00    +0.013 A 
ATOM     21  C   UNL     1      -1.592  -0.065  25.388  0.00  0.00    +0.006 A 
ATOM     22  C   UNL     1      -1.660   0.722  25.151  0.00  0.00    +0.058 A 
ENDROOT
BRANCH  22  23
ATOM     23  C   UNL     1      -1.001   1.218  25.171  0.00  0.00    +0.024 A 
ATOM     24  C   UNL     1      -0.850   1.676  25.842  0.00  0.00    +0.003 A 
ATOM     25  C   UNL     1      -0.191   2.172  25.862  0.00  0.00    +0.021 A 
ATOM     26  C   UNL     1       0.317   2.210  25.213  0.00  0.00    +0.099 A 
ATOM     27  N   UNL     1       0.166   1.753  24.543  0.00  0.00    -0.242 NA
ATOM     28  C   UNL     1      -0.493   1.257  24.523  0.00  0.00    +0.099 A 
ENDBRANCH  22  23
BRANCH   9  11
ATOM     11  S   UNL     1      -3.977   0.985  24.514  0.00  0.00    +0.069 S 
ATOM     12  O   UNL     1      -3.767   0.770  23.746  0.00  0.00    -0.152 OA
ATOM     13  O   UNL     1      -4.187   1.202  25.282  0.00  0.00    -0.152 OA
BRANCH  11  14
ATOM     14  C   UNL     1      -3.962   1.781  24.294  0.00  0.00    +0.152 A 
ATOM     15  C   UNL     1      -3.732   2.076  23.559  0.00  0.00    +0.027 A 
ATOM     16  C   UNL     1      -3.803   2.898  23.582  0.00  0.00    +0.009 A 
ATOM     17  C   UNL     1      -4.077   3.110  24.332  0.00  0.00    +0.037 A 
ATOM     18  S   UNL     1      -4.175   2.419  24.772  0.00  0.00    -0.067 S 
ENDBRANCH  11  14
ENDBRANCH   9  11
TORSDOF 3
ENDMDL
