MODEL 1
REMARK VINA RESULT:     -12.7      0.000      0.000
REMARK  Name = 
REMARK  5 active torsions:
REMARK  status: ('A' for Active; 'I' for Inactive)
REMARK    1  A    between atoms: C_7  and  N_10
REMARK    2  A    between atoms: N_10  and  C_11
REMARK    3  A    between atoms: C_11  and  C_12
REMARK    4  A    between atoms: C_12  and  C_13
REMARK    5  A    between atoms: C_16  and  C_18
REMARK                            x       y       z     vdW  Elec       q    Type
REMARK                         _______ _______ _______ _____ _____    ______ ____
ROOT
ATOM     11  C   UNL     1      -4.062   2.419  24.850  0.00  0.00    +0.119 C 
ATOM     25  C   UNL     1      -4.444   3.081  25.160  0.00  0.00    +0.161 C 
ATOM     26  O   UNL     1      -5.053   2.988  24.612  0.00  0.00    -0.351 OA
ATOM     27  C   UNL     1      -4.671   2.325  24.301  0.00  0.00    +0.161 C 
ENDROOT
BRANCH  11  10
ATOM     10  N   UNL     1      -3.453   2.512  25.399  0.00  0.00    -0.217 NA
BRANCH  10   7
ATOM      1  C   UNL     1      -0.527   4.771  24.607  0.00  0.00    +0.095 C 
ATOM      2  C   UNL     1      -1.231   4.920  25.012  0.00  0.00    +0.226 C 
ATOM      3  O   UNL     1      -1.379   5.671  25.319  0.00  0.00    -0.275 OA
ATOM      4  N   UNL     1      -1.786   4.317  25.108  0.00  0.00    -0.279 N 
ATOM      5  C   UNL     1      -2.490   4.467  25.513  0.00  0.00    +0.095 C 
ATOM      6  C   UNL     1      -3.046   3.865  25.610  0.00  0.00    +0.039 C 
ATOM      7  C   UNL     1      -2.898   3.113  25.302  0.00  0.00    +0.076 C 
ATOM      8  C   UNL     1      -2.195   2.965  24.898  0.00  0.00    +0.039 C 
ATOM      9  C   UNL     1      -1.639   3.567  24.801  0.00  0.00    +0.095 C 
ENDBRANCH  10   7
ENDBRANCH  11  10
BRANCH  11  12
ATOM     12  C   UNL     1      -3.680   1.756  24.539  0.00  0.00    +0.070 C 
BRANCH  12  13
ATOM     13  C   UNL     1      -3.956   1.000  24.719  0.00  0.00    +0.102 A 
ATOM     14  N   UNL     1      -4.596   0.820  25.208  0.00  0.00    -0.081 NA
ATOM     15  O   UNL     1      -4.674  -0.001  25.233  0.00  0.00    -0.354 OA
ATOM     16  C   UNL     1      -4.083  -0.329  24.760  0.00  0.00    +0.177 A 
ATOM     17  C   UNL     1      -3.639   0.290  24.443  0.00  0.00    +0.058 A 
BRANCH  16  18
ATOM     18  C   UNL     1      -3.957  -1.133  24.628  0.00  0.00    +0.037 A 
ATOM     19  C   UNL     1      -3.512  -1.574  25.165  0.00  0.00    +0.005 A 
ATOM     20  C   UNL     1      -3.386  -2.379  25.032  0.00  0.00    +0.030 A 
ATOM     21  C   UNL     1      -3.705  -2.742  24.364  0.00  0.00    +0.140 A 
ATOM     22  F   UNL     1      -3.580  -3.546  24.231  0.00  0.00    -0.204 F 
ATOM     23  C   UNL     1      -4.150  -2.300  23.827  0.00  0.00    +0.030 A 
ATOM     24  C   UNL     1      -4.276  -1.496  23.960  0.00  0.00    +0.005 A 
ENDBRANCH  16  18
ENDBRANCH  12  13
ENDBRANCH  11  12
TORSDOF 5
ENDMDL
MODEL 2
REMARK VINA RESULT:     -12.0      2.150      5.410
REMARK  Name = 
REMARK  5 active torsions:
REMARK  status: ('A' for Active; 'I' for Inactive)
REMARK    1  A    between atoms: C_7  and  N_10
REMARK    2  A    between atoms: N_10  and  C_11
REMARK    3  A    between atoms: C_11  and  C_12
REMARK    4  A    between atoms: C_12  and  C_13
REMARK    5  A    between atoms: C_16  and  C_18
REMARK                            x       y       z     vdW  Elec       q    Type
REMARK                         _______ _______ _______ _____ _____    ______ ____
ROOT
ATOM     11  C   UNL     1      -4.576   1.392  25.006  0.00  0.00    +0.119 C 
ATOM     25  C   UNL     1      -5.052   0.915  25.480  0.00  0.00    +0.161 C 
ATOM     26  O   UNL     1      -5.704   1.390  25.305  0.00  0.00    -0.351 OA
ATOM     27  C   UNL     1      -5.226   1.868  24.829  0.00  0.00    +0.161 C 
ENDROOT
BRANCH  11  10
ATOM     10  N   UNL     1      -3.924   0.916  25.181  0.00  0.00    -0.217 NA
BRANCH  10   7
ATOM      1  C   UNL     1      -3.645  -2.830  24.761  0.00  0.00    +0.095 C 
ATOM      2  C   UNL     1      -3.878  -2.243  24.231  0.00  0.00    +0.226 C 
ATOM      3  O   UNL     1      -4.099  -2.446  23.463  0.00  0.00    -0.275 OA
ATOM      4  N   UNL     1      -3.889  -1.453  24.469  0.00  0.00    -0.279 N 
ATOM      5  C   UNL     1      -4.123  -0.866  23.938  0.00  0.00    +0.095 C 
ATOM      6  C   UNL     1      -4.134  -0.076  24.175  0.00  0.00    +0.039 C 
ATOM      7  C   UNL     1      -3.913   0.128  24.943  0.00  0.00    +0.076 C 
ATOM      8  C   UNL     1      -3.680  -0.460  25.474  0.00  0.00    +0.039 C 
ATOM      9  C   UNL     1      -3.668  -1.250  25.237  0.00  0.00    +0.095 C 
ENDBRANCH  10   7
ENDBRANCH  11  10
BRANCH  11  12
ATOM     12  C   UNL     1      -4.098   1.870  24.530  0.00  0.00    +0.070 C 
BRANCH  12  13
ATOM     13  C   UNL     1      -3.749   2.546  24.846  0.00  0.00    +0.102 A 
ATOM     14  N   UNL     1      -4.075   3.036  25.424  0.00  0.00    -0.081 NA
ATOM     15  O   UNL     1      -3.538   3.645  25.575  0.00  0.00    -0.354 OA
ATOM     16  C   UNL     1      -2.881   3.531  25.090  0.00  0.00    +0.177 A 
ATOM     17  C   UNL     1      -3.011   2.852  24.640  0.00  0.00    +0.058 A 
BRANCH  16  18
ATOM     18  C   UNL     1      -2.211   4.012  25.060  0.00  0.00    +0.037 A 
ATOM     19  C   UNL     1      -2.285   4.828  25.154  0.00  0.00    +0.005 A 
ATOM     20  C   UNL     1      -1.615   5.309  25.124  0.00  0.00    +0.030 A 
ATOM     21  C   UNL     1      -0.871   4.973  25.001  0.00  0.00    +0.140 A 
ATOM     22  F   UNL     1      -0.202   5.453  24.971  0.00  0.00    -0.204 F 
ATOM     23  C   UNL     1      -0.798   4.157  24.907  0.00  0.00    +0.030 A 
ATOM     24  C   UNL     1      -1.468   3.677  24.937  0.00  0.00    +0.005 A 
ENDBRANCH  16  18
ENDBRANCH  12  13
ENDBRANCH  11  12
TORSDOF 5
ENDMDL
MODEL 3
REMARK VINA RESULT:     -11.8      2.829      5.980
REMARK  Name = 
REMARK  5 active torsions:
REMARK  status: ('A' for Active; 'I' for Inactive)
REMARK    1  A    between atoms: C_7  and  N_10
REMARK    2  A    between atoms: N_10  and  C_11
REMARK    3  A    between atoms: C_11  and  C_12
REMARK    4  A    between atoms: C_12  and  C_13
REMARK    5  A    between atoms: C_16  and  C_18
REMARK                            x       y       z     vdW  Elec       q    Type
REMARK                         _______ _______ _______ _____ _____    ______ ____
ROOT
ATOM     11  C   UNL     1      -1.126   0.088  24.664  0.00  0.00    +0.119 C 
ATOM     25  C   UNL     1      -0.643  -0.579  24.700  0.00  0.00    +0.161 C 
ATOM     26  O   UNL     1      -0.127  -0.236  24.155  0.00  0.00    -0.351 OA
ATOM     27  C   UNL     1      -0.611   0.432  24.119  0.00  0.00    +0.161 C 
ENDROOT
BRANCH  11  10
ATOM     10  N   UNL     1      -1.642  -0.256  25.209  0.00  0.00    -0.217 NA
BRANCH  10   7
ATOM      1  C   UNL     1      -4.436  -2.389  23.818  0.00  0.00    +0.095 C 
ATOM      2  C   UNL     1      -3.755  -2.595  24.236  0.00  0.00    +0.226 C 
ATOM      3  O   UNL     1      -3.603  -3.387  24.410  0.00  0.00    -0.275 OA
ATOM      4  N   UNL     1      -3.227  -2.010  24.479  0.00  0.00    -0.279 N 
ATOM      5  C   UNL     1      -2.547  -2.217  24.897  0.00  0.00    +0.095 C 
ATOM      6  C   UNL     1      -2.018  -1.632  25.140  0.00  0.00    +0.039 C 
ATOM      7  C   UNL     1      -2.170  -0.840  24.966  0.00  0.00    +0.076 C 
ATOM      8  C   UNL     1      -2.850  -0.634  24.548  0.00  0.00    +0.039 C 
ATOM      9  C   UNL     1      -3.379  -1.219  24.304  0.00  0.00    +0.095 C 
ENDBRANCH  10   7
ENDBRANCH  11  10
BRANCH  11  12
ATOM     12  C   UNL     1      -1.610   0.756  24.628  0.00  0.00    +0.070 C 
BRANCH  12  13
ATOM     13  C   UNL     1      -1.369   1.458  24.988  0.00  0.00    +0.102 A 
ATOM     14  N   UNL     1      -0.868   1.523  25.640  0.00  0.00    -0.081 NA
ATOM     15  O   UNL     1      -0.777   2.325  25.813  0.00  0.00    -0.354 OA
ATOM     16  C   UNL     1      -1.222   2.756  25.267  0.00  0.00    +0.177 A 
ATOM     17  C   UNL     1      -1.588   2.220  24.758  0.00  0.00    +0.058 A 
BRANCH  16  18
ATOM     18  C   UNL     1      -1.289   3.577  25.237  0.00  0.00    +0.037 A 
ATOM     19  C   UNL     1      -1.964   3.947  25.535  0.00  0.00    +0.005 A 
ATOM     20  C   UNL     1      -2.031   4.768  25.505  0.00  0.00    +0.030 A 
ATOM     21  C   UNL     1      -1.424   5.220  25.177  0.00  0.00    +0.140 A 
ATOM     22  F   UNL     1      -1.491   6.042  25.146  0.00  0.00    -0.204 F 
ATOM     23  C   UNL     1      -0.750   4.851  24.879  0.00  0.00    +0.030 A 
ATOM     24  C   UNL     1      -0.683   4.029  24.909  0.00  0.00    +0.005 A 
ENDBRANCH  16  18
ENDBRANCH  12  13
ENDBRANCH  11  12
TORSDOF 5
ENDMDL
MODEL 4
REMARK VINA RESULT:     -11.2      1.795      2.273
REMARK  Name = 
REMARK  5 active torsions:
REMARK  status: ('A' for Active; 'I' for Inactive)
REMARK    1  A    between atoms: C_7  and  N_10
REMARK    2  A    between atoms: N_10  and  C_11
REMARK    3  A    between atoms: C_11  and  C_12
REMARK    4  A    between atoms: C_12  and  C_13
REMARK    5  A    between atoms: C_16  and  C_18
REMARK                            x       y       z     vdW  Elec       q    Type
REMARK                         _______ _______ _______ _____ _____    ______ ____
ROOT
ATOM     11  C   UNL     1      -0.904   1.326  24.854  0.00  0.00    +0.119 C 
ATOM     25  C   UNL     1      -0.096   1.486  24.902  0.00  0.00    +0.161 C 
ATOM     26  O   UNL     1       0.040   0.996  24.252  0.00  0.00    -0.351 OA
ATOM     27  C   UNL     1      -0.768   0.836  24.203  0.00  0.00    +0.161 C 
ENDROOT
BRANCH  11  10
ATOM     10  N   UNL     1      -1.040   1.815  25.504  0.00  0.00    -0.217 NA
BRANCH  10   7
ATOM      1  C   UNL     1      -2.021   5.454  25.197  0.00  0.00    +0.095 C 
ATOM      2  C   UNL     1      -1.294   5.079  25.091  0.00  0.00    +0.226 C 
ATOM      3  O   UNL     1      -0.630   5.521  24.881  0.00  0.00    -0.275 OA
ATOM      4  N   UNL     1      -1.231   4.263  25.194  0.00  0.00    -0.279 N 
ATOM      5  C   UNL     1      -0.503   3.890  25.088  0.00  0.00    +0.095 C 
ATOM      6  C   UNL     1      -0.439   3.073  25.191  0.00  0.00    +0.039 C 
ATOM      7  C   UNL     1      -1.103   2.631  25.400  0.00  0.00    +0.076 C 
ATOM      8  C   UNL     1      -1.831   3.005  25.507  0.00  0.00    +0.039 C 
ATOM      9  C   UNL     1      -1.895   3.821  25.404  0.00  0.00    +0.095 C 
ENDBRANCH  10   7
ENDBRANCH  11  10
BRANCH  11  12
ATOM     12  C   UNL     1      -1.712   1.165  24.805  0.00  0.00    +0.070 C 
BRANCH  12  13
ATOM     13  C   UNL     1      -1.991   0.406  24.962  0.00  0.00    +0.102 A 
ATOM     14  N   UNL     1      -1.787  -0.063  25.610  0.00  0.00    -0.081 NA
ATOM     15  O   UNL     1      -2.194  -0.778  25.546  0.00  0.00    -0.354 OA
ATOM     16  C   UNL     1      -2.650  -0.752  24.859  0.00  0.00    +0.177 A 
ATOM     17  C   UNL     1      -2.525  -0.021  24.498  0.00  0.00    +0.058 A 
BRANCH  16  18
ATOM     18  C   UNL     1      -3.145  -1.351  24.581  0.00  0.00    +0.037 A 
ATOM     19  C   UNL     1      -2.957  -2.141  24.729  0.00  0.00    +0.005 A 
ATOM     20  C   UNL     1      -3.451  -2.740  24.452  0.00  0.00    +0.030 A 
ATOM     21  C   UNL     1      -4.132  -2.550  24.027  0.00  0.00    +0.140 A 
ATOM     22  F   UNL     1      -4.627  -3.149  23.749  0.00  0.00    -0.204 F 
ATOM     23  C   UNL     1      -4.319  -1.760  23.879  0.00  0.00    +0.030 A 
ATOM     24  C   UNL     1      -3.825  -1.161  24.157  0.00  0.00    +0.005 A 
ENDBRANCH  16  18
ENDBRANCH  12  13
ENDBRANCH  11  12
TORSDOF 5
ENDMDL
