MODEL 1
REMARK VINA RESULT:      -9.8      0.000      0.000
REMARK  Name = 
REMARK  5 active torsions:
REMARK  status: ('A' for Active; 'I' for Inactive)
REMARK    1  A    between atoms: O_2  and  C_3
REMARK    2  A    between atoms: C_6  and  C_9
REMARK    3  A    between atoms: C_18  and  N_26
REMARK    4  A    between atoms: C_27  and  C_29
REMARK    5  A    between atoms: C_29  and  S_30
REMARK                            x       y       z     vdW  Elec       q    Type
REMARK                         _______ _______ _______ _____ _____    ______ ____
ROOT
ATOM      9  C   UNL     1      -3.305   0.711  24.926  0.00  0.00    +0.000 A 
ATOM     10  C   UNL     1      -3.296  -0.017  25.312  0.00  0.00    +0.001 A 
ATOM     11  C   UNL     1      -2.638  -0.511  25.246  0.00  0.00    +0.017 A 
ATOM     12  C   UNL     1      -1.989  -0.276  24.794  0.00  0.00    +0.078 A 
ATOM     13  N   UNL     1      -1.394  -0.847  24.801  0.00  0.00    -0.178 NA
ATOM     14  C   UNL     1      -0.661  -0.830  24.423  0.00  0.00    +0.264 C 
ATOM     15  O   UNL     1      -0.184  -1.492  24.539  0.00  0.00    -0.271 OA
ATOM     16  C   UNL     1      -0.342  -0.238  23.945  0.00  0.00    +0.156 C 
ATOM     17  C   UNL     1       0.411  -0.441  23.675  0.00  0.00    +0.051 C 
ATOM     18  C   UNL     1       0.828   0.077  23.187  0.00  0.00    +0.099 C 
ATOM     19  C   UNL     1       0.492   0.798  22.969  0.00  0.00    +0.043 C 
ATOM     20  C   UNL     1      -0.260   1.001  23.238  0.00  0.00    +0.096 C 
ATOM     21  N   UNL     1      -0.678   0.483  23.727  0.00  0.00    -0.269 N 
ATOM     22  C   UNL     1      -1.415   0.791  23.932  0.00  0.00    +0.251 C 
ATOM     23  O   UNL     1      -1.592   1.534  23.622  0.00  0.00    -0.270 OA
ATOM     24  C   UNL     1      -1.999   0.453  24.408  0.00  0.00    +0.069 A 
ATOM     25  C   UNL     1      -2.656   0.946  24.473  0.00  0.00    +0.006 A 
ENDROOT
BRANCH   9   6
ATOM      3  C   UNL     1      -5.279   2.192  25.122  0.00  0.00    +0.139 A 
ATOM      4  C   UNL     1      -5.374   1.406  24.888  0.00  0.00    +0.037 A 
ATOM      5  C   UNL     1      -4.716   0.913  24.823  0.00  0.00    +0.003 A 
ATOM      6  C   UNL     1      -3.963   1.204  24.991  0.00  0.00    +0.000 A 
ATOM      7  C   UNL     1      -3.868   1.990  25.225  0.00  0.00    +0.003 A 
ATOM      8  C   UNL     1      -4.526   2.484  25.291  0.00  0.00    +0.037 A 
BRANCH   3   2
ATOM      1  C   UNL     1      -5.888   3.381  25.629  0.00  0.00    +0.252 C 
ATOM      2  O   UNL     1      -5.937   2.685  25.188  0.00  0.00    -0.471 OA
ENDBRANCH   3   2
ENDBRANCH   9   6
BRANCH  18  26
ATOM     26  N   UNL     1       1.581  -0.126  22.918  0.00  0.00    -0.206 NA
ATOM     27  C   UNL     1       2.215   0.387  23.040  0.00  0.00    +0.252 C 
ATOM     28  O   UNL     1       2.096   1.103  23.431  0.00  0.00    -0.272 OA
BRANCH  27  29
ATOM     29  C   UNL     1       2.968   0.184  22.770  0.00  0.00    +0.144 C 
BRANCH  29  30
ATOM     30  S   UNL     1       3.580   0.736  22.800  0.00  0.00    -0.130 S 
ATOM     31  C   UNL     1       4.364   0.484  22.785  0.00  0.00    +0.070 C 
ENDBRANCH  29  30
ENDBRANCH  27  29
ENDBRANCH  18  26
TORSDOF 5
ENDMDL
MODEL 2
REMARK VINA RESULT:      -8.7      2.190      6.006
REMARK  Name = 
REMARK  5 active torsions:
REMARK  status: ('A' for Active; 'I' for Inactive)
REMARK    1  A    between atoms: O_2  and  C_3
REMARK    2  A    between atoms: C_6  and  C_9
REMARK    3  A    between atoms: C_18  and  N_26
REMARK    4  A    between atoms: C_27  and  C_29
REMARK    5  A    between atoms: C_29  and  S_30
REMARK                            x       y       z     vdW  Elec       q    Type
REMARK                         _______ _______ _______ _____ _____    ______ ____
ROOT
ATOM      9  C   UNL     1       0.362   0.062  23.597  0.00  0.00    +0.000 A 
ATOM     10  C   UNL     1       0.193  -0.610  24.045  0.00  0.00    +0.001 A 
ATOM     11  C   UNL     1      -0.542  -0.688  24.411  0.00  0.00    +0.017 A 
ATOM     12  C   UNL     1      -1.108  -0.094  24.330  0.00  0.00    +0.078 A 
ATOM     13  N   UNL     1      -1.800  -0.280  24.739  0.00  0.00    -0.178 NA
ATOM     14  C   UNL     1      -2.495   0.160  24.800  0.00  0.00    +0.264 C 
ATOM     15  O   UNL     1      -3.095  -0.179  25.252  0.00  0.00    -0.271 OA
ATOM     16  C   UNL     1      -2.670   0.895  24.468  0.00  0.00    +0.156 C 
ATOM     17  C   UNL     1      -3.432   1.142  24.666  0.00  0.00    +0.051 C 
ATOM     18  C   UNL     1      -3.716   1.866  24.389  0.00  0.00    +0.099 C 
ATOM     19  C   UNL     1      -3.238   2.341  23.914  0.00  0.00    +0.043 C 
ATOM     20  C   UNL     1      -2.477   2.094  23.716  0.00  0.00    +0.096 C 
ATOM     21  N   UNL     1      -2.192   1.371  23.993  0.00  0.00    -0.269 N 
ATOM     22  C   UNL     1      -1.423   1.230  23.732  0.00  0.00    +0.251 C 
ATOM     23  O   UNL     1      -1.091   1.819  23.259  0.00  0.00    -0.270 OA
ATOM     24  C   UNL     1      -0.940   0.578  23.883  0.00  0.00    +0.069 A 
ATOM     25  C   UNL     1      -0.205   0.656  23.516  0.00  0.00    +0.006 A 
ENDROOT
BRANCH   9   6
ATOM      3  C   UNL     1       2.566   0.297  22.497  0.00  0.00    +0.139 A 
ATOM      4  C   UNL     1       2.399   0.727  23.182  0.00  0.00    +0.037 A 
ATOM      5  C   UNL     1       1.664   0.648  23.548  0.00  0.00    +0.003 A 
ATOM      6  C   UNL     1       1.096   0.140  23.230  0.00  0.00    +0.000 A 
ATOM      7  C   UNL     1       1.264  -0.289  22.546  0.00  0.00    +0.003 A 
ATOM      8  C   UNL     1       1.999  -0.210  22.179  0.00  0.00    +0.037 A 
BRANCH   3   2
ATOM      1  C   UNL     1       3.954   0.632  22.566  0.00  0.00    +0.252 C 
ATOM      2  O   UNL     1       3.301   0.376  22.130  0.00  0.00    -0.471 OA
ENDBRANCH   3   2
ENDBRANCH   9   6
BRANCH  18  26
ATOM     26  N   UNL     1      -4.478   2.112  24.586  0.00  0.00    -0.206 NA
ATOM     27  C   UNL     1      -4.585   2.736  25.116  0.00  0.00    +0.252 C 
ATOM     28  O   UNL     1      -3.930   3.112  25.447  0.00  0.00    -0.272 OA
BRANCH  27  29
ATOM     29  C   UNL     1      -5.347   2.983  25.314  0.00  0.00    +0.144 C 
BRANCH  29  30
ATOM     30  S   UNL     1      -5.460   3.706  25.694  0.00  0.00    -0.130 S 
ATOM     31  C   UNL     1      -6.200   4.071  25.674  0.00  0.00    +0.070 C 
ENDBRANCH  29  30
ENDBRANCH  27  29
ENDBRANCH  18  26
TORSDOF 5
ENDMDL
MODEL 3
REMARK VINA RESULT:      -8.4      1.319      2.001
REMARK  Name = 
REMARK  5 active torsions:
REMARK  status: ('A' for Active; 'I' for Inactive)
REMARK    1  A    between atoms: O_2  and  C_3
REMARK    2  A    between atoms: C_6  and  C_9
REMARK    3  A    between atoms: C_18  and  N_26
REMARK    4  A    between atoms: C_27  and  C_29
REMARK    5  A    between atoms: C_29  and  S_30
REMARK                            x       y       z     vdW  Elec       q    Type
REMARK                         _______ _______ _______ _____ _____    ______ ____
ROOT
ATOM      9  C   UNL     1      -3.303   2.609  24.863  0.00  0.00    +0.000 A 
ATOM     10  C   UNL     1      -2.979   3.368  24.869  0.00  0.00    +0.001 A 
ATOM     11  C   UNL     1      -2.176   3.475  24.713  0.00  0.00    +0.017 A 
ATOM     12  C   UNL     1      -1.697   2.823  24.552  0.00  0.00    +0.078 A 
ATOM     13  N   UNL     1      -0.916   3.051  24.413  0.00  0.00    -0.178 NA
ATOM     14  C   UNL     1      -0.266   2.576  24.233  0.00  0.00    +0.264 C 
ATOM     15  O   UNL     1       0.448   2.973  24.124  0.00  0.00    -0.271 OA
ATOM     16  C   UNL     1      -0.236   1.756  24.148  0.00  0.00    +0.156 C 
ATOM     17  C   UNL     1       0.526   1.499  23.966  0.00  0.00    +0.051 C 
ATOM     18  C   UNL     1       0.676   0.695  23.857  0.00  0.00    +0.099 C 
ATOM     19  C   UNL     1       0.064   0.148  23.931  0.00  0.00    +0.043 C 
ATOM     20  C   UNL     1      -0.699   0.405  24.113  0.00  0.00    +0.096 C 
ATOM     21  N   UNL     1      -0.849   1.209  24.221  0.00  0.00    -0.269 N 
ATOM     22  C   UNL     1      -1.643   1.346  24.398  0.00  0.00    +0.251 C 
ATOM     23  O   UNL     1      -2.123   0.676  24.433  0.00  0.00    -0.270 OA
ATOM     24  C   UNL     1      -2.020   2.065  24.546  0.00  0.00    +0.069 A 
ATOM     25  C   UNL     1      -2.823   1.957  24.701  0.00  0.00    +0.006 A 
ENDROOT
BRANCH   9   6
ATOM      3  C   UNL     1      -5.712   2.285  25.328  0.00  0.00    +0.139 A 
ATOM      4  C   UNL     1      -5.369   1.932  24.666  0.00  0.00    +0.037 A 
ATOM      5  C   UNL     1      -4.566   2.040  24.511  0.00  0.00    +0.003 A 
ATOM      6  C   UNL     1      -4.105   2.502  25.018  0.00  0.00    +0.000 A 
ATOM      7  C   UNL     1      -4.450   2.855  25.679  0.00  0.00    +0.003 A 
ATOM      8  C   UNL     1      -5.253   2.747  25.834  0.00  0.00    +0.037 A 
BRANCH   3   2
ATOM      1  C   UNL     1      -6.760   1.907  26.223  0.00  0.00    +0.252 C 
ATOM      2  O   UNL     1      -6.516   2.177  25.483  0.00  0.00    -0.471 OA
ENDBRANCH   3   2
ENDBRANCH   9   6
BRANCH  18  26
ATOM     26  N   UNL     1       1.439   0.439  23.675  0.00  0.00    -0.206 NA
ATOM     27  C   UNL     1       1.608   0.150  22.921  0.00  0.00    +0.252 C 
ATOM     28  O   UNL     1       1.015   0.118  22.350  0.00  0.00    -0.272 OA
BRANCH  27  29
ATOM     29  C   UNL     1       2.370  -0.107  22.739  0.00  0.00    +0.144 C 
BRANCH  29  30
ATOM     30  S   UNL     1       2.889   0.393  22.337  0.00  0.00    -0.130 S 
ATOM     31  C   UNL     1       3.704   0.282  22.402  0.00  0.00    +0.070 C 
ENDBRANCH  29  30
ENDBRANCH  27  29
ENDBRANCH  18  26
TORSDOF 5
ENDMDL
MODEL 4
REMARK VINA RESULT:      -7.7      1.995      2.659
REMARK  Name = 
REMARK  5 active torsions:
REMARK  status: ('A' for Active; 'I' for Inactive)
REMARK    1  A    between atoms: O_2  and  C_3
REMARK    2  A    between atoms: C_6  and  C_9
REMARK    3  A    between atoms: C_18  and  N_26
REMARK    4  A    between atoms: C_27  and  C_29
REMARK    5  A    between atoms: C_29  and  S_30
REMARK                            x       y       z     vdW  Elec       q    Type
REMARK                         _______ _______ _______ _____ _____    ______ ____
ROOT
ATOM      9  C   UNL     1      -2.110  -0.056  24.411  0.00  0.00    +0.000 A 
ATOM     10  C   UNL     1      -2.146   0.628  24.871  0.00  0.00    +0.001 A 
ATOM     11  C   UNL     1      -1.490   1.126  24.923  0.00  0.00    +0.017 A 
ATOM     12  C   UNL     1      -0.798   0.940  24.515  0.00  0.00    +0.078 A 
ATOM     13  N   UNL     1      -0.212   1.507  24.641  0.00  0.00    -0.178 NA
ATOM     14  C   UNL     1       0.555   1.531  24.338  0.00  0.00    +0.264 C 
ATOM     15  O   UNL     1       1.011   2.177  24.570  0.00  0.00    -0.271 OA
ATOM     16  C   UNL     1       0.926   0.993  23.835  0.00  0.00    +0.156 C 
ATOM     17  C   UNL     1       1.699   1.223  23.664  0.00  0.00    +0.051 C 
ATOM     18  C   UNL     1       2.168   0.760  23.168  0.00  0.00    +0.099 C 
ATOM     19  C   UNL     1       1.864   0.066  22.843  0.00  0.00    +0.043 C 
ATOM     20  C   UNL     1       1.090  -0.165  23.014  0.00  0.00    +0.096 C 
ATOM     21  N   UNL     1       0.621   0.299  23.510  0.00  0.00    -0.269 N 
ATOM     22  C   UNL     1      -0.129  -0.029  23.608  0.00  0.00    +0.251 C 
ATOM     23  O   UNL     1      -0.267  -0.736  23.205  0.00  0.00    -0.270 OA
ATOM     24  C   UNL     1      -0.761   0.256  24.055  0.00  0.00    +0.069 A 
ATOM     25  C   UNL     1      -1.416  -0.241  24.003  0.00  0.00    +0.006 A 
ENDROOT
BRANCH   9   6
ATOM      3  C   UNL     1      -4.076  -1.550  24.254  0.00  0.00    +0.139 A 
ATOM      4  C   UNL     1      -4.084  -0.816  23.876  0.00  0.00    +0.037 A 
ATOM      5  C   UNL     1      -3.428  -0.318  23.928  0.00  0.00    +0.003 A 
ATOM      6  C   UNL     1      -2.765  -0.554  24.359  0.00  0.00    +0.000 A 
ATOM      7  C   UNL     1      -2.758  -1.287  24.737  0.00  0.00    +0.003 A 
ATOM      8  C   UNL     1      -3.414  -1.785  24.685  0.00  0.00    +0.037 A 
BRANCH   3   2
ATOM      1  C   UNL     1      -4.685  -2.747  23.767  0.00  0.00    +0.252 C 
ATOM      2  O   UNL     1      -4.732  -2.048  24.202  0.00  0.00    -0.471 OA
ENDBRANCH   3   2
ENDBRANCH   9   6
BRANCH  18  26
ATOM     26  N   UNL     1       2.942   0.990  22.998  0.00  0.00    -0.206 NA
ATOM     27  C   UNL     1       3.562   0.454  23.088  0.00  0.00    +0.252 C 
ATOM     28  O   UNL     1       3.408  -0.313  23.349  0.00  0.00    -0.272 OA
BRANCH  27  29
ATOM     29  C   UNL     1       4.335   0.684  22.917  0.00  0.00    +0.144 C 
BRANCH  29  30
ATOM     30  S   UNL     1       4.966   0.191  23.114  0.00  0.00    -0.130 S 
ATOM     31  C   UNL     1       5.645   0.507  23.459  0.00  0.00    +0.070 C 
ENDBRANCH  29  30
ENDBRANCH  27  29
ENDBRANCH  18  26
TORSDOF 5
ENDMDL
MODEL 5
REMARK VINA RESULT:      -7.6     14.483     15.253
REMARK  Name = 
REMARK  5 active torsions:
REMARK  status: ('A' for Active; 'I' for Inactive)
REMARK    1  A    between atoms: O_2  and  C_3
REMARK    2  A    between atoms: C_6  and  C_9
REMARK    3  A    between atoms: C_18  and  N_26
REMARK    4  A    between atoms: C_27  and  C_29
REMARK    5  A    between atoms: C_29  and  S_30
REMARK                            x       y       z     vdW  Elec       q    Type
REMARK                         _______ _______ _______ _____ _____    ______ ____
ROOT
ATOM      9  C   UNL     1      -4.822 -10.680  16.809  0.00  0.00    +0.000 A 
ATOM     10  C   UNL     1      -4.010 -10.751  16.936  0.00  0.00    +0.001 A 
ATOM     11  C   UNL     1      -3.490 -10.744  16.296  0.00  0.00    +0.017 A 
ATOM     12  C   UNL     1      -3.782 -10.667  15.528  0.00  0.00    +0.078 A 
ATOM     13  N   UNL     1      -3.172 -10.673  14.973  0.00  0.00    -0.178 NA
ATOM     14  C   UNL     1      -3.224 -10.610  14.152  0.00  0.00    +0.264 C 
ATOM     15  O   UNL     1      -2.507 -10.634  13.745  0.00  0.00    -0.271 OA
ATOM     16  C   UNL     1      -3.899 -10.525  13.684  0.00  0.00    +0.156 C 
ATOM     17  C   UNL     1      -3.707 -10.482  12.883  0.00  0.00    +0.051 C 
ATOM     18  C   UNL     1      -4.303 -10.396  12.319  0.00  0.00    +0.099 C 
ATOM     19  C   UNL     1      -5.092 -10.354  12.557  0.00  0.00    +0.043 C 
ATOM     20  C   UNL     1      -5.284 -10.397  13.358  0.00  0.00    +0.096 C 
ATOM     21  N   UNL     1      -4.687 -10.483  13.922  0.00  0.00    -0.269 N 
ATOM     22  C   UNL     1      -4.996 -10.514  14.686  0.00  0.00    +0.251 C 
ATOM     23  O   UNL     1      -5.818 -10.457  14.742  0.00  0.00    -0.270 OA
ATOM     24  C   UNL     1      -4.593 -10.596  15.402  0.00  0.00    +0.069 A 
ATOM     25  C   UNL     1      -5.113 -10.603  16.041  0.00  0.00    +0.006 A 
ENDROOT
BRANCH   9   6
ATOM      3  C   UNL     1      -6.384 -10.701  18.729  0.00  0.00    +0.139 A 
ATOM      4  C   UNL     1      -6.674 -10.777  17.960  0.00  0.00    +0.037 A 
ATOM      5  C   UNL     1      -6.153 -10.770  17.320  0.00  0.00    +0.003 A 
ATOM      6  C   UNL     1      -5.342 -10.687  17.449  0.00  0.00    +0.000 A 
ATOM      7  C   UNL     1      -5.053 -10.612  18.218  0.00  0.00    +0.003 A 
ATOM      8  C   UNL     1      -5.574 -10.619  18.858  0.00  0.00    +0.037 A 
BRANCH   3   2
ATOM      1  C   UNL     1      -7.716 -10.781  19.238  0.00  0.00    +0.252 C 
ATOM      2  O   UNL     1      -6.905 -10.708  19.369  0.00  0.00    -0.471 OA
ENDBRANCH   3   2
ENDBRANCH   9   6
BRANCH  18  26
ATOM     26  N   UNL     1      -4.111 -10.353  11.519  0.00  0.00    -0.206 NA
ATOM     27  C   UNL     1      -4.212  -9.645  11.107  0.00  0.00    +0.252 C 
ATOM     28  O   UNL     1      -4.505  -8.980  11.498  0.00  0.00    -0.272 OA
BRANCH  27  29
ATOM     29  C   UNL     1      -4.020  -9.602  10.307  0.00  0.00    +0.144 C 
BRANCH  29  30
ATOM     30  S   UNL     1      -4.144  -8.901   9.889  0.00  0.00    -0.130 S 
ATOM     31  C   UNL     1      -4.032  -8.882   9.073  0.00  0.00    +0.070 C 
ENDBRANCH  29  30
ENDBRANCH  27  29
ENDBRANCH  18  26
TORSDOF 5
ENDMDL
MODEL 6
REMARK VINA RESULT:      -7.1     13.862     14.432
REMARK  Name = 
REMARK  5 active torsions:
REMARK  status: ('A' for Active; 'I' for Inactive)
REMARK    1  A    between atoms: O_2  and  C_3
REMARK    2  A    between atoms: C_6  and  C_9
REMARK    3  A    between atoms: C_18  and  N_26
REMARK    4  A    between atoms: C_27  and  C_29
REMARK    5  A    between atoms: C_29  and  S_30
REMARK                            x       y       z     vdW  Elec       q    Type
REMARK                         _______ _______ _______ _____ _____    ______ ____
ROOT
ATOM      9  C   UNL     1      -6.849 -10.162  17.463  0.00  0.00    +0.000 A 
ATOM     10  C   UNL     1      -6.337 -10.259  18.102  0.00  0.00    +0.001 A 
ATOM     11  C   UNL     1      -5.534 -10.393  17.970  0.00  0.00    +0.017 A 
ATOM     12  C   UNL     1      -5.242 -10.430  17.200  0.00  0.00    +0.078 A 
ATOM     13  N   UNL     1      -4.429 -10.567  17.192  0.00  0.00    -0.178 NA
ATOM     14  C   UNL     1      -3.926 -10.641  16.542  0.00  0.00    +0.264 C 
ATOM     15  O   UNL     1      -3.132 -10.779  16.717  0.00  0.00    -0.271 OA
ATOM     16  C   UNL     1      -4.112 -10.596  15.739  0.00  0.00    +0.156 C 
ATOM     17  C   UNL     1      -3.444 -10.701  15.268  0.00  0.00    +0.051 C 
ATOM     18  C   UNL     1      -3.510 -10.676  14.446  0.00  0.00    +0.099 C 
ATOM     19  C   UNL     1      -4.246 -10.545  14.096  0.00  0.00    +0.043 C 
ATOM     20  C   UNL     1      -4.914 -10.440  14.567  0.00  0.00    +0.096 C 
ATOM     21  N   UNL     1      -4.848 -10.465  15.389  0.00  0.00    -0.269 N 
ATOM     22  C   UNL     1      -5.578 -10.348  15.754  0.00  0.00    +0.251 C 
ATOM     23  O   UNL     1      -6.217 -10.231  15.246  0.00  0.00    -0.270 OA
ATOM     24  C   UNL     1      -5.754 -10.332  16.561  0.00  0.00    +0.069 A 
ATOM     25  C   UNL     1      -6.556 -10.198  16.691  0.00  0.00    +0.006 A 
ENDROOT
BRANCH   9   6
ATOM      3  C   UNL     1      -9.260  -9.760  17.855  0.00  0.00    +0.139 A 
ATOM      4  C   UNL     1      -8.946 -10.518  17.951  0.00  0.00    +0.037 A 
ATOM      5  C   UNL     1      -8.143 -10.652  17.820  0.00  0.00    +0.003 A 
ATOM      6  C   UNL     1      -7.652 -10.028  17.593  0.00  0.00    +0.000 A 
ATOM      7  C   UNL     1      -7.966  -9.270  17.498  0.00  0.00    +0.003 A 
ATOM      8  C   UNL     1      -8.769  -9.137  17.629  0.00  0.00    +0.037 A 
BRANCH   3   2
ATOM      1  C   UNL     1     -10.612  -9.812  17.399  0.00  0.00    +0.252 C 
ATOM      2  O   UNL     1     -10.063  -9.627  17.986  0.00  0.00    -0.471 OA
ENDBRANCH   3   2
ENDBRANCH   9   6
BRANCH  18  26
ATOM     26  N   UNL     1      -2.842 -10.781  13.975  0.00  0.00    -0.206 NA
ATOM     27  C   UNL     1      -2.820 -10.466  13.213  0.00  0.00    +0.252 C 
ATOM     28  O   UNL     1      -3.467 -10.045  12.923  0.00  0.00    -0.272 OA
BRANCH  27  29
ATOM     29  C   UNL     1      -2.152 -10.571  12.741  0.00  0.00    +0.144 C 
BRANCH  29  30
ATOM     30  S   UNL     1      -2.078 -10.158  12.031  0.00  0.00    -0.130 S 
ATOM     31  C   UNL     1      -1.369 -10.182  11.611  0.00  0.00    +0.070 C 
ENDBRANCH  29  30
ENDBRANCH  27  29
ENDBRANCH  18  26
TORSDOF 5
ENDMDL
MODEL 7
REMARK VINA RESULT:      -7.0      3.085      4.634
REMARK  Name = 
REMARK  5 active torsions:
REMARK  status: ('A' for Active; 'I' for Inactive)
REMARK    1  A    between atoms: O_2  and  C_3
REMARK    2  A    between atoms: C_6  and  C_9
REMARK    3  A    between atoms: C_18  and  N_26
REMARK    4  A    between atoms: C_27  and  C_29
REMARK    5  A    between atoms: C_29  and  S_30
REMARK                            x       y       z     vdW  Elec       q    Type
REMARK                         _______ _______ _______ _____ _____    ______ ____
ROOT
ATOM      9  C   UNL     1      -4.020  -0.548  24.622  0.00  0.00    +0.000 A 
ATOM     10  C   UNL     1      -4.760  -0.185  24.629  0.00  0.00    +0.001 A 
ATOM     11  C   UNL     1      -4.820   0.628  24.752  0.00  0.00    +0.017 A 
ATOM     12  C   UNL     1      -4.139   1.079  24.869  0.00  0.00    +0.078 A 
ATOM     13  N   UNL     1      -4.321   1.876  24.981  0.00  0.00    -0.178 NA
ATOM     14  C   UNL     1      -3.807   2.506  25.115  0.00  0.00    +0.264 C 
ATOM     15  O   UNL     1      -4.162   3.245  25.206  0.00  0.00    -0.271 OA
ATOM     16  C   UNL     1      -2.983   2.497  25.169  0.00  0.00    +0.156 C 
ATOM     17  C   UNL     1      -2.681   3.251  25.308  0.00  0.00    +0.051 C 
ATOM     18  C   UNL     1      -1.867   3.363  25.381  0.00  0.00    +0.099 C 
ATOM     19  C   UNL     1      -1.355   2.719  25.315  0.00  0.00    +0.043 C 
ATOM     20  C   UNL     1      -1.657   1.965  25.177  0.00  0.00    +0.096 C 
ATOM     21  N   UNL     1      -2.472   1.853  25.104  0.00  0.00    -0.269 N 
ATOM     22  C   UNL     1      -2.656   1.061  24.967  0.00  0.00    +0.251 C 
ATOM     23  O   UNL     1      -2.014   0.545  24.930  0.00  0.00    -0.270 OA
ATOM     24  C   UNL     1      -3.399   0.716  24.863  0.00  0.00    +0.069 A 
ATOM     25  C   UNL     1      -3.339  -0.097  24.740  0.00  0.00    +0.006 A 
ENDROOT
BRANCH   9   6
ATOM      3  C   UNL     1      -3.839  -2.989  24.253  0.00  0.00    +0.139 A 
ATOM      4  C   UNL     1      -4.213  -2.513  23.691  0.00  0.00    +0.037 A 
ATOM      5  C   UNL     1      -4.273  -1.699  23.814  0.00  0.00    +0.003 A 
ATOM      6  C   UNL     1      -3.960  -1.361  24.499  0.00  0.00    +0.000 A 
ATOM      7  C   UNL     1      -3.587  -1.838  25.061  0.00  0.00    +0.003 A 
ATOM      8  C   UNL     1      -3.527  -2.652  24.937  0.00  0.00    +0.037 A 
BRANCH   3   2
ATOM      1  C   UNL     1      -3.130  -4.111  23.725  0.00  0.00    +0.252 C 
ATOM      2  O   UNL     1      -3.779  -3.803  24.129  0.00  0.00    -0.471 OA
ENDBRANCH   3   2
ENDBRANCH   9   6
BRANCH  18  26
ATOM     26  N   UNL     1      -1.565   4.118  25.520  0.00  0.00    -0.206 NA
ATOM     27  C   UNL     1      -1.048   4.462  24.976  0.00  0.00    +0.252 C 
ATOM     28  O   UNL     1      -0.835   4.051  24.294  0.00  0.00    -0.272 OA
BRANCH  27  29
ATOM     29  C   UNL     1      -0.746   5.217  25.115  0.00  0.00    +0.144 C 
BRANCH  29  30
ATOM     30  S   UNL     1      -0.935   5.837  24.604  0.00  0.00    -0.130 S 
ATOM     31  C   UNL     1      -1.381   6.474  24.877  0.00  0.00    +0.070 C 
ENDBRANCH  29  30
ENDBRANCH  27  29
ENDBRANCH  18  26
TORSDOF 5
ENDMDL
MODEL 8
REMARK VINA RESULT:      -6.8      3.110      4.662
REMARK  Name = 
REMARK  5 active torsions:
REMARK  status: ('A' for Active; 'I' for Inactive)
REMARK    1  A    between atoms: O_2  and  C_3
REMARK    2  A    between atoms: C_6  and  C_9
REMARK    3  A    between atoms: C_18  and  N_26
REMARK    4  A    between atoms: C_27  and  C_29
REMARK    5  A    between atoms: C_29  and  S_30
REMARK                            x       y       z     vdW  Elec       q    Type
REMARK                         _______ _______ _______ _____ _____    ______ ____
ROOT
ATOM      9  C   UNL     1      -1.028   2.949  25.313  0.00  0.00    +0.000 A 
ATOM     10  C   UNL     1      -0.308   2.615  25.537  0.00  0.00    +0.001 A 
ATOM     11  C   UNL     1      -0.243   1.797  25.625  0.00  0.00    +0.017 A 
ATOM     12  C   UNL     1      -0.897   1.314  25.490  0.00  0.00    +0.078 A 
ATOM     13  N   UNL     1      -0.713   0.518  25.608  0.00  0.00    -0.178 NA
ATOM     14  C   UNL     1      -1.205  -0.140  25.532  0.00  0.00    +0.264 C 
ATOM     15  O   UNL     1      -0.854  -0.869  25.690  0.00  0.00    -0.271 OA
ATOM     16  C   UNL     1      -2.002  -0.165  25.318  0.00  0.00    +0.156 C 
ATOM     17  C   UNL     1      -2.287  -0.939  25.307  0.00  0.00    +0.051 C 
ATOM     18  C   UNL     1      -3.074  -1.086  25.107  0.00  0.00    +0.099 C 
ATOM     19  C   UNL     1      -3.575  -0.459  24.917  0.00  0.00    +0.043 C 
ATOM     20  C   UNL     1      -3.290   0.315  24.927  0.00  0.00    +0.096 C 
ATOM     21  N   UNL     1      -2.503   0.462  25.128  0.00  0.00    -0.269 N 
ATOM     22  C   UNL     1      -2.332   1.269  25.104  0.00  0.00    +0.251 C 
ATOM     23  O   UNL     1      -2.958   1.762  24.892  0.00  0.00    -0.270 OA
ATOM     24  C   UNL     1      -1.617   1.648  25.266  0.00  0.00    +0.069 A 
ATOM     25  C   UNL     1      -1.683   2.465  25.177  0.00  0.00    +0.006 A 
ENDROOT
BRANCH   9   6
ATOM      3  C   UNL     1      -1.225   5.402  25.047  0.00  0.00    +0.139 A 
ATOM      4  C   UNL     1      -0.608   4.995  24.679  0.00  0.00    +0.037 A 
ATOM      5  C   UNL     1      -0.543   4.178  24.768  0.00  0.00    +0.003 A 
ATOM      6  C   UNL     1      -1.094   3.766  25.225  0.00  0.00    +0.000 A 
ATOM      7  C   UNL     1      -1.711   4.173  25.592  0.00  0.00    +0.003 A 
ATOM      8  C   UNL     1      -1.776   4.991  25.503  0.00  0.00    +0.037 A 
BRANCH   3   2
ATOM      1  C   UNL     1      -1.972   6.544  24.625  0.00  0.00    +0.252 C 
ATOM      2  O   UNL     1      -1.291   6.220  24.958  0.00  0.00    -0.471 OA
ENDBRANCH   3   2
ENDBRANCH   9   6
BRANCH  18  26
ATOM     26  N   UNL     1      -3.359  -1.860  25.096  0.00  0.00    -0.206 NA
ATOM     27  C   UNL     1      -3.641  -2.186  24.393  0.00  0.00    +0.252 C 
ATOM     28  O   UNL     1      -3.637  -1.738  23.700  0.00  0.00    -0.272 OA
BRANCH  27  29
ATOM     29  C   UNL     1      -3.926  -2.960  24.382  0.00  0.00    +0.144 C 
BRANCH  29  30
ATOM     30  S   UNL     1      -4.206  -3.287  23.679  0.00  0.00    -0.130 S 
ATOM     31  C   UNL     1      -4.226  -4.106  23.583  0.00  0.00    +0.070 C 
ENDBRANCH  29  30
ENDBRANCH  27  29
ENDBRANCH  18  26
TORSDOF 5
ENDMDL
MODEL 9
REMARK VINA RESULT:      -6.7     16.783     17.897
REMARK  Name = 
REMARK  5 active torsions:
REMARK  status: ('A' for Active; 'I' for Inactive)
REMARK    1  A    between atoms: O_2  and  C_3
REMARK    2  A    between atoms: C_6  and  C_9
REMARK    3  A    between atoms: C_18  and  N_26
REMARK    4  A    between atoms: C_27  and  C_29
REMARK    5  A    between atoms: C_29  and  S_30
REMARK                            x       y       z     vdW  Elec       q    Type
REMARK                         _______ _______ _______ _____ _____    ______ ____
ROOT
ATOM      9  C   UNL     1      -3.167 -10.367  12.004  0.00  0.00    +0.000 A 
ATOM     10  C   UNL     1      -2.788 -10.728  11.367  0.00  0.00    +0.001 A 
ATOM     11  C   UNL     1      -3.102 -10.660  10.608  0.00  0.00    +0.017 A 
ATOM     12  C   UNL     1      -3.796 -10.232  10.485  0.00  0.00    +0.078 A 
ATOM     13  N   UNL     1      -4.014 -10.233   9.689  0.00  0.00    -0.178 NA
ATOM     14  C   UNL     1      -4.667  -9.874   9.335  0.00  0.00    +0.264 C 
ATOM     15  O   UNL     1      -4.733  -9.978   8.519  0.00  0.00    -0.271 OA
ATOM     16  C   UNL     1      -5.262  -9.425   9.687  0.00  0.00    +0.156 C 
ATOM     17  C   UNL     1      -5.814  -9.166   9.132  0.00  0.00    +0.051 C 
ATOM     18  C   UNL     1      -6.456  -8.707   9.371  0.00  0.00    +0.099 C 
ATOM     19  C   UNL     1      -6.546  -8.506  10.166  0.00  0.00    +0.043 C 
ATOM     20  C   UNL     1      -5.994  -8.764  10.721  0.00  0.00    +0.096 C 
ATOM     21  N   UNL     1      -5.351  -9.224  10.482  0.00  0.00    -0.269 N 
ATOM     22  C   UNL     1      -4.868  -9.422  11.121  0.00  0.00    +0.251 C 
ATOM     23  O   UNL     1      -5.109  -9.134  11.855  0.00  0.00    -0.270 OA
ATOM     24  C   UNL     1      -4.176  -9.871  11.122  0.00  0.00    +0.069 A 
ATOM     25  C   UNL     1      -3.862  -9.939  11.881  0.00  0.00    +0.006 A 
ENDROOT
BRANCH   9   6
ATOM      3  C   UNL     1      -2.224 -10.568  14.284  0.00  0.00    +0.139 A 
ATOM      4  C   UNL     1      -1.754 -10.288  13.666  0.00  0.00    +0.037 A 
ATOM      5  C   UNL     1      -2.068 -10.221  12.906  0.00  0.00    +0.003 A 
ATOM      6  C   UNL     1      -2.853 -10.434  12.764  0.00  0.00    +0.000 A 
ATOM      7  C   UNL     1      -3.323 -10.714  13.382  0.00  0.00    +0.003 A 
ATOM      8  C   UNL     1      -3.008 -10.781  14.142  0.00  0.00    +0.037 A 
BRANCH   3   2
ATOM      1  C   UNL     1      -1.166 -10.320  15.211  0.00  0.00    +0.252 C 
ATOM      2  O   UNL     1      -1.910 -10.635  15.044  0.00  0.00    -0.471 OA
ENDBRANCH   3   2
ENDBRANCH   9   6
BRANCH  18  26
ATOM     26  N   UNL     1      -7.009  -8.448   8.816  0.00  0.00    -0.206 NA
ATOM     27  C   UNL     1      -7.814  -8.476   8.991  0.00  0.00    +0.252 C 
ATOM     28  O   UNL     1      -8.067  -8.762   9.722  0.00  0.00    -0.272 OA
BRANCH  27  29
ATOM     29  C   UNL     1      -8.366  -8.217   8.436  0.00  0.00    +0.144 C 
BRANCH  29  30
ATOM     30  S   UNL     1      -9.023  -7.780   8.679  0.00  0.00    -0.130 S 
ATOM     31  C   UNL     1      -9.576  -7.525   8.124  0.00  0.00    +0.070 C 
ENDBRANCH  29  30
ENDBRANCH  27  29
ENDBRANCH  18  26
TORSDOF 5
ENDMDL
MODEL 10
REMARK VINA RESULT:      -6.7     17.776     18.877
REMARK  Name = 
REMARK  5 active torsions:
REMARK  status: ('A' for Active; 'I' for Inactive)
REMARK    1  A    between atoms: O_2  and  C_3
REMARK    2  A    between atoms: C_6  and  C_9
REMARK    3  A    between atoms: C_18  and  N_26
REMARK    4  A    between atoms: C_27  and  C_29
REMARK    5  A    between atoms: C_29  and  S_30
REMARK                            x       y       z     vdW  Elec       q    Type
REMARK                         _______ _______ _______ _____ _____    ______ ____
ROOT
ATOM      9  C   UNL     1      -3.771  -9.944  10.126  0.00  0.00    +0.000 A 
ATOM     10  C   UNL     1      -3.944 -10.679   9.794  0.00  0.00    +0.001 A 
ATOM     11  C   UNL     1      -4.638 -10.781   9.358  0.00  0.00    +0.017 A 
ATOM     12  C   UNL     1      -5.158 -10.149   9.256  0.00  0.00    +0.078 A 
ATOM     13  N   UNL     1      -5.813 -10.369   8.806  0.00  0.00    -0.178 NA
ATOM     14  C   UNL     1      -6.458  -9.907   8.577  0.00  0.00    +0.264 C 
ATOM     15  O   UNL     1      -7.030 -10.291   8.124  0.00  0.00    -0.271 OA
ATOM     16  C   UNL     1      -6.606  -9.112   8.742  0.00  0.00    +0.156 C 
ATOM     17  C   UNL     1      -7.317  -8.862   8.407  0.00  0.00    +0.051 C 
ATOM     18  C   UNL     1      -7.569  -8.083   8.507  0.00  0.00    +0.099 C 
ATOM     19  C   UNL     1      -7.108  -7.554   8.941  0.00  0.00    +0.043 C 
ATOM     20  C   UNL     1      -6.397  -7.804   9.275  0.00  0.00    +0.096 C 
ATOM     21  N   UNL     1      -6.145  -8.583   9.176  0.00  0.00    -0.269 N 
ATOM     22  C   UNL     1      -5.424  -8.717   9.552  0.00  0.00    +0.251 C 
ATOM     23  O   UNL     1      -5.099  -8.069   9.946  0.00  0.00    -0.270 OA
ATOM     24  C   UNL     1      -4.984  -9.415   9.588  0.00  0.00    +0.069 A 
ATOM     25  C   UNL     1      -4.291  -9.312  10.023  0.00  0.00    +0.006 A 
ENDROOT
BRANCH   9   6
ATOM      3  C   UNL     1      -1.691  -9.636  11.432  0.00  0.00    +0.139 A 
ATOM      4  C   UNL     1      -2.277 -10.149  11.705  0.00  0.00    +0.037 A 
ATOM      5  C   UNL     1      -2.970 -10.252  11.269  0.00  0.00    +0.003 A 
ATOM      6  C   UNL     1      -3.078  -9.841  10.561  0.00  0.00    +0.000 A 
ATOM      7  C   UNL     1      -2.491  -9.328  10.289  0.00  0.00    +0.003 A 
ATOM      8  C   UNL     1      -1.798  -9.225  10.725  0.00  0.00    +0.037 A 
BRANCH   3   2
ATOM      1  C   UNL     1      -0.611  -8.804  11.860  0.00  0.00    +0.252 C 
ATOM      2  O   UNL     1      -0.998  -9.533  11.868  0.00  0.00    -0.471 OA
ENDBRANCH   3   2
ENDBRANCH   9   6
BRANCH  18  26
ATOM     26  N   UNL     1      -8.280  -7.833   8.173  0.00  0.00    -0.206 NA
ATOM     27  C   UNL     1      -8.941  -7.713   8.651  0.00  0.00    +0.252 C 
ATOM     28  O   UNL     1      -8.890  -7.843   9.464  0.00  0.00    -0.272 OA
BRANCH  27  29
ATOM     29  C   UNL     1      -9.652  -7.463   8.317  0.00  0.00    +0.144 C 
BRANCH  29  30
ATOM     30  S   UNL     1     -10.189  -7.026   8.767  0.00  0.00    -0.130 S 
ATOM     31  C   UNL     1     -10.716  -6.512   8.395  0.00  0.00    +0.070 C 
ENDBRANCH  29  30
ENDBRANCH  27  29
ENDBRANCH  18  26
TORSDOF 5
ENDMDL
