MODEL 1
REMARK VINA RESULT:     -10.5      0.000      0.000
REMARK  Name = 
REMARK  8 active torsions:
REMARK  status: ('A' for Active; 'I' for Inactive)
REMARK    1  A    between atoms: C_3  and  C_4
REMARK    2  A    between atoms: C_4  and  N_5
REMARK    3  A    between atoms: C_6  and  C_8
REMARK    4  A    between atoms: C_13  and  N_14
REMARK    5  A    between atoms: N_14  and  C_15
REMARK    6  A    between atoms: N_14  and  C_22
REMARK    7  A    between atoms: C_15  and  C_16
REMARK    8  A    between atoms: C_22  and  C_23
REMARK                            x       y       z     vdW  Elec       q    Type
REMARK                         _______ _______ _______ _____ _____    ______ ____
ROOT
ATOM     14  N   UNL     1      -2.799   2.626  24.750  0.00  0.00    -0.259 NA
ENDROOT
BRANCH  14  13
ATOM      1  O   UNL     1      -2.411   1.156  25.703  0.00  0.00    -0.219 OA
ATOM      2  C   UNL     1      -2.449   1.205  24.880  0.00  0.00    +0.198 C 
ATOM      3  C   UNL     1      -2.314   0.585  24.352  0.00  0.00    +0.168 C 
ATOM     11  O   UNL     1      -2.410   0.879  23.587  0.00  0.00    -0.350 OA
ATOM     12  C   UNL     1      -2.603   1.679  23.643  0.00  0.00    +0.161 C 
ATOM     13  C   UNL     1      -2.627   1.880  24.442  0.00  0.00    +0.121 C 
BRANCH   3   4
ATOM      4  C   UNL     1      -2.119  -0.190  24.552  0.00  0.00    +0.147 C 
BRANCH   4   5
ATOM      5  N   UNL     1      -2.689  -0.785  24.503  0.00  0.00    -0.203 NA
ATOM      6  C   UNL     1      -2.471  -1.574  24.603  0.00  0.00    +0.241 C 
ATOM      7  O   UNL     1      -1.683  -1.769  24.753  0.00  0.00    -0.273 OA
BRANCH   6   8
ATOM      8  C   UNL     1      -3.041  -2.169  24.554  0.00  0.00    +0.078 C 
ATOM      9  C   UNL     1      -3.676  -2.519  24.161  0.00  0.00    +0.010 C 
ATOM     10  C   UNL     1      -3.392  -2.848  24.862  0.00  0.00    +0.010 C 
ENDBRANCH   6   8
ENDBRANCH   4   5
ENDBRANCH   3   4
ENDBRANCH  14  13
BRANCH  14  15
ATOM     15  C   UNL     1      -3.452   3.046  24.471  0.00  0.00    +0.119 C 
BRANCH  15  16
ATOM     16  C   UNL     1      -4.188   2.954  24.832  0.00  0.00    +0.075 A 
ATOM     17  N   UNL     1      -4.315   3.251  25.591  0.00  0.00    -0.247 NA
ATOM     18  C   UNL     1      -5.051   3.158  25.952  0.00  0.00    +0.098 A 
ATOM     19  C   UNL     1      -5.660   2.769  25.553  0.00  0.00    +0.021 A 
ATOM     20  C   UNL     1      -5.533   2.473  24.794  0.00  0.00    +0.003 A 
ATOM     21  C   UNL     1      -4.797   2.565  24.433  0.00  0.00    +0.016 A 
ENDBRANCH  15  16
ENDBRANCH  14  15
BRANCH  14  22
ATOM     22  C   UNL     1      -2.319   2.951  25.338  0.00  0.00    +0.119 C 
BRANCH  22  23
ATOM     23  C   UNL     1      -1.822   3.585  25.159  0.00  0.00    +0.075 A 
ATOM     24  N   UNL     1      -1.136   3.460  24.719  0.00  0.00    -0.247 NA
ATOM     25  C   UNL     1      -0.639   4.094  24.540  0.00  0.00    +0.098 A 
ATOM     26  C   UNL     1      -0.828   4.853  24.803  0.00  0.00    +0.021 A 
ATOM     27  C   UNL     1      -1.515   4.977  25.244  0.00  0.00    +0.003 A 
ATOM     28  C   UNL     1      -2.011   4.344  25.422  0.00  0.00    +0.016 A 
ENDBRANCH  22  23
ENDBRANCH  14  22
TORSDOF 8
ENDMDL
MODEL 2
REMARK VINA RESULT:     -10.5      0.014      2.737
REMARK  Name = 
REMARK  8 active torsions:
REMARK  status: ('A' for Active; 'I' for Inactive)
REMARK    1  A    between atoms: C_3  and  C_4
REMARK    2  A    between atoms: C_4  and  N_5
REMARK    3  A    between atoms: C_6  and  C_8
REMARK    4  A    between atoms: C_13  and  N_14
REMARK    5  A    between atoms: N_14  and  C_15
REMARK    6  A    between atoms: N_14  and  C_22
REMARK    7  A    between atoms: C_15  and  C_16
REMARK    8  A    between atoms: C_22  and  C_23
REMARK                            x       y       z     vdW  Elec       q    Type
REMARK                         _______ _______ _______ _____ _____    ______ ____
ROOT
ATOM     14  N   UNL     1      -2.798   2.624  24.752  0.00  0.00    -0.259 NA
ENDROOT
BRANCH  14  13
ATOM      1  O   UNL     1      -2.411   1.155  25.706  0.00  0.00    -0.219 OA
ATOM      2  C   UNL     1      -2.452   1.202  24.884  0.00  0.00    +0.198 C 
ATOM      3  C   UNL     1      -2.323   0.581  24.356  0.00  0.00    +0.168 C 
ATOM     11  O   UNL     1      -2.421   0.873  23.590  0.00  0.00    -0.350 OA
ATOM     12  C   UNL     1      -2.611   1.674  23.646  0.00  0.00    +0.161 C 
ATOM     13  C   UNL     1      -2.630   1.877  24.444  0.00  0.00    +0.121 C 
BRANCH   3   4
ATOM      4  C   UNL     1      -2.129  -0.195  24.557  0.00  0.00    +0.147 C 
BRANCH   4   5
ATOM      5  N   UNL     1      -2.697  -0.791  24.496  0.00  0.00    -0.203 NA
ATOM      6  C   UNL     1      -2.482  -1.579  24.607  0.00  0.00    +0.241 C 
ATOM      7  O   UNL     1      -1.698  -1.772  24.781  0.00  0.00    -0.273 OA
BRANCH   6   8
ATOM      8  C   UNL     1      -3.049  -2.175  24.546  0.00  0.00    +0.078 C 
ATOM      9  C   UNL     1      -3.382  -2.875  24.826  0.00  0.00    +0.010 C 
ATOM     10  C   UNL     1      -3.698  -2.506  24.160  0.00  0.00    +0.010 C 
ENDBRANCH   6   8
ENDBRANCH   4   5
ENDBRANCH   3   4
ENDBRANCH  14  13
BRANCH  14  15
ATOM     15  C   UNL     1      -2.313   2.947  25.337  0.00  0.00    +0.119 C 
BRANCH  15  16
ATOM     16  C   UNL     1      -1.817   3.581  25.158  0.00  0.00    +0.075 A 
ATOM     17  N   UNL     1      -1.132   3.457  24.716  0.00  0.00    -0.247 NA
ATOM     18  C   UNL     1      -0.636   4.091  24.537  0.00  0.00    +0.098 A 
ATOM     19  C   UNL     1      -0.825   4.850  24.801  0.00  0.00    +0.021 A 
ATOM     20  C   UNL     1      -1.510   4.974  25.243  0.00  0.00    +0.003 A 
ATOM     21  C   UNL     1      -2.006   4.340  25.422  0.00  0.00    +0.016 A 
ENDBRANCH  15  16
ENDBRANCH  14  15
BRANCH  14  22
ATOM     22  C   UNL     1      -3.450   3.049  24.475  0.00  0.00    +0.119 C 
BRANCH  22  23
ATOM     23  C   UNL     1      -4.185   2.955  24.835  0.00  0.00    +0.075 A 
ATOM     24  N   UNL     1      -4.314   3.250  25.594  0.00  0.00    -0.247 NA
ATOM     25  C   UNL     1      -5.051   3.156  25.954  0.00  0.00    +0.098 A 
ATOM     26  C   UNL     1      -5.659   2.767  25.554  0.00  0.00    +0.021 A 
ATOM     27  C   UNL     1      -5.530   2.472  24.794  0.00  0.00    +0.003 A 
ATOM     28  C   UNL     1      -4.794   2.566  24.435  0.00  0.00    +0.016 A 
ENDBRANCH  22  23
ENDBRANCH  14  22
TORSDOF 8
ENDMDL
MODEL 3
REMARK VINA RESULT:     -10.1      1.231      4.425
REMARK  Name = 
REMARK  8 active torsions:
REMARK  status: ('A' for Active; 'I' for Inactive)
REMARK    1  A    between atoms: C_3  and  C_4
REMARK    2  A    between atoms: C_4  and  N_5
REMARK    3  A    between atoms: C_6  and  C_8
REMARK    4  A    between atoms: C_13  and  N_14
REMARK    5  A    between atoms: N_14  and  C_15
REMARK    6  A    between atoms: N_14  and  C_22
REMARK    7  A    between atoms: C_15  and  C_16
REMARK    8  A    between atoms: C_22  and  C_23
REMARK                            x       y       z     vdW  Elec       q    Type
REMARK                         _______ _______ _______ _____ _____    ______ ____
ROOT
ATOM     14  N   UNL     1      -3.883   0.614  24.646  0.00  0.00    -0.259 NA
ENDROOT
BRANCH  14  13
ATOM      1  O   UNL     1      -2.606   1.381  25.645  0.00  0.00    -0.219 OA
ATOM      2  C   UNL     1      -2.666   1.418  24.823  0.00  0.00    +0.198 C 
ATOM      3  C   UNL     1      -2.150   1.815  24.316  0.00  0.00    +0.168 C 
ATOM     11  O   UNL     1      -2.419   1.707  23.544  0.00  0.00    -0.350 OA
ATOM     12  C   UNL     1      -3.101   1.244  23.573  0.00  0.00    +0.161 C 
ATOM     13  C   UNL     1      -3.254   1.066  24.364  0.00  0.00    +0.121 C 
BRANCH   3   4
ATOM      4  C   UNL     1      -1.483   2.244  24.542  0.00  0.00    +0.147 C 
BRANCH   4   5
ATOM      5  N   UNL     1      -1.523   3.065  24.608  0.00  0.00    -0.203 NA
ATOM      6  C   UNL     1      -0.848   3.498  24.802  0.00  0.00    +0.241 C 
ATOM      7  O   UNL     1      -0.132   3.108  24.931  0.00  0.00    -0.273 OA
BRANCH   6   8
ATOM      8  C   UNL     1      -0.889   4.320  24.868  0.00  0.00    +0.078 C 
ATOM      9  C   UNL     1      -1.294   4.998  25.105  0.00  0.00    +0.010 C 
ATOM     10  C   UNL     1      -0.555   5.063  24.744  0.00  0.00    +0.010 C 
ENDBRANCH   6   8
ENDBRANCH   4   5
ENDBRANCH   3   4
ENDBRANCH  14  13
BRANCH  14  15
ATOM     15  C   UNL     1      -4.656   0.795  24.418  0.00  0.00    +0.119 C 
BRANCH  15  16
ATOM     16  C   UNL     1      -5.124   1.280  24.892  0.00  0.00    +0.075 A 
ATOM     17  N   UNL     1      -5.391   1.008  25.624  0.00  0.00    -0.247 NA
ATOM     18  C   UNL     1      -5.859   1.493  26.098  0.00  0.00    +0.098 A 
ATOM     19  C   UNL     1      -6.060   2.251  25.841  0.00  0.00    +0.021 A 
ATOM     20  C   UNL     1      -5.793   2.523  25.110  0.00  0.00    +0.003 A 
ATOM     21  C   UNL     1      -5.325   2.038  24.635  0.00  0.00    +0.016 A 
ENDBRANCH  15  16
ENDBRANCH  14  15
BRANCH  14  22
ATOM     22  C   UNL     1      -3.742  -0.019  25.157  0.00  0.00    +0.119 C 
BRANCH  22  23
ATOM     23  C   UNL     1      -3.761  -0.792  24.871  0.00  0.00    +0.075 A 
ATOM     24  N   UNL     1      -4.177  -0.966  24.181  0.00  0.00    -0.247 NA
ATOM     25  C   UNL     1      -4.196  -1.740  23.895  0.00  0.00    +0.098 A 
ATOM     26  C   UNL     1      -3.798  -2.340  24.300  0.00  0.00    +0.021 A 
ATOM     27  C   UNL     1      -3.382  -2.164  24.991  0.00  0.00    +0.003 A 
ATOM     28  C   UNL     1      -3.363  -1.391  25.276  0.00  0.00    +0.016 A 
ENDBRANCH  22  23
ENDBRANCH  14  22
TORSDOF 8
ENDMDL
MODEL 4
REMARK VINA RESULT:     -10.1      1.231      4.554
REMARK  Name = 
REMARK  8 active torsions:
REMARK  status: ('A' for Active; 'I' for Inactive)
REMARK    1  A    between atoms: C_3  and  C_4
REMARK    2  A    between atoms: C_4  and  N_5
REMARK    3  A    between atoms: C_6  and  C_8
REMARK    4  A    between atoms: C_13  and  N_14
REMARK    5  A    between atoms: N_14  and  C_15
REMARK    6  A    between atoms: N_14  and  C_22
REMARK    7  A    between atoms: C_15  and  C_16
REMARK    8  A    between atoms: C_22  and  C_23
REMARK                            x       y       z     vdW  Elec       q    Type
REMARK                         _______ _______ _______ _____ _____    ______ ____
ROOT
ATOM     14  N   UNL     1      -3.884   0.615  24.647  0.00  0.00    -0.259 NA
ENDROOT
BRANCH  14  13
ATOM      1  O   UNL     1      -2.611   1.385  25.649  0.00  0.00    -0.219 OA
ATOM      2  C   UNL     1      -2.667   1.420  24.827  0.00  0.00    +0.198 C 
ATOM      3  C   UNL     1      -2.148   1.815  24.322  0.00  0.00    +0.168 C 
ATOM     11  O   UNL     1      -2.413   1.705  23.548  0.00  0.00    -0.350 OA
ATOM     12  C   UNL     1      -3.096   1.242  23.576  0.00  0.00    +0.161 C 
ATOM     13  C   UNL     1      -3.253   1.066  24.366  0.00  0.00    +0.121 C 
BRANCH   3   4
ATOM      4  C   UNL     1      -1.482   2.244  24.549  0.00  0.00    +0.147 C 
BRANCH   4   5
ATOM      5  N   UNL     1      -1.523   3.066  24.613  0.00  0.00    -0.203 NA
ATOM      6  C   UNL     1      -0.849   3.499  24.808  0.00  0.00    +0.241 C 
ATOM      7  O   UNL     1      -0.133   3.109  24.941  0.00  0.00    -0.273 OA
BRANCH   6   8
ATOM      8  C   UNL     1      -0.889   4.320  24.872  0.00  0.00    +0.078 C 
ATOM      9  C   UNL     1      -1.296   4.999  25.105  0.00  0.00    +0.010 C 
ATOM     10  C   UNL     1      -0.554   5.064  24.748  0.00  0.00    +0.010 C 
ENDBRANCH   6   8
ENDBRANCH   4   5
ENDBRANCH   3   4
ENDBRANCH  14  13
BRANCH  14  15
ATOM     15  C   UNL     1      -3.743  -0.017  25.158  0.00  0.00    +0.119 C 
BRANCH  15  16
ATOM     16  C   UNL     1      -3.759  -0.791  24.873  0.00  0.00    +0.075 A 
ATOM     17  N   UNL     1      -4.186  -0.970  24.191  0.00  0.00    -0.247 NA
ATOM     18  C   UNL     1      -4.202  -1.744  23.905  0.00  0.00    +0.098 A 
ATOM     19  C   UNL     1      -3.791  -2.339  24.303  0.00  0.00    +0.021 A 
ATOM     20  C   UNL     1      -3.364  -2.160  24.986  0.00  0.00    +0.003 A 
ATOM     21  C   UNL     1      -3.348  -1.386  25.271  0.00  0.00    +0.016 A 
ENDBRANCH  15  16
ENDBRANCH  14  15
BRANCH  14  22
ATOM     22  C   UNL     1      -4.656   0.795  24.416  0.00  0.00    +0.119 C 
BRANCH  22  23
ATOM     23  C   UNL     1      -5.124   1.280  24.891  0.00  0.00    +0.075 A 
ATOM     24  N   UNL     1      -5.389   1.010  25.623  0.00  0.00    -0.247 NA
ATOM     25  C   UNL     1      -5.858   1.495  26.098  0.00  0.00    +0.098 A 
ATOM     26  C   UNL     1      -6.062   2.253  25.839  0.00  0.00    +0.021 A 
ATOM     27  C   UNL     1      -5.796   2.523  25.106  0.00  0.00    +0.003 A 
ATOM     28  C   UNL     1      -5.328   2.037  24.632  0.00  0.00    +0.016 A 
ENDBRANCH  22  23
ENDBRANCH  14  22
TORSDOF 8
ENDMDL
MODEL 5
REMARK VINA RESULT:      -9.4      1.887      3.900
REMARK  Name = 
REMARK  8 active torsions:
REMARK  status: ('A' for Active; 'I' for Inactive)
REMARK    1  A    between atoms: C_3  and  C_4
REMARK    2  A    between atoms: C_4  and  N_5
REMARK    3  A    between atoms: C_6  and  C_8
REMARK    4  A    between atoms: C_13  and  N_14
REMARK    5  A    between atoms: N_14  and  C_15
REMARK    6  A    between atoms: N_14  and  C_22
REMARK    7  A    between atoms: C_15  and  C_16
REMARK    8  A    between atoms: C_22  and  C_23
REMARK                            x       y       z     vdW  Elec       q    Type
REMARK                         _______ _______ _______ _____ _____    ______ ____
ROOT
ATOM     14  N   UNL     1      -3.640   0.634  24.532  0.00  0.00    -0.259 NA
ENDROOT
BRANCH  14  13
ATOM      1  O   UNL     1      -1.998   0.747  25.246  0.00  0.00    -0.219 OA
ATOM      2  C   UNL     1      -2.198   0.910  24.463  0.00  0.00    +0.198 C 
ATOM      3  C   UNL     1      -1.678   1.154  23.870  0.00  0.00    +0.168 C 
ATOM     11  O   UNL     1      -2.112   1.253  23.176  0.00  0.00    -0.350 OA
ATOM     12  C   UNL     1      -2.900   1.070  23.339  0.00  0.00    +0.161 C 
ATOM     13  C   UNL     1      -2.953   0.859  24.134  0.00  0.00    +0.121 C 
BRANCH   3   4
ATOM      4  C   UNL     1      -0.867   1.278  23.957  0.00  0.00    +0.147 C 
BRANCH   4   5
ATOM      5  N   UNL     1      -0.331   0.789  23.563  0.00  0.00    -0.203 NA
ATOM      6  C   UNL     1       0.477   0.945  23.605  0.00  0.00    +0.241 C 
ATOM      7  O   UNL     1       0.751   1.590  24.042  0.00  0.00    -0.273 OA
BRANCH   6   8
ATOM      8  C   UNL     1       1.013   0.457  23.211  0.00  0.00    +0.078 C 
ATOM      9  C   UNL     1       1.170  -0.226  22.775  0.00  0.00    +0.010 C 
ATOM     10  C   UNL     1       1.783   0.293  22.965  0.00  0.00    +0.010 C 
ENDBRANCH   6   8
ENDBRANCH   4   5
ENDBRANCH   3   4
ENDBRANCH  14  13
BRANCH  14  15
ATOM     15  C   UNL     1      -3.851   1.013  25.234  0.00  0.00    +0.119 C 
BRANCH  15  16
ATOM     16  C   UNL     1      -4.446   1.584  25.233  0.00  0.00    +0.075 A 
ATOM     17  N   UNL     1      -4.262   2.373  25.385  0.00  0.00    -0.247 NA
ATOM     18  C   UNL     1      -4.857   2.944  25.383  0.00  0.00    +0.098 A 
ATOM     19  C   UNL     1      -5.638   2.725  25.229  0.00  0.00    +0.021 A 
ATOM     20  C   UNL     1      -5.822   1.936  25.077  0.00  0.00    +0.003 A 
ATOM     21  C   UNL     1      -5.227   1.365  25.079  0.00  0.00    +0.016 A 
ENDBRANCH  15  16
ENDBRANCH  14  15
BRANCH  14  22
ATOM     22  C   UNL     1      -4.116   0.032  24.228  0.00  0.00    +0.119 C 
BRANCH  22  23
ATOM     23  C   UNL     1      -3.978  -0.751  24.447  0.00  0.00    +0.075 A 
ATOM     24  N   UNL     1      -3.800  -0.936  25.231  0.00  0.00    -0.247 NA
ATOM     25  C   UNL     1      -3.662  -1.720  25.449  0.00  0.00    +0.098 A 
ATOM     26  C   UNL     1      -3.703  -2.319  24.883  0.00  0.00    +0.021 A 
ATOM     27  C   UNL     1      -3.881  -2.134  24.099  0.00  0.00    +0.003 A 
ATOM     28  C   UNL     1      -4.019  -1.351  23.881  0.00  0.00    +0.016 A 
ENDBRANCH  22  23
ENDBRANCH  14  22
TORSDOF 8
ENDMDL
MODEL 6
REMARK VINA RESULT:      -9.4      1.890      3.840
REMARK  Name = 
REMARK  8 active torsions:
REMARK  status: ('A' for Active; 'I' for Inactive)
REMARK    1  A    between atoms: C_3  and  C_4
REMARK    2  A    between atoms: C_4  and  N_5
REMARK    3  A    between atoms: C_6  and  C_8
REMARK    4  A    between atoms: C_13  and  N_14
REMARK    5  A    between atoms: N_14  and  C_15
REMARK    6  A    between atoms: N_14  and  C_22
REMARK    7  A    between atoms: C_15  and  C_16
REMARK    8  A    between atoms: C_22  and  C_23
REMARK                            x       y       z     vdW  Elec       q    Type
REMARK                         _______ _______ _______ _____ _____    ______ ____
ROOT
ATOM     14  N   UNL     1      -3.636   0.639  24.524  0.00  0.00    -0.259 NA
ENDROOT
BRANCH  14  13
ATOM      1  O   UNL     1      -1.994   0.746  25.239  0.00  0.00    -0.219 OA
ATOM      2  C   UNL     1      -2.193   0.912  24.456  0.00  0.00    +0.198 C 
ATOM      3  C   UNL     1      -1.672   1.156  23.864  0.00  0.00    +0.168 C 
ATOM     11  O   UNL     1      -2.106   1.258  23.170  0.00  0.00    -0.350 OA
ATOM     12  C   UNL     1      -2.894   1.077  23.332  0.00  0.00    +0.161 C 
ATOM     13  C   UNL     1      -2.948   0.863  24.127  0.00  0.00    +0.121 C 
BRANCH   3   4
ATOM      4  C   UNL     1      -0.861   1.277  23.952  0.00  0.00    +0.147 C 
BRANCH   4   5
ATOM      5  N   UNL     1      -0.326   0.793  23.552  0.00  0.00    -0.203 NA
ATOM      6  C   UNL     1       0.483   0.942  23.602  0.00  0.00    +0.241 C 
ATOM      7  O   UNL     1       0.758   1.576  24.053  0.00  0.00    -0.273 OA
BRANCH   6   8
ATOM      8  C   UNL     1       1.018   0.458  23.202  0.00  0.00    +0.078 C 
ATOM      9  C   UNL     1       1.188  -0.249  22.812  0.00  0.00    +0.010 C 
ATOM     10  C   UNL     1       1.773   0.326  22.899  0.00  0.00    +0.010 C 
ENDBRANCH   6   8
ENDBRANCH   4   5
ENDBRANCH   3   4
ENDBRANCH  14  13
BRANCH  14  15
ATOM     15  C   UNL     1      -4.110   0.037  24.218  0.00  0.00    +0.119 C 
BRANCH  15  16
ATOM     16  C   UNL     1      -3.974  -0.747  24.437  0.00  0.00    +0.075 A 
ATOM     17  N   UNL     1      -3.803  -0.933  25.222  0.00  0.00    -0.247 NA
ATOM     18  C   UNL     1      -3.667  -1.716  25.441  0.00  0.00    +0.098 A 
ATOM     19  C   UNL     1      -3.703  -2.315  24.873  0.00  0.00    +0.021 A 
ATOM     20  C   UNL     1      -3.875  -2.129  24.088  0.00  0.00    +0.003 A 
ATOM     21  C   UNL     1      -4.011  -1.345  23.870  0.00  0.00    +0.016 A 
ENDBRANCH  15  16
ENDBRANCH  14  15
BRANCH  14  22
ATOM     22  C   UNL     1      -3.849   1.017  25.226  0.00  0.00    +0.119 C 
BRANCH  22  23
ATOM     23  C   UNL     1      -4.443   1.589  25.222  0.00  0.00    +0.075 A 
ATOM     24  N   UNL     1      -4.259   2.377  25.381  0.00  0.00    -0.247 NA
ATOM     25  C   UNL     1      -4.854   2.949  25.377  0.00  0.00    +0.098 A 
ATOM     26  C   UNL     1      -5.633   2.733  25.213  0.00  0.00    +0.021 A 
ATOM     27  C   UNL     1      -5.817   1.944  25.053  0.00  0.00    +0.003 A 
ATOM     28  C   UNL     1      -5.223   1.373  25.058  0.00  0.00    +0.016 A 
ENDBRANCH  22  23
ENDBRANCH  14  22
TORSDOF 8
ENDMDL
MODEL 7
REMARK VINA RESULT:      -9.3      2.701      4.394
REMARK  Name = 
REMARK  8 active torsions:
REMARK  status: ('A' for Active; 'I' for Inactive)
REMARK    1  A    between atoms: C_3  and  C_4
REMARK    2  A    between atoms: C_4  and  N_5
REMARK    3  A    between atoms: C_6  and  C_8
REMARK    4  A    between atoms: C_13  and  N_14
REMARK    5  A    between atoms: N_14  and  C_15
REMARK    6  A    between atoms: N_14  and  C_22
REMARK    7  A    between atoms: C_15  and  C_16
REMARK    8  A    between atoms: C_22  and  C_23
REMARK                            x       y       z     vdW  Elec       q    Type
REMARK                         _______ _______ _______ _____ _____    ______ ____
ROOT
ATOM     14  N   UNL     1      -1.701   0.921  24.680  0.00  0.00    -0.259 NA
ENDROOT
BRANCH  14  13
ATOM      1  O   UNL     1      -0.945   1.073  23.059  0.00  0.00    -0.219 OA
ATOM      2  C   UNL     1      -0.649   0.636  23.694  0.00  0.00    +0.198 C 
ATOM      3  C   UNL     1       0.047   0.193  23.694  0.00  0.00    +0.168 C 
ATOM     11  O   UNL     1       0.130  -0.151  24.439  0.00  0.00    -0.350 OA
ATOM     12  C   UNL     1      -0.515   0.080  24.899  0.00  0.00    +0.161 C 
ATOM     13  C   UNL     1      -0.996   0.566  24.439  0.00  0.00    +0.121 C 
BRANCH   3   4
ATOM      4  C   UNL     1       0.568   0.108  23.060  0.00  0.00    +0.147 C 
BRANCH   4   5
ATOM      5  N   UNL     1       1.370   0.275  23.161  0.00  0.00    -0.203 NA
ATOM      6  C   UNL     1       1.906   0.104  22.558  0.00  0.00    +0.241 C 
ATOM      7  O   UNL     1       1.640  -0.234  21.853  0.00  0.00    -0.273 OA
BRANCH   6   8
ATOM      8  C   UNL     1       2.708   0.271  22.659  0.00  0.00    +0.078 C 
ATOM      9  C   UNL     1       3.487   0.011  22.735  0.00  0.00    +0.010 C 
ATOM     10  C   UNL     1       3.317   0.818  22.757  0.00  0.00    +0.010 C 
ENDBRANCH   6   8
ENDBRANCH   4   5
ENDBRANCH   3   4
ENDBRANCH  14  13
BRANCH  14  15
ATOM     15  C   UNL     1      -1.720   1.372  25.371  0.00  0.00    +0.119 C 
BRANCH  15  16
ATOM     16  C   UNL     1      -1.699   2.195  25.328  0.00  0.00    +0.075 A 
ATOM     17  N   UNL     1      -2.308   2.604  24.952  0.00  0.00    -0.247 NA
ATOM     18  C   UNL     1      -2.288   3.427  24.909  0.00  0.00    +0.098 A 
ATOM     19  C   UNL     1      -1.656   3.842  25.242  0.00  0.00    +0.021 A 
ATOM     20  C   UNL     1      -1.047   3.433  25.617  0.00  0.00    +0.003 A 
ATOM     21  C   UNL     1      -1.068   2.610  25.661  0.00  0.00    +0.016 A 
ENDBRANCH  15  16
ENDBRANCH  14  15
BRANCH  14  22
ATOM     22  C   UNL     1      -2.387   0.825  24.230  0.00  0.00    +0.119 C 
BRANCH  22  23
ATOM     23  C   UNL     1      -2.943   0.256  24.444  0.00  0.00    +0.075 A 
ATOM     24  N   UNL     1      -2.958  -0.037  25.215  0.00  0.00    -0.247 NA
ATOM     25  C   UNL     1      -3.516  -0.607  25.429  0.00  0.00    +0.098 A 
ATOM     26  C   UNL     1      -4.059  -0.883  24.872  0.00  0.00    +0.021 A 
ATOM     27  C   UNL     1      -4.043  -0.589  24.100  0.00  0.00    +0.003 A 
ATOM     28  C   UNL     1      -3.486  -0.020  23.887  0.00  0.00    +0.016 A 
ENDBRANCH  22  23
ENDBRANCH  14  22
TORSDOF 8
ENDMDL
MODEL 8
REMARK VINA RESULT:      -9.3      2.719      3.761
REMARK  Name = 
REMARK  8 active torsions:
REMARK  status: ('A' for Active; 'I' for Inactive)
REMARK    1  A    between atoms: C_3  and  C_4
REMARK    2  A    between atoms: C_4  and  N_5
REMARK    3  A    between atoms: C_6  and  C_8
REMARK    4  A    between atoms: C_13  and  N_14
REMARK    5  A    between atoms: N_14  and  C_15
REMARK    6  A    between atoms: N_14  and  C_22
REMARK    7  A    between atoms: C_15  and  C_16
REMARK    8  A    between atoms: C_22  and  C_23
REMARK                            x       y       z     vdW  Elec       q    Type
REMARK                         _______ _______ _______ _____ _____    ______ ____
ROOT
ATOM     14  N   UNL     1      -1.664   0.865  24.677  0.00  0.00    -0.259 NA
ENDROOT
BRANCH  14  13
ATOM      1  O   UNL     1      -0.899   1.065  23.066  0.00  0.00    -0.219 OA
ATOM      2  C   UNL     1      -0.612   0.602  23.686  0.00  0.00    +0.198 C 
ATOM      3  C   UNL     1       0.078   0.149  23.673  0.00  0.00    +0.168 C 
ATOM     11  O   UNL     1       0.152  -0.223  24.406  0.00  0.00    -0.350 OA
ATOM     12  C   UNL     1      -0.492   0.000  24.871  0.00  0.00    +0.161 C 
ATOM     13  C   UNL     1      -0.963   0.510  24.426  0.00  0.00    +0.121 C 
BRANCH   3   4
ATOM      4  C   UNL     1       0.601   0.080  23.039  0.00  0.00    +0.147 C 
BRANCH   4   5
ATOM      5  N   UNL     1       1.400   0.255  23.143  0.00  0.00    -0.203 NA
ATOM      6  C   UNL     1       1.940   0.100  22.539  0.00  0.00    +0.241 C 
ATOM      7  O   UNL     1       1.679  -0.232  21.829  0.00  0.00    -0.273 OA
BRANCH   6   8
ATOM      8  C   UNL     1       2.739   0.275  22.643  0.00  0.00    +0.078 C 
ATOM      9  C   UNL     1       3.520   0.024  22.724  0.00  0.00    +0.010 C 
ATOM     10  C   UNL     1       3.341   0.830  22.742  0.00  0.00    +0.010 C 
ENDBRANCH   6   8
ENDBRANCH   4   5
ENDBRANCH   3   4
ENDBRANCH  14  13
BRANCH  14  15
ATOM     15  C   UNL     1      -2.352   0.782  24.228  0.00  0.00    +0.119 C 
BRANCH  15  16
ATOM     16  C   UNL     1      -2.914   0.215  24.436  0.00  0.00    +0.075 A 
ATOM     17  N   UNL     1      -2.943  -0.074  25.208  0.00  0.00    -0.247 NA
ATOM     18  C   UNL     1      -3.505  -0.640  25.416  0.00  0.00    +0.098 A 
ATOM     19  C   UNL     1      -4.039  -0.918  24.851  0.00  0.00    +0.021 A 
ATOM     20  C   UNL     1      -4.010  -0.630  24.079  0.00  0.00    +0.003 A 
ATOM     21  C   UNL     1      -3.448  -0.063  23.871  0.00  0.00    +0.016 A 
ENDBRANCH  15  16
ENDBRANCH  14  15
BRANCH  14  22
ATOM     22  C   UNL     1      -1.678   1.305  25.375  0.00  0.00    +0.119 C 
BRANCH  22  23
ATOM     23  C   UNL     1      -1.645   2.128  25.345  0.00  0.00    +0.075 A 
ATOM     24  N   UNL     1      -2.239   2.551  24.960  0.00  0.00    -0.247 NA
ATOM     25  C   UNL     1      -2.206   3.375  24.929  0.00  0.00    +0.098 A 
ATOM     26  C   UNL     1      -1.577   3.776  25.284  0.00  0.00    +0.021 A 
ATOM     27  C   UNL     1      -0.983   3.352  25.669  0.00  0.00    +0.003 A 
ATOM     28  C   UNL     1      -1.017   2.529  25.700  0.00  0.00    +0.016 A 
ENDBRANCH  22  23
ENDBRANCH  14  22
TORSDOF 8
ENDMDL
MODEL 9
REMARK VINA RESULT:      -9.2      1.676      2.151
REMARK  Name = 
REMARK  8 active torsions:
REMARK  status: ('A' for Active; 'I' for Inactive)
REMARK    1  A    between atoms: C_3  and  C_4
REMARK    2  A    between atoms: C_4  and  N_5
REMARK    3  A    between atoms: C_6  and  C_8
REMARK    4  A    between atoms: C_13  and  N_14
REMARK    5  A    between atoms: N_14  and  C_15
REMARK    6  A    between atoms: N_14  and  C_22
REMARK    7  A    between atoms: C_15  and  C_16
REMARK    8  A    between atoms: C_22  and  C_23
REMARK                            x       y       z     vdW  Elec       q    Type
REMARK                         _______ _______ _______ _____ _____    ______ ____
ROOT
ATOM     14  N   UNL     1      -2.858   2.776  24.581  0.00  0.00    -0.259 NA
ENDROOT
BRANCH  14  13
ATOM      1  O   UNL     1      -1.900   1.425  25.273  0.00  0.00    -0.219 OA
ATOM      2  C   UNL     1      -1.958   1.619  24.473  0.00  0.00    +0.198 C 
ATOM      3  C   UNL     1      -1.585   1.225  23.851  0.00  0.00    +0.168 C 
ATOM     11  O   UNL     1      -1.796   1.603  23.148  0.00  0.00    -0.350 OA
ATOM     12  C   UNL     1      -2.298   2.230  23.336  0.00  0.00    +0.161 C 
ATOM     13  C   UNL     1      -2.398   2.240  24.155  0.00  0.00    +0.121 C 
BRANCH   3   4
ATOM      4  C   UNL     1      -1.090   0.569  23.919  0.00  0.00    +0.147 C 
BRANCH   4   5
ATOM      5  N   UNL     1      -0.378   0.546  23.503  0.00  0.00    -0.203 NA
ATOM      6  C   UNL     1       0.108  -0.119  23.554  0.00  0.00    +0.241 C 
ATOM      7  O   UNL     1      -0.119  -0.760  24.022  0.00  0.00    -0.273 OA
BRANCH   6   8
ATOM      8  C   UNL     1       0.821  -0.143  23.139  0.00  0.00    +0.078 C 
ATOM      9  C   UNL     1       1.632   0.003  23.103  0.00  0.00    +0.010 C 
ATOM     10  C   UNL     1       1.243  -0.329  22.455  0.00  0.00    +0.010 C 
ENDBRANCH   6   8
ENDBRANCH   4   5
ENDBRANCH   3   4
ENDBRANCH  14  13
BRANCH  14  15
ATOM     15  C   UNL     1      -3.626   2.949  24.332  0.00  0.00    +0.119 C 
BRANCH  15  16
ATOM     16  C   UNL     1      -4.272   2.636  24.738  0.00  0.00    +0.075 A 
ATOM     17  N   UNL     1      -4.501   2.958  25.461  0.00  0.00    -0.247 NA
ATOM     18  C   UNL     1      -5.147   2.644  25.867  0.00  0.00    +0.098 A 
ATOM     19  C   UNL     1      -5.565   2.008  25.547  0.00  0.00    +0.021 A 
ATOM     20  C   UNL     1      -5.336   1.686  24.824  0.00  0.00    +0.003 A 
ATOM     21  C   UNL     1      -4.689   1.999  24.418  0.00  0.00    +0.016 A 
ENDBRANCH  15  16
ENDBRANCH  14  15
BRANCH  14  22
ATOM     22  C   UNL     1      -2.551   3.138  25.256  0.00  0.00    +0.119 C 
BRANCH  22  23
ATOM     23  C   UNL     1      -2.167   3.865  25.195  0.00  0.00    +0.075 A 
ATOM     24  N   UNL     1      -2.569   4.520  24.897  0.00  0.00    -0.247 NA
ATOM     25  C   UNL     1      -2.184   5.248  24.836  0.00  0.00    +0.098 A 
ATOM     26  C   UNL     1      -1.396   5.320  25.073  0.00  0.00    +0.021 A 
ATOM     27  C   UNL     1      -0.995   4.663  25.372  0.00  0.00    +0.003 A 
ATOM     28  C   UNL     1      -1.379   3.937  25.432  0.00  0.00    +0.016 A 
ENDBRANCH  22  23
ENDBRANCH  14  22
TORSDOF 8
ENDMDL
MODEL 10
REMARK VINA RESULT:      -9.1      1.681      3.417
REMARK  Name = 
REMARK  8 active torsions:
REMARK  status: ('A' for Active; 'I' for Inactive)
REMARK    1  A    between atoms: C_3  and  C_4
REMARK    2  A    between atoms: C_4  and  N_5
REMARK    3  A    between atoms: C_6  and  C_8
REMARK    4  A    between atoms: C_13  and  N_14
REMARK    5  A    between atoms: N_14  and  C_15
REMARK    6  A    between atoms: N_14  and  C_22
REMARK    7  A    between atoms: C_15  and  C_16
REMARK    8  A    between atoms: C_22  and  C_23
REMARK                            x       y       z     vdW  Elec       q    Type
REMARK                         _______ _______ _______ _____ _____    ______ ____
ROOT
ATOM     14  N   UNL     1      -2.850   2.818  24.541  0.00  0.00    -0.259 NA
ENDROOT
BRANCH  14  13
ATOM      1  O   UNL     1      -1.875   1.480  25.233  0.00  0.00    -0.219 OA
ATOM      2  C   UNL     1      -1.957   1.656  24.431  0.00  0.00    +0.198 C 
ATOM      3  C   UNL     1      -1.604   1.247  23.807  0.00  0.00    +0.168 C 
ATOM     11  O   UNL     1      -1.836   1.610  23.103  0.00  0.00    -0.350 OA
ATOM     12  C   UNL     1      -2.330   2.242  23.292  0.00  0.00    +0.161 C 
ATOM     13  C   UNL     1      -2.405   2.271  24.112  0.00  0.00    +0.121 C 
BRANCH   3   4
ATOM      4  C   UNL     1      -1.109   0.591  23.875  0.00  0.00    +0.147 C 
BRANCH   4   5
ATOM      5  N   UNL     1      -0.380   0.584  23.488  0.00  0.00    -0.203 NA
ATOM      6  C   UNL     1       0.096  -0.089  23.518  0.00  0.00    +0.241 C 
ATOM      7  O   UNL     1      -0.157  -0.755  23.936  0.00  0.00    -0.273 OA
BRANCH   6   8
ATOM      8  C   UNL     1       0.825  -0.097  23.132  0.00  0.00    +0.078 C 
ATOM      9  C   UNL     1       1.280  -0.281  22.469  0.00  0.00    +0.010 C 
ATOM     10  C   UNL     1       1.632   0.074  23.125  0.00  0.00    +0.010 C 
ENDBRANCH   6   8
ENDBRANCH   4   5
ENDBRANCH   3   4
ENDBRANCH  14  13
BRANCH  14  15
ATOM     15  C   UNL     1      -2.527   3.179  25.209  0.00  0.00    +0.119 C 
BRANCH  15  16
ATOM     16  C   UNL     1      -2.135   3.901  25.139  0.00  0.00    +0.075 A 
ATOM     17  N   UNL     1      -2.516   4.546  24.793  0.00  0.00    -0.247 NA
ATOM     18  C   UNL     1      -2.124   5.268  24.723  0.00  0.00    +0.098 A 
ATOM     19  C   UNL     1      -1.350   5.345  24.999  0.00  0.00    +0.021 A 
ATOM     20  C   UNL     1      -0.969   4.701  25.344  0.00  0.00    +0.003 A 
ATOM     21  C   UNL     1      -1.360   3.979  25.414  0.00  0.00    +0.016 A 
ENDBRANCH  15  16
ENDBRANCH  14  15
BRANCH  14  22
ATOM     22  C   UNL     1      -3.618   3.004  24.302  0.00  0.00    +0.119 C 
BRANCH  22  23
ATOM     23  C   UNL     1      -4.263   2.695  24.712  0.00  0.00    +0.075 A 
ATOM     24  N   UNL     1      -4.467   2.998  25.451  0.00  0.00    -0.247 NA
ATOM     25  C   UNL     1      -5.113   2.688  25.861  0.00  0.00    +0.098 A 
ATOM     26  C   UNL     1      -5.555   2.074  25.531  0.00  0.00    +0.021 A 
ATOM     27  C   UNL     1      -5.350   1.771  24.790  0.00  0.00    +0.003 A 
ATOM     28  C   UNL     1      -4.705   2.081  24.382  0.00  0.00    +0.016 A 
ENDBRANCH  22  23
ENDBRANCH  14  22
TORSDOF 8
ENDMDL
