MODEL 1
REMARK VINA RESULT:     -10.7      0.000      0.000
REMARK  Name = 
REMARK  5 active torsions:
REMARK  status: ('A' for Active; 'I' for Inactive)
REMARK    1  A    between atoms: N_2  and  C_4
REMARK    2  A    between atoms: C_7  and  C_10
REMARK    3  A    between atoms: N_12  and  C_13
REMARK    4  A    between atoms: C_15  and  C_18
REMARK    5  A    between atoms: N_21  and  C_25
REMARK                            x       y       z     vdW  Elec       q    Type
REMARK                         _______ _______ _______ _____ _____    ______ ____
ROOT
ATOM     13  C   UNL     1      -4.389   1.184  24.885  0.00  0.00    +0.118 C 
ATOM     14  C   UNL     1      -3.814   1.702  25.169  0.00  0.00    +0.035 C 
ATOM     15  C   UNL     1      -4.085   2.473  25.053  0.00  0.00    +0.048 C 
ATOM     16  C   UNL     1      -4.828   2.430  24.697  0.00  0.00    -0.025 C 
ATOM     17  C   UNL     1      -5.016   1.633  24.593  0.00  0.00    -0.009 C 
ENDROOT
BRANCH  15  18
ATOM     18  C   UNL     1      -3.684   3.164  25.257  0.00  0.00    +0.010 A 
ATOM     19  C   UNL     1      -2.957   3.410  24.956  0.00  0.00    +0.058 A 
ATOM     20  C   UNL     1      -2.503   3.008  24.397  0.00  0.00    +0.052 C 
ATOM     21  N   UNL     1      -2.763   4.129  25.311  0.00  0.00    -0.234 N 
ATOM     22  N   UNL     1      -3.370   4.328  25.833  0.00  0.00    -0.170 NA
ATOM     23  C   UNL     1      -3.940   3.731  25.799  0.00  0.00    +0.077 A 
ATOM     24  C   UNL     1      -4.642   3.706  26.232  0.00  0.00    +0.054 C 
BRANCH  21  25
ATOM     25  C   UNL     1      -2.081   4.572  25.170  0.00  0.00    +0.083 A 
ATOM     26  C   UNL     1      -1.341   4.207  25.186  0.00  0.00    +0.021 A 
ATOM     27  C   UNL     1      -0.660   4.650  25.045  0.00  0.00    +0.031 A 
ATOM     28  C   UNL     1      -0.718   5.457  24.888  0.00  0.00    +0.140 A 
ATOM     29  F   UNL     1      -0.037   5.900  24.746  0.00  0.00    -0.204 F 
ATOM     30  C   UNL     1      -1.458   5.822  24.871  0.00  0.00    +0.031 A 
ATOM     31  C   UNL     1      -2.140   5.380  25.013  0.00  0.00    +0.021 A 
ENDBRANCH  21  25
ENDBRANCH  15  18
BRANCH  13  12
ATOM     10  C   UNL     1      -3.917  -0.035  24.308  0.00  0.00    +0.265 C 
ATOM     11  O   UNL     1      -3.533   0.395  23.717  0.00  0.00    -0.268 OA
ATOM     12  N   UNL     1      -4.345   0.361  24.891  0.00  0.00    -0.199 NA
BRANCH  10   7
ATOM      4  C   UNL     1      -3.784  -2.506  24.327  0.00  0.00    +0.048 A 
ATOM      5  C   UNL     1      -4.262  -2.123  23.774  0.00  0.00    +0.015 A 
ATOM      6  C   UNL     1      -4.306  -1.299  23.768  0.00  0.00    +0.006 A 
ATOM      7  C   UNL     1      -3.873  -0.858  24.314  0.00  0.00    +0.055 A 
ATOM      8  C   UNL     1      -3.396  -1.241  24.867  0.00  0.00    +0.006 A 
ATOM      9  C   UNL     1      -3.351  -2.066  24.873  0.00  0.00    +0.015 A 
BRANCH   4   2
ATOM      1  C   UNL     1      -4.110  -3.767  23.740  0.00  0.00    +0.112 C 
ATOM      2  N   UNL     1      -3.740  -3.330  24.333  0.00  0.00    -0.304 N 
ATOM      3  C   UNL     1      -3.326  -3.716  24.933  0.00  0.00    +0.112 C 
ENDBRANCH   4   2
ENDBRANCH  10   7
ENDBRANCH  13  12
TORSDOF 5
ENDMDL
MODEL 2
REMARK VINA RESULT:     -10.6      3.760      4.992
REMARK  Name = 
REMARK  5 active torsions:
REMARK  status: ('A' for Active; 'I' for Inactive)
REMARK    1  A    between atoms: N_2  and  C_4
REMARK    2  A    between atoms: C_7  and  C_10
REMARK    3  A    between atoms: N_12  and  C_13
REMARK    4  A    between atoms: C_15  and  C_18
REMARK    5  A    between atoms: N_21  and  C_25
REMARK                            x       y       z     vdW  Elec       q    Type
REMARK                         _______ _______ _______ _____ _____    ______ ____
ROOT
ATOM     13  C   UNL     1      -0.853   0.572  24.439  0.00  0.00    +0.118 C 
ATOM     14  C   UNL     1      -1.525   1.001  24.229  0.00  0.00    +0.035 C 
ATOM     15  C   UNL     1      -2.157   0.721  24.680  0.00  0.00    +0.048 C 
ATOM     16  C   UNL     1      -1.874   0.119  25.168  0.00  0.00    -0.025 C 
ATOM     17  C   UNL     1      -1.068   0.027  25.018  0.00  0.00    -0.009 C 
ENDROOT
BRANCH  15  18
ATOM     18  C   UNL     1      -2.934   0.995  24.648  0.00  0.00    +0.010 A 
ATOM     19  C   UNL     1      -3.212   1.705  24.962  0.00  0.00    +0.058 A 
ATOM     20  C   UNL     1      -2.760   2.267  25.363  0.00  0.00    +0.052 C 
ATOM     21  N   UNL     1      -4.020   1.756  24.804  0.00  0.00    -0.234 N 
ATOM     22  N   UNL     1      -4.243   1.076  24.393  0.00  0.00    -0.170 NA
ATOM     23  C   UNL     1      -3.571   0.605  24.296  0.00  0.00    +0.077 A 
ATOM     24  C   UNL     1      -3.542  -0.126  23.914  0.00  0.00    +0.054 C 
BRANCH  21  25
ATOM     25  C   UNL     1      -4.519   2.377  25.020  0.00  0.00    +0.083 A 
ATOM     26  C   UNL     1      -5.132   2.246  25.556  0.00  0.00    +0.021 A 
ATOM     27  C   UNL     1      -5.630   2.867  25.772  0.00  0.00    +0.031 A 
ATOM     28  C   UNL     1      -5.516   3.619  25.452  0.00  0.00    +0.140 A 
ATOM     29  F   UNL     1      -6.014   4.239  25.667  0.00  0.00    -0.204 F 
ATOM     30  C   UNL     1      -4.902   3.749  24.916  0.00  0.00    +0.031 A 
ATOM     31  C   UNL     1      -4.404   3.128  24.700  0.00  0.00    +0.021 A 
ENDBRANCH  21  25
ENDBRANCH  15  18
BRANCH  13  12
ATOM     10  C   UNL     1       0.226   0.091  23.635  0.00  0.00    +0.265 C 
ATOM     11  O   UNL     1      -0.208  -0.589  23.462  0.00  0.00    -0.268 OA
ATOM     12  N   UNL     1      -0.097   0.671  24.124  0.00  0.00    -0.199 NA
BRANCH  10   7
ATOM      4  C   UNL     1       2.494   0.388  22.689  0.00  0.00    +0.048 A 
ATOM      5  C   UNL     1       2.005  -0.212  22.406  0.00  0.00    +0.015 A 
ATOM      6  C   UNL     1       1.248  -0.311  22.722  0.00  0.00    +0.006 A 
ATOM      7  C   UNL     1       0.982   0.190  23.320  0.00  0.00    +0.055 A 
ATOM      8  C   UNL     1       1.471   0.790  23.602  0.00  0.00    +0.006 A 
ATOM      9  C   UNL     1       2.228   0.890  23.287  0.00  0.00    +0.015 A 
BRANCH   4   2
ATOM      1  C   UNL     1       3.839   0.850  22.822  0.00  0.00    +0.112 C 
ATOM      2  N   UNL     1       3.250   0.488  22.374  0.00  0.00    -0.304 N 
ATOM      3  C   UNL     1       3.415   0.224  21.610  0.00  0.00    +0.112 C 
ENDBRANCH   4   2
ENDBRANCH  10   7
ENDBRANCH  13  12
TORSDOF 5
ENDMDL
MODEL 3
REMARK VINA RESULT:     -10.3      3.577      4.888
REMARK  Name = 
REMARK  5 active torsions:
REMARK  status: ('A' for Active; 'I' for Inactive)
REMARK    1  A    between atoms: N_2  and  C_4
REMARK    2  A    between atoms: C_7  and  C_10
REMARK    3  A    between atoms: N_12  and  C_13
REMARK    4  A    between atoms: C_15  and  C_18
REMARK    5  A    between atoms: N_21  and  C_25
REMARK                            x       y       z     vdW  Elec       q    Type
REMARK                         _______ _______ _______ _____ _____    ______ ____
ROOT
ATOM     13  C   UNL     1      -0.562   2.352  24.744  0.00  0.00    +0.118 C 
ATOM     14  C   UNL     1      -1.339   2.508  24.516  0.00  0.00    +0.035 C 
ATOM     15  C   UNL     1      -1.745   2.795  25.175  0.00  0.00    +0.048 C 
ATOM     16  C   UNL     1      -1.217   2.816  25.810  0.00  0.00    -0.025 C 
ATOM     17  C   UNL     1      -0.486   2.542  25.543  0.00  0.00    -0.009 C 
ENDROOT
BRANCH  15  18
ATOM     18  C   UNL     1      -2.537   3.021  25.196  0.00  0.00    +0.010 A 
ATOM     19  C   UNL     1      -3.187   2.513  25.196  0.00  0.00    +0.058 A 
ATOM     20  C   UNL     1      -3.158   1.689  25.175  0.00  0.00    +0.052 C 
ATOM     21  N   UNL     1      -3.872   2.974  25.220  0.00  0.00    -0.234 N 
ATOM     22  N   UNL     1      -3.645   3.766  25.236  0.00  0.00    -0.170 NA
ATOM     23  C   UNL     1      -2.820   3.796  25.221  0.00  0.00    +0.077 A 
ATOM     24  C   UNL     1      -2.359   4.481  25.229  0.00  0.00    +0.054 C 
BRANCH  21  25
ATOM     25  C   UNL     1      -4.647   2.691  25.228  0.00  0.00    +0.083 A 
ATOM     26  C   UNL     1      -4.959   2.324  24.558  0.00  0.00    +0.021 A 
ATOM     27  C   UNL     1      -5.733   2.041  24.566  0.00  0.00    +0.031 A 
ATOM     28  C   UNL     1      -6.197   2.125  25.243  0.00  0.00    +0.140 A 
ATOM     29  F   UNL     1      -6.971   1.842  25.251  0.00  0.00    -0.204 F 
ATOM     30  C   UNL     1      -5.885   2.491  25.913  0.00  0.00    +0.031 A 
ATOM     31  C   UNL     1      -5.109   2.775  25.906  0.00  0.00    +0.021 A 
ENDBRANCH  21  25
ENDBRANCH  15  18
BRANCH  13  12
ATOM     10  C   UNL     1       0.201   1.249  24.250  0.00  0.00    +0.265 C 
ATOM     11  O   UNL     1      -0.232   0.736  24.730  0.00  0.00    -0.268 OA
ATOM     12  N   UNL     1       0.035   2.057  24.258  0.00  0.00    -0.199 NA
BRANCH  10   7
ATOM      4  C   UNL     1       1.993   0.364  22.790  0.00  0.00    +0.048 A 
ATOM      5  C   UNL     1       1.254  -0.001  22.803  0.00  0.00    +0.015 A 
ATOM      6  C   UNL     1       0.656   0.294  23.290  0.00  0.00    +0.006 A 
ATOM      7  C   UNL     1       0.798   0.954  23.763  0.00  0.00    +0.055 A 
ATOM      8  C   UNL     1       1.537   1.320  23.750  0.00  0.00    +0.006 A 
ATOM      9  C   UNL     1       2.135   1.024  23.263  0.00  0.00    +0.015 A 
BRANCH   4   2
ATOM      1  C   UNL     1       3.380   0.172  22.513  0.00  0.00    +0.112 C 
ATOM      2  N   UNL     1       2.590   0.069  22.303  0.00  0.00    -0.304 N 
ATOM      3  C   UNL     1       2.396  -0.328  21.607  0.00  0.00    +0.112 C 
ENDBRANCH   4   2
ENDBRANCH  10   7
ENDBRANCH  13  12
TORSDOF 5
ENDMDL
MODEL 4
REMARK VINA RESULT:      -9.3      1.828      2.476
REMARK  Name = 
REMARK  5 active torsions:
REMARK  status: ('A' for Active; 'I' for Inactive)
REMARK    1  A    between atoms: N_2  and  C_4
REMARK    2  A    between atoms: C_7  and  C_10
REMARK    3  A    between atoms: N_12  and  C_13
REMARK    4  A    between atoms: C_15  and  C_18
REMARK    5  A    between atoms: N_21  and  C_25
REMARK                            x       y       z     vdW  Elec       q    Type
REMARK                         _______ _______ _______ _____ _____    ______ ____
ROOT
ATOM     13  C   UNL     1      -1.132   0.348  24.509  0.00  0.00    +0.118 C 
ATOM     14  C   UNL     1      -1.363   1.086  24.796  0.00  0.00    +0.035 C 
ATOM     15  C   UNL     1      -0.681   1.530  24.933  0.00  0.00    +0.048 C 
ATOM     16  C   UNL     1      -0.029   1.066  24.732  0.00  0.00    -0.025 C 
ATOM     17  C   UNL     1      -0.309   0.334  24.470  0.00  0.00    -0.009 C 
ENDROOT
BRANCH  15  18
ATOM     18  C   UNL     1      -0.655   2.302  25.221  0.00  0.00    +0.010 A 
ATOM     19  C   UNL     1      -1.015   2.961  24.877  0.00  0.00    +0.058 A 
ATOM     20  C   UNL     1      -1.463   2.962  24.185  0.00  0.00    +0.052 C 
ATOM     21  N   UNL     1      -0.847   3.618  25.348  0.00  0.00    -0.234 N 
ATOM     22  N   UNL     1      -0.384   3.366  25.982  0.00  0.00    -0.170 NA
ATOM     23  C   UNL     1      -0.265   2.552  25.904  0.00  0.00    +0.077 A 
ATOM     24  C   UNL     1       0.168   2.073  26.419  0.00  0.00    +0.054 C 
BRANCH  21  25
ATOM     25  C   UNL     1      -1.098   4.391  25.208  0.00  0.00    +0.083 A 
ATOM     26  C   UNL     1      -0.599   4.924  24.825  0.00  0.00    +0.021 A 
ATOM     27  C   UNL     1      -0.851   5.697  24.686  0.00  0.00    +0.031 A 
ATOM     28  C   UNL     1      -1.601   5.937  24.929  0.00  0.00    +0.140 A 
ATOM     29  F   UNL     1      -1.853   6.710  24.790  0.00  0.00    -0.204 F 
ATOM     30  C   UNL     1      -2.101   5.404  25.313  0.00  0.00    +0.031 A 
ATOM     31  C   UNL     1      -1.849   4.631  25.453  0.00  0.00    +0.021 A 
ENDBRANCH  21  25
ENDBRANCH  15  18
BRANCH  13  12
ATOM     10  C   UNL     1      -2.061  -0.673  24.881  0.00  0.00    +0.265 C 
ATOM     11  O   UNL     1      -1.978  -0.457  25.673  0.00  0.00    -0.268 OA
ATOM     12  N   UNL     1      -1.637  -0.270  24.300  0.00  0.00    -0.199 NA
BRANCH  10   7
ATOM      4  C   UNL     1      -3.576  -2.525  24.252  0.00  0.00    +0.048 A 
ATOM      5  C   UNL     1      -3.858  -1.751  24.271  0.00  0.00    +0.015 A 
ATOM      6  C   UNL     1      -3.352  -1.132  24.481  0.00  0.00    +0.006 A 
ATOM      7  C   UNL     1      -2.566  -1.290  24.671  0.00  0.00    +0.055 A 
ATOM      8  C   UNL     1      -2.284  -2.065  24.652  0.00  0.00    +0.006 A 
ATOM      9  C   UNL     1      -2.790  -2.683  24.442  0.00  0.00    +0.015 A 
BRANCH   4   2
ATOM      1  C   UNL     1      -3.957  -3.899  24.346  0.00  0.00    +0.112 C 
ATOM      2  N   UNL     1      -4.081  -3.143  24.042  0.00  0.00    -0.304 N 
ATOM      3  C   UNL     1      -4.711  -3.004  23.528  0.00  0.00    +0.112 C 
ENDBRANCH   4   2
ENDBRANCH  10   7
ENDBRANCH  13  12
TORSDOF 5
ENDMDL
MODEL 5
REMARK VINA RESULT:      -8.8      4.737      5.873
REMARK  Name = 
REMARK  5 active torsions:
REMARK  status: ('A' for Active; 'I' for Inactive)
REMARK    1  A    between atoms: N_2  and  C_4
REMARK    2  A    between atoms: C_7  and  C_10
REMARK    3  A    between atoms: N_12  and  C_13
REMARK    4  A    between atoms: C_15  and  C_18
REMARK    5  A    between atoms: N_21  and  C_25
REMARK                            x       y       z     vdW  Elec       q    Type
REMARK                         _______ _______ _______ _____ _____    ______ ____
ROOT
ATOM     13  C   UNL     1       0.690   0.267  23.566  0.00  0.00    +0.118 C 
ATOM     14  C   UNL     1       0.170   0.698  24.040  0.00  0.00    +0.035 C 
ATOM     15  C   UNL     1      -0.599   0.530  23.791  0.00  0.00    +0.048 C 
ATOM     16  C   UNL     1      -0.553  -0.005  23.165  0.00  0.00    -0.025 C 
ATOM     17  C   UNL     1       0.245  -0.167  23.026  0.00  0.00    -0.009 C 
ENDROOT
BRANCH  15  18
ATOM     18  C   UNL     1      -1.291   0.842  24.113  0.00  0.00    +0.010 A 
ATOM     19  C   UNL     1      -1.628   1.570  23.925  0.00  0.00    +0.058 A 
ATOM     20  C   UNL     1      -1.332   2.116  23.381  0.00  0.00    +0.052 C 
ATOM     21  N   UNL     1      -2.314   1.658  24.375  0.00  0.00    -0.234 N 
ATOM     22  N   UNL     1      -2.401   0.984  24.842  0.00  0.00    -0.170 NA
ATOM     23  C   UNL     1      -1.768   0.479  24.680  0.00  0.00    +0.077 A 
ATOM     24  C   UNL     1      -1.636  -0.259  25.025  0.00  0.00    +0.054 C 
BRANCH  21  25
ATOM     25  C   UNL     1      -2.824   2.307  24.361  0.00  0.00    +0.083 A 
ATOM     26  C   UNL     1      -2.718   2.926  24.896  0.00  0.00    +0.021 A 
ATOM     27  C   UNL     1      -3.228   3.574  24.882  0.00  0.00    +0.031 A 
ATOM     28  C   UNL     1      -3.843   3.604  24.333  0.00  0.00    +0.140 A 
ATOM     29  F   UNL     1      -4.352   4.252  24.319  0.00  0.00    -0.204 F 
ATOM     30  C   UNL     1      -3.949   2.985  23.798  0.00  0.00    +0.031 A 
ATOM     31  C   UNL     1      -3.439   2.336  23.812  0.00  0.00    +0.021 A 
ENDBRANCH  21  25
ENDBRANCH  15  18
BRANCH  13  12
ATOM     10  C   UNL     1       1.975   0.170  22.948  0.00  0.00    +0.265 C 
ATOM     11  O   UNL     1       1.613   0.066  22.214  0.00  0.00    -0.268 OA
ATOM     12  N   UNL     1       1.513   0.271  23.624  0.00  0.00    -0.199 NA
BRANCH  10   7
ATOM      4  C   UNL     1       4.444   0.181  23.120  0.00  0.00    +0.048 A 
ATOM      5  C   UNL     1       4.048   0.847  22.842  0.00  0.00    +0.015 A 
ATOM      6  C   UNL     1       3.224   0.844  22.784  0.00  0.00    +0.006 A 
ATOM      7  C   UNL     1       2.798   0.174  23.005  0.00  0.00    +0.055 A 
ATOM      8  C   UNL     1       3.194  -0.493  23.284  0.00  0.00    +0.006 A 
ATOM      9  C   UNL     1       4.018  -0.490  23.342  0.00  0.00    +0.015 A 
BRANCH   4   2
ATOM      1  C   UNL     1       5.633   0.542  23.824  0.00  0.00    +0.112 C 
ATOM      2  N   UNL     1       5.267   0.184  23.178  0.00  0.00    -0.304 N 
ATOM      3  C   UNL     1       5.723  -0.170  22.589  0.00  0.00    +0.112 C 
ENDBRANCH   4   2
ENDBRANCH  10   7
ENDBRANCH  13  12
TORSDOF 5
ENDMDL
MODEL 6
REMARK VINA RESULT:      -8.8      3.381      5.300
REMARK  Name = 
REMARK  5 active torsions:
REMARK  status: ('A' for Active; 'I' for Inactive)
REMARK    1  A    between atoms: N_2  and  C_4
REMARK    2  A    between atoms: C_7  and  C_10
REMARK    3  A    between atoms: N_12  and  C_13
REMARK    4  A    between atoms: C_15  and  C_18
REMARK    5  A    between atoms: N_21  and  C_25
REMARK                            x       y       z     vdW  Elec       q    Type
REMARK                         _______ _______ _______ _____ _____    ______ ____
ROOT
ATOM     13  C   UNL     1      -2.654   0.334  24.750  0.00  0.00    +0.118 C 
ATOM     14  C   UNL     1      -1.836   0.420  24.687  0.00  0.00    +0.035 C 
ATOM     15  C   UNL     1      -1.530  -0.283  24.381  0.00  0.00    +0.048 C 
ATOM     16  C   UNL     1      -2.160  -0.801  24.255  0.00  0.00    -0.025 C 
ATOM     17  C   UNL     1      -2.855  -0.419  24.484  0.00  0.00    -0.009 C 
ENDROOT
BRANCH  15  18
ATOM     18  C   UNL     1      -0.735  -0.439  24.227  0.00  0.00    +0.010 A 
ATOM     19  C   UNL     1      -0.259  -0.042  23.683  0.00  0.00    +0.058 A 
ATOM     20  C   UNL     1      -0.495   0.581  23.196  0.00  0.00    +0.052 C 
ATOM     21  N   UNL     1       0.494  -0.377  23.711  0.00  0.00    -0.234 N 
ATOM     22  N   UNL     1       0.484  -0.982  24.272  0.00  0.00    -0.170 NA
ATOM     23  C   UNL     1      -0.276  -1.020  24.591  0.00  0.00    +0.077 A 
ATOM     24  C   UNL     1      -0.532  -1.547  25.173  0.00  0.00    +0.054 C 
BRANCH  21  25
ATOM     25  C   UNL     1       1.144  -0.148  23.256  0.00  0.00    +0.083 A 
ATOM     26  C   UNL     1       1.280  -0.501  22.523  0.00  0.00    +0.021 A 
ATOM     27  C   UNL     1       1.929  -0.272  22.070  0.00  0.00    +0.031 A 
ATOM     28  C   UNL     1       2.443   0.310  22.348  0.00  0.00    +0.140 A 
ATOM     29  F   UNL     1       3.093   0.538  21.895  0.00  0.00    -0.204 F 
ATOM     30  C   UNL     1       2.308   0.663  23.082  0.00  0.00    +0.031 A 
ATOM     31  C   UNL     1       1.658   0.434  23.536  0.00  0.00    +0.021 A 
ENDBRANCH  21  25
ENDBRANCH  15  18
BRANCH  13  12
ATOM     10  C   UNL     1      -3.658   1.322  24.504  0.00  0.00    +0.265 C 
ATOM     11  O   UNL     1      -3.609   1.168  23.695  0.00  0.00    -0.268 OA
ATOM     12  N   UNL     1      -3.180   0.904  25.032  0.00  0.00    -0.199 NA
BRANCH  10   7
ATOM      4  C   UNL     1      -5.236   3.032  25.348  0.00  0.00    +0.048 A 
ATOM      5  C   UNL     1      -4.428   3.193  25.323  0.00  0.00    +0.015 A 
ATOM      6  C   UNL     1      -3.901   2.623  25.041  0.00  0.00    +0.006 A 
ATOM      7  C   UNL     1      -4.184   1.892  24.785  0.00  0.00    +0.055 A 
ATOM      8  C   UNL     1      -4.992   1.730  24.810  0.00  0.00    +0.006 A 
ATOM      9  C   UNL     1      -5.518   2.301  25.092  0.00  0.00    +0.015 A 
BRANCH   4   2
ATOM      1  C   UNL     1      -6.413   3.375  26.081  0.00  0.00    +0.112 C 
ATOM      2  N   UNL     1      -5.762   3.602  25.629  0.00  0.00    -0.304 N 
ATOM      3  C   UNL     1      -5.636   4.398  25.458  0.00  0.00    +0.112 C 
ENDBRANCH   4   2
ENDBRANCH  10   7
ENDBRANCH  13  12
TORSDOF 5
ENDMDL
MODEL 7
REMARK VINA RESULT:      -8.6      2.641      6.712
REMARK  Name = 
REMARK  5 active torsions:
REMARK  status: ('A' for Active; 'I' for Inactive)
REMARK    1  A    between atoms: N_2  and  C_4
REMARK    2  A    between atoms: C_7  and  C_10
REMARK    3  A    between atoms: N_12  and  C_13
REMARK    4  A    between atoms: C_15  and  C_18
REMARK    5  A    between atoms: N_21  and  C_25
REMARK                            x       y       z     vdW  Elec       q    Type
REMARK                         _______ _______ _______ _____ _____    ______ ____
ROOT
ATOM     13  C   UNL     1      -1.002   1.160  25.478  0.00  0.00    +0.118 C 
ATOM     14  C   UNL     1      -1.334   0.623  24.948  0.00  0.00    +0.035 C 
ATOM     15  C   UNL     1      -1.302  -0.127  25.293  0.00  0.00    +0.048 C 
ATOM     16  C   UNL     1      -0.949  -0.051  26.035  0.00  0.00    -0.025 C 
ATOM     17  C   UNL     1      -0.764   0.745  26.149  0.00  0.00    -0.009 C 
ENDROOT
BRANCH  15  18
ATOM     18  C   UNL     1      -1.574  -0.828  24.954  0.00  0.00    +0.010 A 
ATOM     19  C   UNL     1      -2.364  -1.050  24.867  0.00  0.00    +0.058 A 
ATOM     20  C   UNL     1      -3.020  -0.610  25.103  0.00  0.00    +0.052 C 
ATOM     21  N   UNL     1      -2.382  -1.790  24.502  0.00  0.00    -0.234 N 
ATOM     22  N   UNL     1      -1.604  -2.025  24.363  0.00  0.00    -0.170 NA
ATOM     23  C   UNL     1      -1.104  -1.430  24.643  0.00  0.00    +0.077 A 
ATOM     24  C   UNL     1      -0.279  -1.437  24.616  0.00  0.00    +0.054 C 
BRANCH  21  25
ATOM     25  C   UNL     1      -3.060  -2.219  24.309  0.00  0.00    +0.083 A 
ATOM     26  C   UNL     1      -3.183  -2.966  24.638  0.00  0.00    +0.021 A 
ATOM     27  C   UNL     1      -3.860  -3.394  24.445  0.00  0.00    +0.031 A 
ATOM     28  C   UNL     1      -4.415  -3.077  23.924  0.00  0.00    +0.140 A 
ATOM     29  F   UNL     1      -5.093  -3.506  23.731  0.00  0.00    -0.204 F 
ATOM     30  C   UNL     1      -4.293  -2.331  23.595  0.00  0.00    +0.031 A 
ATOM     31  C   UNL     1      -3.614  -1.901  23.788  0.00  0.00    +0.021 A 
ENDBRANCH  21  25
ENDBRANCH  15  18
BRANCH  13  12
ATOM     10  C   UNL     1      -1.574   2.469  25.443  0.00  0.00    +0.265 C 
ATOM     11  O   UNL     1      -2.307   2.153  25.650  0.00  0.00    -0.268 OA
ATOM     12  N   UNL     1      -0.921   1.972  25.358  0.00  0.00    -0.199 NA
BRANCH  10   7
ATOM      4  C   UNL     1      -1.333   4.906  25.081  0.00  0.00    +0.048 A 
ATOM      5  C   UNL     1      -1.983   4.613  25.494  0.00  0.00    +0.015 A 
ATOM      6  C   UNL     1      -2.064   3.800  25.615  0.00  0.00    +0.006 A 
ATOM      7  C   UNL     1      -1.494   3.281  25.322  0.00  0.00    +0.055 A 
ATOM      8  C   UNL     1      -0.843   3.574  24.909  0.00  0.00    +0.006 A 
ATOM      9  C   UNL     1      -0.762   4.387  24.788  0.00  0.00    +0.015 A 
BRANCH   4   2
ATOM      1  C   UNL     1      -1.900   6.216  25.068  0.00  0.00    +0.112 C 
ATOM      2  N   UNL     1      -1.252   5.718  24.960  0.00  0.00    -0.304 N 
ATOM      3  C   UNL     1      -0.524   6.030  24.731  0.00  0.00    +0.112 C 
ENDBRANCH   4   2
ENDBRANCH  10   7
ENDBRANCH  13  12
TORSDOF 5
ENDMDL
