REMARK  Name = 
REMARK  6 active torsions:
REMARK  status: ('A' for Active; 'I' for Inactive)
REMARK    1  A    between atoms: O_2  and  C_3
REMARK    2  A    between atoms: C_3  and  C_4
REMARK    3  A    between atoms: C_4  and  O_5
REMARK    4  A    between atoms: O_5  and  C_6
REMARK    5  A    between atoms: C_13  and  C_18
REMARK    6  A    between atoms: C_18  and  C_20
REMARK                            x       y       z     vdW  Elec       q    Type
REMARK                         _______ _______ _______ _____ _____    ______ ____
ROOT
ATOM      6  C   UNL     1       5.716  -2.475   0.000  0.00  0.00    +0.134 A 
ATOM      7  C   UNL     1       5.716  -1.650   0.000  0.00  0.00    +0.032 A 
ATOM      8  C   UNL     1       6.430  -1.238   0.000  0.00  0.00    -0.023 A 
ATOM      9  C   UNL     1       6.430  -0.412   0.000  0.00  0.00    +0.031 C 
ATOM     10  C   UNL     1       7.145  -1.650   0.000  0.00  0.00    -0.030 A 
ATOM     11  C   UNL     1       7.859  -1.238   0.000  0.00  0.00    +0.026 C 
ATOM     12  C   UNL     1       8.574  -1.650   0.000  0.00  0.00    +0.005 C 
ATOM     13  C   UNL     1       8.574  -2.475   0.000  0.00  0.00    +0.013 C 
ATOM     14  C   UNL     1       7.859  -2.888   0.000  0.00  0.00    +0.026 C 
ATOM     15  C   UNL     1       7.145  -2.475   0.000  0.00  0.00    -0.027 A 
ATOM     16  C   UNL     1       6.430  -2.888   0.000  0.00  0.00    +0.008 A 
ATOM     17  C   UNL     1       6.430  -3.712   0.000  0.00  0.00    +0.034 C 
ENDROOT
BRANCH  13  18
ATOM     18  C   UNL     1       9.288  -2.888   0.000  0.00  0.00    +0.077 C 
ATOM     19  C   UNL     1       9.288  -3.712   0.000  0.00  0.00    +0.010 C 
BRANCH  18  20
ATOM     20  C   UNL     1      10.003  -2.475   0.000  0.00  0.00    +0.225 C 
ATOM     21  O   UNL     1      10.003  -1.650   0.000  0.00  0.00    -0.275 OA
ATOM     22  N   UNL     1      10.717  -2.888   0.000  0.00  0.00    -0.280 N 
ATOM     23  C   UNL     1      11.431  -2.475   0.000  0.00  0.00    +0.093 C 
ATOM     24  C   UNL     1      12.146  -2.888   0.000  0.00  0.00    +0.022 C 
ATOM     25  C   UNL     1      12.146  -3.712   0.000  0.00  0.00    +0.004 C 
ATOM     26  C   UNL     1      11.431  -4.125   0.000  0.00  0.00    +0.022 C 
ATOM     27  C   UNL     1      10.717  -3.712   0.000  0.00  0.00    +0.093 C 
ENDBRANCH  18  20
ENDBRANCH  13  18
BRANCH   6   5
ATOM      5  O   UNL     1       5.001  -2.888   0.000  0.00  0.00    -0.473 OA
BRANCH   5   4
ATOM      4  C   UNL     1       4.287  -2.475   0.000  0.00  0.00    +0.237 C 
BRANCH   4   3
ATOM      3  C   UNL     1       3.572  -2.888   0.000  0.00  0.00    +0.189 C 
BRANCH   3   2
ATOM      1  C   UNL     1       2.143  -2.888   0.000  0.00  0.00    +0.174 C 
ATOM      2  O   UNL     1       2.858  -2.475   0.000  0.00  0.00    -0.347 OA
ENDBRANCH   3   2
ENDBRANCH   4   3
ENDBRANCH   5   4
ENDBRANCH   6   5
TORSDOF 6
