MODEL 1
REMARK VINA RESULT:     -10.6      0.000      0.000
REMARK  Name = 
REMARK  9 active torsions:
REMARK  status: ('A' for Active; 'I' for Inactive)
REMARK    1  A    between atoms: O_2  and  C_3
REMARK    2  A    between atoms: C_6  and  C_7
REMARK    3  A    between atoms: C_7  and  N_8
REMARK    4  A    between atoms: C_9  and  C_11
REMARK    5  A    between atoms: C_11  and  C_12
REMARK    6  A    between atoms: C_14  and  C_15
REMARK    7  A    between atoms: C_18  and  C_19
REMARK    8  A    between atoms: C_19  and  N_20
REMARK    9  A    between atoms: C_21  and  C_23
REMARK                            x       y       z     vdW  Elec       q    Type
REMARK                         _______ _______ _______ _____ _____    ______ ____
ROOT
ATOM     12  C   UNL     1      -4.690   1.807  24.766  0.00  0.00    +0.027 C 
ATOM     13  C   UNL     1      -3.979   1.719  24.358  0.00  0.00    +0.005 C 
ATOM     14  C   UNL     1      -3.697   0.965  24.179  0.00  0.00    +0.006 C 
ATOM     18  C   UNL     1      -4.125   0.299  24.409  0.00  0.00    +0.043 C 
ATOM     29  C   UNL     1      -4.837   0.386  24.817  0.00  0.00    -0.033 C 
ATOM     30  C   UNL     1      -5.119   1.140  24.995  0.00  0.00    -0.048 C 
ATOM     31  C   UNL     1      -5.831   1.228  25.404  0.00  0.00    +0.026 C 
ENDROOT
BRANCH  14  15
ATOM     15  C   UNL     1      -2.985   0.877  23.771  0.00  0.00    +0.000 C 
ATOM     16  C   UNL     1      -2.274   0.815  24.186  0.00  0.00    +0.000 C 
ATOM     17  C   UNL     1      -2.984   0.850  22.946  0.00  0.00    +0.000 C 
ENDBRANCH  14  15
BRANCH  12  11
ATOM     11  C   UNL     1      -4.974   2.561  24.945  0.00  0.00    +0.091 C 
BRANCH  11   9
ATOM      8  N   UNL     1      -3.939   3.505  25.226  0.00  0.00    -0.201 NA
ATOM      9  C   UNL     1      -4.569   3.037  25.482  0.00  0.00    +0.242 C 
ATOM     10  O   UNL     1      -4.793   3.046  26.276  0.00  0.00    -0.273 OA
BRANCH   8   7
ATOM      7  C   UNL     1      -3.534   3.982  25.764  0.00  0.00    +0.141 C 
BRANCH   7   6
ATOM      3  C   UNL     1      -1.290   4.860  25.196  0.00  0.00    +0.139 A 
ATOM      4  C   UNL     1      -1.966   5.243  24.919  0.00  0.00    +0.037 A 
ATOM      5  C   UNL     1      -2.714   4.951  25.108  0.00  0.00    +0.001 A 
ATOM      6  C   UNL     1      -2.786   4.274  25.575  0.00  0.00    -0.000 A 
ATOM     32  C   UNL     1      -2.111   3.891  25.852  0.00  0.00    +0.001 A 
ATOM     33  C   UNL     1      -1.362   4.183  25.663  0.00  0.00    +0.037 A 
BRANCH   3   2
ATOM      1  C   UNL     1      -0.150   4.878  24.335  0.00  0.00    +0.252 C 
ATOM      2  O   UNL     1      -0.543   5.152  25.007  0.00  0.00    -0.471 OA
ENDBRANCH   3   2
ENDBRANCH   7   6
ENDBRANCH   8   7
ENDBRANCH  11   9
ENDBRANCH  12  11
BRANCH  18  19
ATOM     19  C   UNL     1      -3.842  -0.456  24.230  0.00  0.00    +0.120 C 
BRANCH  19  20
ATOM     20  N   UNL     1      -4.350  -1.022  23.909  0.00  0.00    -0.201 NA
ATOM     21  C   UNL     1      -4.180  -1.825  23.994  0.00  0.00    +0.268 C 
ATOM     22  O   UNL     1      -4.687  -2.391  23.673  0.00  0.00    -0.268 OA
BRANCH  21  23
ATOM     23  C   UNL     1      -3.501  -2.061  24.399  0.00  0.00    +0.093 A 
ATOM     24  C   UNL     1      -3.509  -2.112  25.223  0.00  0.00    +0.107 A 
ATOM     25  N   UNL     1      -2.830  -2.349  25.628  0.00  0.00    -0.222 NA
ATOM     26  C   UNL     1      -2.144  -2.534  25.209  0.00  0.00    +0.199 A 
ATOM     27  N   UNL     1      -2.136  -2.484  24.386  0.00  0.00    -0.222 NA
ATOM     28  C   UNL     1      -2.815  -2.247  23.980  0.00  0.00    +0.107 A 
ENDBRANCH  21  23
ENDBRANCH  19  20
ENDBRANCH  18  19
TORSDOF 9
ENDMDL
MODEL 2
REMARK VINA RESULT:      -9.8      1.729      3.351
REMARK  Name = 
REMARK  9 active torsions:
REMARK  status: ('A' for Active; 'I' for Inactive)
REMARK    1  A    between atoms: O_2  and  C_3
REMARK    2  A    between atoms: C_6  and  C_7
REMARK    3  A    between atoms: C_7  and  N_8
REMARK    4  A    between atoms: C_9  and  C_11
REMARK    5  A    between atoms: C_11  and  C_12
REMARK    6  A    between atoms: C_14  and  C_15
REMARK    7  A    between atoms: C_18  and  C_19
REMARK    8  A    between atoms: C_19  and  N_20
REMARK    9  A    between atoms: C_21  and  C_23
REMARK                            x       y       z     vdW  Elec       q    Type
REMARK                         _______ _______ _______ _____ _____    ______ ____
ROOT
ATOM     12  C   UNL     1      -0.531   2.383  25.250  0.00  0.00    +0.027 C 
ATOM     13  C   UNL     1      -0.727   2.134  24.489  0.00  0.00    +0.005 C 
ATOM     14  C   UNL     1      -0.851   1.334  24.336  0.00  0.00    +0.006 C 
ATOM     18  C   UNL     1      -0.779   0.781  24.944  0.00  0.00    +0.043 C 
ATOM     29  C   UNL     1      -0.583   1.029  25.706  0.00  0.00    -0.033 C 
ATOM     30  C   UNL     1      -0.459   1.830  25.859  0.00  0.00    -0.048 C 
ATOM     31  C   UNL     1      -0.263   2.079  26.621  0.00  0.00    +0.026 C 
ENDROOT
BRANCH  14  15
ATOM     15  C   UNL     1      -1.048   1.084  23.574  0.00  0.00    +0.000 C 
ATOM     16  C   UNL     1      -0.463   0.789  23.072  0.00  0.00    +0.000 C 
ATOM     17  C   UNL     1      -1.829   1.130  23.314  0.00  0.00    +0.000 C 
ENDBRANCH  14  15
BRANCH  12  11
ATOM     11  C   UNL     1      -0.407   3.184  25.404  0.00  0.00    +0.091 C 
BRANCH  11   9
ATOM      8  N   UNL     1      -1.720   3.739  25.510  0.00  0.00    -0.201 NA
ATOM      9  C   UNL     1      -0.968   3.741  25.170  0.00  0.00    +0.242 C 
ATOM     10  O   UNL     1      -0.777   4.301  24.595  0.00  0.00    -0.273 OA
BRANCH   8   7
ATOM      7  C   UNL     1      -2.280   4.296  25.276  0.00  0.00    +0.141 C 
BRANCH   7   6
ATOM      3  C   UNL     1      -4.694   3.779  25.457  0.00  0.00    +0.139 A 
ATOM      4  C   UNL     1      -4.344   3.864  24.715  0.00  0.00    +0.037 A 
ATOM      5  C   UNL     1      -3.540   4.036  24.655  0.00  0.00    +0.001 A 
ATOM      6  C   UNL     1      -3.085   4.124  25.337  0.00  0.00    -0.000 A 
ATOM     32  C   UNL     1      -3.434   4.039  26.079  0.00  0.00    +0.001 A 
ATOM     33  C   UNL     1      -4.239   3.866  26.140  0.00  0.00    +0.037 A 
BRANCH   3   2
ATOM      1  C   UNL     1      -5.744   2.841  25.703  0.00  0.00    +0.252 C 
ATOM      2  O   UNL     1      -5.498   3.607  25.518  0.00  0.00    -0.471 OA
ENDBRANCH   3   2
ENDBRANCH   7   6
ENDBRANCH   8   7
ENDBRANCH  11   9
ENDBRANCH  12  11
BRANCH  18  19
ATOM     19  C   UNL     1      -0.903  -0.021  24.791  0.00  0.00    +0.120 C 
BRANCH  19  20
ATOM     20  N   UNL     1      -0.386  -0.585  25.099  0.00  0.00    -0.201 NA
ATOM     21  C   UNL     1      -0.653  -1.352  25.249  0.00  0.00    +0.268 C 
ATOM     22  O   UNL     1      -0.135  -1.915  25.557  0.00  0.00    -0.268 OA
BRANCH  21  23
ATOM     23  C   UNL     1      -1.436  -1.553  25.091  0.00  0.00    +0.093 A 
ATOM     24  C   UNL     1      -2.032  -1.345  25.622  0.00  0.00    +0.107 A 
ATOM     25  N   UNL     1      -2.816  -1.546  25.464  0.00  0.00    -0.222 NA
ATOM     26  C   UNL     1      -3.004  -1.957  24.772  0.00  0.00    +0.199 A 
ATOM     27  N   UNL     1      -2.409  -2.166  24.241  0.00  0.00    -0.222 NA
ATOM     28  C   UNL     1      -1.624  -1.963  24.400  0.00  0.00    +0.107 A 
ENDBRANCH  21  23
ENDBRANCH  19  20
ENDBRANCH  18  19
TORSDOF 9
ENDMDL
MODEL 3
REMARK VINA RESULT:      -9.7      2.022      4.977
REMARK  Name = 
REMARK  9 active torsions:
REMARK  status: ('A' for Active; 'I' for Inactive)
REMARK    1  A    between atoms: O_2  and  C_3
REMARK    2  A    between atoms: C_6  and  C_7
REMARK    3  A    between atoms: C_7  and  N_8
REMARK    4  A    between atoms: C_9  and  C_11
REMARK    5  A    between atoms: C_11  and  C_12
REMARK    6  A    between atoms: C_14  and  C_15
REMARK    7  A    between atoms: C_18  and  C_19
REMARK    8  A    between atoms: C_19  and  N_20
REMARK    9  A    between atoms: C_21  and  C_23
REMARK                            x       y       z     vdW  Elec       q    Type
REMARK                         _______ _______ _______ _____ _____    ______ ____
ROOT
ATOM     12  C   UNL     1      -1.554   2.851  24.850  0.00  0.00    +0.027 C 
ATOM     13  C   UNL     1      -1.964   2.590  24.184  0.00  0.00    +0.005 C 
ATOM     14  C   UNL     1      -2.786   2.645  24.157  0.00  0.00    +0.006 C 
ATOM     18  C   UNL     1      -3.199   2.961  24.797  0.00  0.00    +0.043 C 
ATOM     29  C   UNL     1      -2.790   3.223  25.464  0.00  0.00    -0.033 C 
ATOM     30  C   UNL     1      -1.968   3.167  25.490  0.00  0.00    -0.048 C 
ATOM     31  C   UNL     1      -1.558   3.429  26.157  0.00  0.00    +0.026 C 
ENDROOT
BRANCH  14  15
ATOM     15  C   UNL     1      -3.196   2.384  23.490  0.00  0.00    +0.000 C 
ATOM     16  C   UNL     1      -3.395   1.586  23.412  0.00  0.00    +0.000 C 
ATOM     17  C   UNL     1      -3.408   2.920  22.900  0.00  0.00    +0.000 C 
ENDBRANCH  14  15
BRANCH  12  11
ATOM     11  C   UNL     1      -0.732   2.796  24.877  0.00  0.00    +0.091 C 
BRANCH  11   9
ATOM      8  N   UNL     1      -0.409   1.404  24.917  0.00  0.00    -0.201 NA
ATOM      9  C   UNL     1      -0.350   2.142  24.551  0.00  0.00    +0.242 C 
ATOM     10  O   UNL     1       0.090   2.224  23.858  0.00  0.00    -0.273 OA
BRANCH   8   7
ATOM      7  C   UNL     1      -0.028   0.750  24.590  0.00  0.00    +0.141 C 
BRANCH   7   6
ATOM      3  C   UNL     1      -0.987  -1.514  24.873  0.00  0.00    +0.139 A 
ATOM      4  C   UNL     1      -0.643  -1.298  24.155  0.00  0.00    +0.037 A 
ATOM      5  C   UNL     1      -0.324  -0.543  24.061  0.00  0.00    +0.001 A 
ATOM      6  C   UNL     1      -0.347  -0.005  24.685  0.00  0.00    -0.000 A 
ATOM     32  C   UNL     1      -0.690  -0.221  25.403  0.00  0.00    +0.001 A 
ATOM     33  C   UNL     1      -1.010  -0.976  25.498  0.00  0.00    +0.037 A 
BRANCH   3   2
ATOM      1  C   UNL     1      -2.031  -2.456  24.622  0.00  0.00    +0.252 C 
ATOM      2  O   UNL     1      -1.306  -2.268  24.968  0.00  0.00    -0.471 OA
ENDBRANCH   3   2
ENDBRANCH   7   6
ENDBRANCH   8   7
ENDBRANCH  11   9
ENDBRANCH  12  11
BRANCH  18  19
ATOM     19  C   UNL     1      -4.022   3.017  24.770  0.00  0.00    +0.120 C 
BRANCH  19  20
ATOM     20  N   UNL     1      -4.397   3.712  25.008  0.00  0.00    -0.201 NA
ATOM     21  C   UNL     1      -5.159   3.683  25.325  0.00  0.00    +0.268 C 
ATOM     22  O   UNL     1      -5.534   4.379  25.563  0.00  0.00    -0.268 OA
BRANCH  21  23
ATOM     23  C   UNL     1      -5.545   2.958  25.404  0.00  0.00    +0.093 A 
ATOM     24  C   UNL     1      -5.992   2.658  24.779  0.00  0.00    +0.107 A 
ATOM     25  N   UNL     1      -6.378   1.934  24.858  0.00  0.00    -0.222 NA
ATOM     26  C   UNL     1      -6.316   1.509  25.563  0.00  0.00    +0.199 A 
ATOM     27  N   UNL     1      -5.869   1.809  26.188  0.00  0.00    -0.222 NA
ATOM     28  C   UNL     1      -5.483   2.534  26.109  0.00  0.00    +0.107 A 
ENDBRANCH  21  23
ENDBRANCH  19  20
ENDBRANCH  18  19
TORSDOF 9
ENDMDL
MODEL 4
REMARK VINA RESULT:      -9.6      1.581      5.097
REMARK  Name = 
REMARK  9 active torsions:
REMARK  status: ('A' for Active; 'I' for Inactive)
REMARK    1  A    between atoms: O_2  and  C_3
REMARK    2  A    between atoms: C_6  and  C_7
REMARK    3  A    between atoms: C_7  and  N_8
REMARK    4  A    between atoms: C_9  and  C_11
REMARK    5  A    between atoms: C_11  and  C_12
REMARK    6  A    between atoms: C_14  and  C_15
REMARK    7  A    between atoms: C_18  and  C_19
REMARK    8  A    between atoms: C_19  and  N_20
REMARK    9  A    between atoms: C_21  and  C_23
REMARK                            x       y       z     vdW  Elec       q    Type
REMARK                         _______ _______ _______ _____ _____    ______ ____
ROOT
ATOM     12  C   UNL     1      -4.638   2.389  25.001  0.00  0.00    +0.027 C 
ATOM     13  C   UNL     1      -4.290   2.342  24.255  0.00  0.00    +0.005 C 
ATOM     14  C   UNL     1      -3.595   2.757  24.098  0.00  0.00    +0.006 C 
ATOM     18  C   UNL     1      -3.247   3.218  24.687  0.00  0.00    +0.043 C 
ATOM     29  C   UNL     1      -3.595   3.265  25.433  0.00  0.00    -0.033 C 
ATOM     30  C   UNL     1      -4.291   2.850  25.590  0.00  0.00    -0.048 C 
ATOM     31  C   UNL     1      -4.639   2.897  26.337  0.00  0.00    +0.026 C 
ENDROOT
BRANCH  14  15
ATOM     15  C   UNL     1      -3.246   2.710  23.352  0.00  0.00    +0.000 C 
ATOM     16  C   UNL     1      -2.715   2.102  23.180  0.00  0.00    +0.000 C 
ATOM     17  C   UNL     1      -3.428   3.272  22.776  0.00  0.00    +0.000 C 
ENDBRANCH  14  15
BRANCH  12  11
ATOM     11  C   UNL     1      -5.334   1.974  25.159  0.00  0.00    +0.091 C 
BRANCH  11   9
ATOM      8  N   UNL     1      -4.947   0.602  25.071  0.00  0.00    -0.201 NA
ATOM      9  C   UNL     1      -5.445   1.220  24.846  0.00  0.00    +0.242 C 
ATOM     10  O   UNL     1      -6.055   1.082  24.308  0.00  0.00    -0.273 OA
BRANCH   8   7
ATOM      7  C   UNL     1      -5.058  -0.153  24.758  0.00  0.00    +0.141 C 
BRANCH   7   6
ATOM      3  C   UNL     1      -3.236  -1.825  24.873  0.00  0.00    +0.139 A 
ATOM      4  C   UNL     1      -3.678  -1.741  24.181  0.00  0.00    +0.037 A 
ATOM      5  C   UNL     1      -4.284  -1.184  24.143  0.00  0.00    +0.001 A 
ATOM      6  C   UNL     1      -4.451  -0.710  24.797  0.00  0.00    -0.000 A 
ATOM     32  C   UNL     1      -4.010  -0.793  25.489  0.00  0.00    +0.001 A 
ATOM     33  C   UNL     1      -3.403  -1.351  25.528  0.00  0.00    +0.037 A 
BRANCH   3   2
ATOM      1  C   UNL     1      -1.886  -2.204  24.602  0.00  0.00    +0.252 C 
ATOM      2  O   UNL     1      -2.630  -2.381  24.912  0.00  0.00    -0.471 OA
ENDBRANCH   3   2
ENDBRANCH   7   6
ENDBRANCH   8   7
ENDBRANCH  11   9
ENDBRANCH  12  11
BRANCH  18  19
ATOM     19  C   UNL     1      -2.551   3.633  24.530  0.00  0.00    +0.120 C 
BRANCH  19  20
ATOM     20  N   UNL     1      -2.447   4.394  24.832  0.00  0.00    -0.201 NA
ATOM     21  C   UNL     1      -1.695   4.649  25.057  0.00  0.00    +0.268 C 
ATOM     22  O   UNL     1      -1.591   5.410  25.359  0.00  0.00    -0.268 OA
BRANCH  21  23
ATOM     23  C   UNL     1      -1.048   4.144  24.979  0.00  0.00    +0.093 A 
ATOM     24  C   UNL     1      -0.852   3.626  25.590  0.00  0.00    +0.107 A 
ATOM     25  N   UNL     1      -0.205   3.120  25.513  0.00  0.00    -0.222 NA
ATOM     26  C   UNL     1       0.247   3.133  24.822  0.00  0.00    +0.199 A 
ATOM     27  N   UNL     1       0.051   3.651  24.210  0.00  0.00    -0.222 NA
ATOM     28  C   UNL     1      -0.596   4.157  24.289  0.00  0.00    +0.107 A 
ENDBRANCH  21  23
ENDBRANCH  19  20
ENDBRANCH  18  19
TORSDOF 9
ENDMDL
MODEL 5
REMARK VINA RESULT:      -9.5      2.981      5.041
REMARK  Name = 
REMARK  9 active torsions:
REMARK  status: ('A' for Active; 'I' for Inactive)
REMARK    1  A    between atoms: O_2  and  C_3
REMARK    2  A    between atoms: C_6  and  C_7
REMARK    3  A    between atoms: C_7  and  N_8
REMARK    4  A    between atoms: C_9  and  C_11
REMARK    5  A    between atoms: C_11  and  C_12
REMARK    6  A    between atoms: C_14  and  C_15
REMARK    7  A    between atoms: C_18  and  C_19
REMARK    8  A    between atoms: C_19  and  N_20
REMARK    9  A    between atoms: C_21  and  C_23
REMARK                            x       y       z     vdW  Elec       q    Type
REMARK                         _______ _______ _______ _____ _____    ______ ____
ROOT
ATOM     12  C   UNL     1      -1.513   0.623  24.967  0.00  0.00    +0.027 C 
ATOM     13  C   UNL     1      -2.142   0.151  24.722  0.00  0.00    +0.005 C 
ATOM     14  C   UNL     1      -2.889   0.483  24.614  0.00  0.00    +0.006 C 
ATOM     18  C   UNL     1      -3.007   1.288  24.752  0.00  0.00    +0.043 C 
ATOM     29  C   UNL     1      -2.377   1.761  24.997  0.00  0.00    -0.033 C 
ATOM     30  C   UNL     1      -1.630   1.428  25.105  0.00  0.00    -0.048 C 
ATOM     31  C   UNL     1      -1.000   1.901  25.350  0.00  0.00    +0.026 C 
ENDROOT
BRANCH  14  15
ATOM     15  C   UNL     1      -3.520   0.010  24.368  0.00  0.00    +0.000 C 
ATOM     16  C   UNL     1      -3.720  -0.029  23.569  0.00  0.00    +0.000 C 
ATOM     17  C   UNL     1      -3.951  -0.422  24.923  0.00  0.00    +0.000 C 
ENDBRANCH  14  15
BRANCH  12  11
ATOM     11  C   UNL     1      -0.765   0.291  25.075  0.00  0.00    +0.091 C 
BRANCH  11   9
ATOM      8  N   UNL     1       0.169   0.189  23.998  0.00  0.00    -0.201 NA
ATOM      9  C   UNL     1      -0.417  -0.149  24.471  0.00  0.00    +0.242 C 
ATOM     10  O   UNL     1      -0.655  -0.928  24.339  0.00  0.00    -0.273 OA
BRANCH   8   7
ATOM      7  C   UNL     1       0.516  -0.251  23.394  0.00  0.00    +0.141 C 
BRANCH   7   6
ATOM      3  C   UNL     1       2.711   0.426  22.471  0.00  0.00    +0.139 A 
ATOM      4  C   UNL     1       2.264  -0.154  22.091  0.00  0.00    +0.037 A 
ATOM      5  C   UNL     1       1.533  -0.379  22.398  0.00  0.00    +0.001 A 
ATOM      6  C   UNL     1       1.248  -0.025  23.087  0.00  0.00    -0.000 A 
ATOM     32  C   UNL     1       1.695   0.555  23.467  0.00  0.00    +0.001 A 
ATOM     33  C   UNL     1       2.426   0.781  23.159  0.00  0.00    +0.037 A 
BRANCH   3   2
ATOM      1  C   UNL     1       4.083   0.775  22.669  0.00  0.00    +0.252 C 
ATOM      2  O   UNL     1       3.442   0.652  22.164  0.00  0.00    -0.471 OA
ENDBRANCH   3   2
ENDBRANCH   7   6
ENDBRANCH   8   7
ENDBRANCH  11   9
ENDBRANCH  12  11
BRANCH  18  19
ATOM     19  C   UNL     1      -3.755   1.620  24.644  0.00  0.00    +0.120 C 
BRANCH  19  20
ATOM     20  N   UNL     1      -3.842   2.297  24.180  0.00  0.00    -0.201 NA
ATOM     21  C   UNL     1      -4.478   2.808  24.311  0.00  0.00    +0.268 C 
ATOM     22  O   UNL     1      -4.565   3.484  23.847  0.00  0.00    -0.268 OA
BRANCH  21  23
ATOM     23  C   UNL     1      -5.024   2.641  24.906  0.00  0.00    +0.093 A 
ATOM     24  C   UNL     1      -5.681   2.169  24.743  0.00  0.00    +0.107 A 
ATOM     25  N   UNL     1      -6.228   2.003  25.338  0.00  0.00    -0.222 NA
ATOM     26  C   UNL     1      -6.117   2.309  26.097  0.00  0.00    +0.199 A 
ATOM     27  N   UNL     1      -5.460   2.781  26.259  0.00  0.00    -0.222 NA
ATOM     28  C   UNL     1      -4.913   2.947  25.663  0.00  0.00    +0.107 A 
ENDBRANCH  21  23
ENDBRANCH  19  20
ENDBRANCH  18  19
TORSDOF 9
ENDMDL
MODEL 6
REMARK VINA RESULT:      -9.5      3.886      5.201
REMARK  Name = 
REMARK  9 active torsions:
REMARK  status: ('A' for Active; 'I' for Inactive)
REMARK    1  A    between atoms: O_2  and  C_3
REMARK    2  A    between atoms: C_6  and  C_7
REMARK    3  A    between atoms: C_7  and  N_8
REMARK    4  A    between atoms: C_9  and  C_11
REMARK    5  A    between atoms: C_11  and  C_12
REMARK    6  A    between atoms: C_14  and  C_15
REMARK    7  A    between atoms: C_18  and  C_19
REMARK    8  A    between atoms: C_19  and  N_20
REMARK    9  A    between atoms: C_21  and  C_23
REMARK                            x       y       z     vdW  Elec       q    Type
REMARK                         _______ _______ _______ _____ _____    ______ ____
ROOT
ATOM     12  C   UNL     1      -0.274   0.481  23.917  0.00  0.00    +0.027 C 
ATOM     13  C   UNL     1      -0.166  -0.268  24.246  0.00  0.00    +0.005 C 
ATOM     14  C   UNL     1      -0.812  -0.684  24.544  0.00  0.00    +0.006 C 
ATOM     18  C   UNL     1      -1.567  -0.353  24.513  0.00  0.00    +0.043 C 
ATOM     29  C   UNL     1      -1.676   0.396  24.184  0.00  0.00    -0.033 C 
ATOM     30  C   UNL     1      -1.029   0.812  23.886  0.00  0.00    -0.048 C 
ATOM     31  C   UNL     1      -1.137   1.562  23.557  0.00  0.00    +0.026 C 
ENDROOT
BRANCH  14  15
ATOM     15  C   UNL     1      -0.705  -1.433  24.873  0.00  0.00    +0.000 C 
ATOM     16  C   UNL     1      -0.577  -1.514  25.684  0.00  0.00    +0.000 C 
ATOM     17  C   UNL     1      -0.725  -2.102  24.391  0.00  0.00    +0.000 C 
ENDBRANCH  14  15
BRANCH  12  11
ATOM     11  C   UNL     1       0.372   0.898  23.619  0.00  0.00    +0.091 C 
BRANCH  11   9
ATOM      8  N   UNL     1       1.706   0.578  23.218  0.00  0.00    -0.201 NA
ATOM      9  C   UNL     1       0.891   0.534  23.092  0.00  0.00    +0.242 C 
ATOM     10  O   UNL     1       0.597   0.126  22.439  0.00  0.00    -0.273 OA
BRANCH   8   7
ATOM      7  C   UNL     1       2.225   0.215  22.691  0.00  0.00    +0.141 C 
BRANCH   7   6
ATOM      3  C   UNL     1       4.661   0.243  23.132  0.00  0.00    +0.139 A 
ATOM      4  C   UNL     1       4.289   0.911  22.820  0.00  0.00    +0.037 A 
ATOM      5  C   UNL     1       3.478   0.901  22.673  0.00  0.00    +0.001 A 
ATOM      6  C   UNL     1       3.037   0.224  22.838  0.00  0.00    -0.000 A 
ATOM     32  C   UNL     1       3.408  -0.443  23.150  0.00  0.00    +0.001 A 
ATOM     33  C   UNL     1       4.220  -0.434  23.298  0.00  0.00    +0.037 A 
BRANCH   3   2
ATOM      1  C   UNL     1       5.752   0.195  24.053  0.00  0.00    +0.252 C 
ATOM      2  O   UNL     1       5.472   0.253  23.279  0.00  0.00    -0.471 OA
ENDBRANCH   3   2
ENDBRANCH   7   6
ENDBRANCH   8   7
ENDBRANCH  11   9
ENDBRANCH  12  11
BRANCH  18  19
ATOM     19  C   UNL     1      -2.214  -0.770  24.811  0.00  0.00    +0.120 C 
BRANCH  19  20
ATOM     20  N   UNL     1      -2.778  -0.382  25.271  0.00  0.00    -0.201 NA
ATOM     21  C   UNL     1      -3.554  -0.663  25.296  0.00  0.00    +0.268 C 
ATOM     22  O   UNL     1      -4.119  -0.275  25.757  0.00  0.00    -0.268 OA
BRANCH  21  23
ATOM     23  C   UNL     1      -3.765  -1.331  24.861  0.00  0.00    +0.093 A 
ATOM     24  C   UNL     1      -3.669  -2.083  25.185  0.00  0.00    +0.107 A 
ATOM     25  N   UNL     1      -3.880  -2.751  24.749  0.00  0.00    -0.222 NA
ATOM     26  C   UNL     1      -4.187  -2.666  23.988  0.00  0.00    +0.199 A 
ATOM     27  N   UNL     1      -4.283  -1.914  23.663  0.00  0.00    -0.222 NA
ATOM     28  C   UNL     1      -4.072  -1.245  24.100  0.00  0.00    +0.107 A 
ENDBRANCH  21  23
ENDBRANCH  19  20
ENDBRANCH  18  19
TORSDOF 9
ENDMDL
MODEL 7
REMARK VINA RESULT:      -9.4      1.808      5.651
REMARK  Name = 
REMARK  9 active torsions:
REMARK  status: ('A' for Active; 'I' for Inactive)
REMARK    1  A    between atoms: O_2  and  C_3
REMARK    2  A    between atoms: C_6  and  C_7
REMARK    3  A    between atoms: C_7  and  N_8
REMARK    4  A    between atoms: C_9  and  C_11
REMARK    5  A    between atoms: C_11  and  C_12
REMARK    6  A    between atoms: C_14  and  C_15
REMARK    7  A    between atoms: C_18  and  C_19
REMARK    8  A    between atoms: C_19  and  N_20
REMARK    9  A    between atoms: C_21  and  C_23
REMARK                            x       y       z     vdW  Elec       q    Type
REMARK                         _______ _______ _______ _____ _____    ______ ____
ROOT
ATOM     12  C   UNL     1      -0.759   1.392  24.616  0.00  0.00    +0.027 C 
ATOM     13  C   UNL     1      -1.290   1.358  23.986  0.00  0.00    +0.005 C 
ATOM     14  C   UNL     1      -1.941   1.863  23.967  0.00  0.00    +0.006 C 
ATOM     18  C   UNL     1      -2.062   2.403  24.579  0.00  0.00    +0.043 C 
ATOM     29  C   UNL     1      -1.531   2.438  25.210  0.00  0.00    -0.033 C 
ATOM     30  C   UNL     1      -0.880   1.932  25.228  0.00  0.00    -0.048 C 
ATOM     31  C   UNL     1      -0.349   1.966  25.859  0.00  0.00    +0.026 C 
ENDROOT
BRANCH  14  15
ATOM     15  C   UNL     1      -2.473   1.829  23.337  0.00  0.00    +0.000 C 
ATOM     16  C   UNL     1      -2.360   2.308  22.674  0.00  0.00    +0.000 C 
ATOM     17  C   UNL     1      -3.118   1.316  23.369  0.00  0.00    +0.000 C 
ENDBRANCH  14  15
BRANCH  12  11
ATOM     11  C   UNL     1      -0.107   0.887  24.635  0.00  0.00    +0.091 C 
BRANCH  11   9
ATOM      8  N   UNL     1      -0.572  -0.453  24.812  0.00  0.00    -0.201 NA
ATOM      9  C   UNL     1      -0.177   0.113  24.360  0.00  0.00    +0.242 C 
ATOM     10  O   UNL     1       0.150  -0.097  23.631  0.00  0.00    -0.273 OA
BRANCH   8   7
ATOM      7  C   UNL     1      -0.641  -1.227  24.537  0.00  0.00    +0.141 C 
BRANCH   7   6
ATOM      3  C   UNL     1      -2.752  -2.477  24.867  0.00  0.00    +0.139 A 
ATOM      4  C   UNL     1      -2.314  -2.580  24.175  0.00  0.00    +0.037 A 
ATOM      5  C   UNL     1      -1.612  -2.164  24.065  0.00  0.00    +0.001 A 
ATOM      6  C   UNL     1      -1.345  -1.644  24.647  0.00  0.00    -0.000 A 
ATOM     32  C   UNL     1      -1.782  -1.541  25.339  0.00  0.00    +0.001 A 
ATOM     33  C   UNL     1      -2.485  -1.957  25.449  0.00  0.00    +0.037 A 
BRANCH   3   2
ATOM      1  C   UNL     1      -4.045  -2.868  24.401  0.00  0.00    +0.252 C 
ATOM      2  O   UNL     1      -3.455  -2.894  24.977  0.00  0.00    -0.471 OA
ENDBRANCH   3   2
ENDBRANCH   7   6
ENDBRANCH   8   7
ENDBRANCH  11   9
ENDBRANCH  12  11
BRANCH  18  19
ATOM     19  C   UNL     1      -2.714   2.909  24.561  0.00  0.00    +0.120 C 
BRANCH  19  20
ATOM     20  N   UNL     1      -2.618   3.712  24.725  0.00  0.00    -0.201 NA
ATOM     21  C   UNL     1      -3.239   4.142  25.058  0.00  0.00    +0.268 C 
ATOM     22  O   UNL     1      -3.143   4.945  25.222  0.00  0.00    -0.268 OA
BRANCH  21  23
ATOM     23  C   UNL     1      -3.955   3.769  25.228  0.00  0.00    +0.093 A 
ATOM     24  C   UNL     1      -4.069   3.407  25.960  0.00  0.00    +0.107 A 
ATOM     25  N   UNL     1      -4.785   3.034  26.129  0.00  0.00    -0.222 NA
ATOM     26  C   UNL     1      -5.387   3.022  25.565  0.00  0.00    +0.199 A 
ATOM     27  N   UNL     1      -5.273   3.383  24.832  0.00  0.00    -0.222 NA
ATOM     28  C   UNL     1      -4.556   3.757  24.663  0.00  0.00    +0.107 A 
ENDBRANCH  21  23
ENDBRANCH  19  20
ENDBRANCH  18  19
TORSDOF 9
ENDMDL
