MODEL 1
REMARK VINA RESULT:     -11.5      0.000      0.000
REMARK  Name = 
REMARK  8 active torsions:
REMARK  status: ('A' for Active; 'I' for Inactive)
REMARK    1  A    between atoms: S_2  and  N_4
REMARK    2  A    between atoms: S_2  and  C_31
REMARK    3  A    between atoms: N_4  and  C_5
REMARK    4  A    between atoms: C_9  and  N_13
REMARK    5  A    between atoms: C_17  and  O_18
REMARK    6  A    between atoms: O_18  and  C_19
REMARK    7  A    between atoms: C_23  and  N_25
REMARK    8  A    between atoms: C_36  and  C_37
REMARK                            x       y       z     vdW  Elec       q    Type
REMARK                         _______ _______ _______ _____ _____    ______ ____
ROOT
ATOM      5  C   UNL     1      -1.188  -0.405  25.076  0.00  0.00    +0.157 C 
ATOM      6  C   UNL     1      -1.428  -0.212  25.841  0.00  0.00    +0.164 C 
ATOM      7  O   UNL     1      -1.104   0.522  26.032  0.00  0.00    -0.350 OA
ATOM      8  C   UNL     1      -0.664   0.783  25.386  0.00  0.00    +0.169 C 
ATOM      9  C   UNL     1      -0.191   1.397  25.103  0.00  0.00    +0.170 C 
ATOM     10  C   UNL     1       0.048   1.204  24.338  0.00  0.00    +0.169 C 
ATOM     11  O   UNL     1      -0.276   0.471  24.147  0.00  0.00    -0.350 OA
ATOM     12  C   UNL     1      -0.716   0.210  24.794  0.00  0.00    +0.164 C 
ENDROOT
BRANCH   9  13
ATOM     13  N   UNL     1       0.007   2.085  25.514  0.00  0.00    -0.180 N 
ATOM     14  N   UNL     1       0.523   2.134  26.157  0.00  0.00    -0.040 NA
ATOM     15  N   UNL     1       0.558   2.923  26.395  0.00  0.00    -0.020 NA
ATOM     16  N   UNL     1       0.065   3.361  25.900  0.00  0.00    -0.071 NA
ATOM     17  C   UNL     1      -0.276   2.843  25.356  0.00  0.00    +0.343 A 
BRANCH  17  18
ATOM     18  O   UNL     1      -0.807   3.048  24.758  0.00  0.00    -0.421 OA
BRANCH  18  19
ATOM     19  C   UNL     1      -1.409   3.592  24.909  0.00  0.00    +0.150 A 
ATOM     20  C   UNL     1      -1.227   4.388  25.018  0.00  0.00    +0.038 A 
ATOM     21  C   UNL     1      -1.828   4.932  25.169  0.00  0.00    +0.004 A 
ATOM     22  C   UNL     1      -2.612   4.679  25.212  0.00  0.00    +0.015 A 
ATOM     23  C   UNL     1      -2.795   3.881  25.102  0.00  0.00    +0.051 A 
ATOM     24  C   UNL     1      -2.192   3.338  24.951  0.00  0.00    +0.052 A 
BRANCH  23  25
ATOM     25  N   UNL     1      -3.578   3.627  25.145  0.00  0.00    -0.303 N 
ATOM     26  C   UNL     1      -3.895   3.166  24.537  0.00  0.00    +0.123 C 
ATOM     27  C   UNL     1      -4.679   2.913  24.579  0.00  0.00    +0.164 C 
ATOM     28  O   UNL     1      -5.145   3.118  25.228  0.00  0.00    -0.350 OA
ATOM     29  C   UNL     1      -4.828   3.579  25.835  0.00  0.00    +0.164 C 
ATOM     30  C   UNL     1      -4.044   3.833  25.793  0.00  0.00    +0.123 C 
ENDBRANCH  23  25
ENDBRANCH  18  19
ENDBRANCH  17  18
ENDBRANCH   9  13
BRANCH   5   4
ATOM      4  N   UNL     1      -1.387  -1.092  24.664  0.00  0.00    -0.074 NA
BRANCH   4   2
ATOM      1  O   UNL     1      -2.082  -1.051  23.728  0.00  0.00    -0.152 OA
ATOM      2  S   UNL     1      -2.178  -1.272  24.517  0.00  0.00    +0.078 S 
ATOM      3  O   UNL     1      -2.276  -1.493  25.306  0.00  0.00    -0.152 OA
BRANCH   2  31
ATOM     31  C   UNL     1      -2.970  -1.451  24.370  0.00  0.00    +0.133 A 
ATOM     32  C   UNL     1      -3.536  -0.850  24.371  0.00  0.00    +0.021 A 
ATOM     33  C   UNL     1      -4.327  -1.029  24.223  0.00  0.00    +0.001 A 
ATOM     34  C   UNL     1      -4.553  -1.808  24.074  0.00  0.00    +0.001 A 
ATOM     35  C   UNL     1      -3.988  -2.408  24.073  0.00  0.00    +0.012 A 
ATOM     36  C   UNL     1      -3.196  -2.230  24.221  0.00  0.00    +0.087 A 
BRANCH  36  37
ATOM     37  C   UNL     1      -2.630  -2.831  24.219  0.00  0.00    +0.102 C 
ATOM     38  N   UNL     1      -2.065  -3.431  24.218  0.00  0.00    -0.191 NA
ENDBRANCH  36  37
ENDBRANCH   2  31
ENDBRANCH   4   2
ENDBRANCH   5   4
TORSDOF 8
ENDMDL
MODEL 2
REMARK VINA RESULT:     -11.4      1.673      4.861
REMARK  Name = 
REMARK  8 active torsions:
REMARK  status: ('A' for Active; 'I' for Inactive)
REMARK    1  A    between atoms: S_2  and  N_4
REMARK    2  A    between atoms: S_2  and  C_31
REMARK    3  A    between atoms: N_4  and  C_5
REMARK    4  A    between atoms: C_9  and  N_13
REMARK    5  A    between atoms: C_17  and  O_18
REMARK    6  A    between atoms: O_18  and  C_19
REMARK    7  A    between atoms: C_23  and  N_25
REMARK    8  A    between atoms: C_36  and  C_37
REMARK                            x       y       z     vdW  Elec       q    Type
REMARK                         _______ _______ _______ _____ _____    ______ ____
ROOT
ATOM      5  C   UNL     1      -2.039   2.565  24.125  0.00  0.00    +0.157 C 
ATOM      6  C   UNL     1      -2.270   2.153  23.449  0.00  0.00    +0.164 C 
ATOM      7  O   UNL     1      -1.727   1.545  23.324  0.00  0.00    -0.350 OA
ATOM      8  C   UNL     1      -1.161   1.581  23.922  0.00  0.00    +0.169 C 
ATOM      9  C   UNL     1      -0.475   1.228  24.215  0.00  0.00    +0.170 C 
ATOM     10  C   UNL     1      -0.244   1.640  24.891  0.00  0.00    +0.169 C 
ATOM     11  O   UNL     1      -0.787   2.248  25.016  0.00  0.00    -0.350 OA
ATOM     12  C   UNL     1      -1.354   2.211  24.417  0.00  0.00    +0.164 C 
ENDROOT
BRANCH   9  13
ATOM     13  N   UNL     1      -0.088   0.576  23.888  0.00  0.00    -0.180 N 
ATOM     14  N   UNL     1       0.393   0.583  23.218  0.00  0.00    -0.040 NA
ATOM     15  N   UNL     1       0.664  -0.185  23.090  0.00  0.00    -0.020 NA
ATOM     16  N   UNL     1       0.351  -0.667  23.681  0.00  0.00    -0.071 NA
ATOM     17  C   UNL     1      -0.114  -0.197  24.174  0.00  0.00    +0.343 A 
BRANCH  17  18
ATOM     18  O   UNL     1      -0.532  -0.455  24.838  0.00  0.00    -0.421 OA
BRANCH  18  19
ATOM     19  C   UNL     1      -0.923  -1.181  24.823  0.00  0.00    +0.150 A 
ATOM     20  C   UNL     1      -0.515  -1.873  25.010  0.00  0.00    +0.038 A 
ATOM     21  C   UNL     1      -0.905  -2.599  24.994  0.00  0.00    +0.004 A 
ATOM     22  C   UNL     1      -1.704  -2.634  24.792  0.00  0.00    +0.015 A 
ATOM     23  C   UNL     1      -2.113  -1.941  24.605  0.00  0.00    +0.051 A 
ATOM     24  C   UNL     1      -1.722  -1.215  24.621  0.00  0.00    +0.052 A 
BRANCH  23  25
ATOM     25  N   UNL     1      -2.912  -1.975  24.403  0.00  0.00    -0.303 N 
ATOM     26  C   UNL     1      -3.360  -1.282  24.377  0.00  0.00    +0.123 C 
ATOM     27  C   UNL     1      -4.159  -1.316  24.175  0.00  0.00    +0.164 C 
ATOM     28  O   UNL     1      -4.510  -2.041  23.999  0.00  0.00    -0.350 OA
ATOM     29  C   UNL     1      -4.062  -2.734  24.025  0.00  0.00    +0.164 C 
ATOM     30  C   UNL     1      -3.263  -2.700  24.227  0.00  0.00    +0.123 C 
ENDBRANCH  23  25
ENDBRANCH  18  19
ENDBRANCH  17  18
ENDBRANCH   9  13
BRANCH   5   4
ATOM      4  N   UNL     1      -2.426   3.216  24.452  0.00  0.00    -0.074 NA
BRANCH   4   2
ATOM      1  O   UNL     1      -3.446   3.597  24.032  0.00  0.00    -0.152 OA
ATOM      2  S   UNL     1      -3.214   3.153  24.688  0.00  0.00    +0.078 S 
ATOM      3  O   UNL     1      -2.983   2.709  25.343  0.00  0.00    -0.152 OA
BRANCH   2  31
ATOM     31  C   UNL     1      -4.002   3.090  24.923  0.00  0.00    +0.133 A 
ATOM     32  C   UNL     1      -4.509   2.570  24.531  0.00  0.00    +0.021 A 
ATOM     33  C   UNL     1      -5.297   2.507  24.766  0.00  0.00    +0.001 A 
ATOM     34  C   UNL     1      -5.579   2.964  25.392  0.00  0.00    +0.001 A 
ATOM     35  C   UNL     1      -5.073   3.484  25.783  0.00  0.00    +0.012 A 
ATOM     36  C   UNL     1      -4.284   3.547  25.549  0.00  0.00    +0.087 A 
BRANCH  36  37
ATOM     37  C   UNL     1      -3.778   4.068  25.941  0.00  0.00    +0.102 C 
ATOM     38  N   UNL     1      -3.272   4.588  26.332  0.00  0.00    -0.191 NA
ENDBRANCH  36  37
ENDBRANCH   2  31
ENDBRANCH   4   2
ENDBRANCH   5   4
TORSDOF 8
ENDMDL
MODEL 3
REMARK VINA RESULT:     -11.2      1.347      3.450
REMARK  Name = 
REMARK  8 active torsions:
REMARK  status: ('A' for Active; 'I' for Inactive)
REMARK    1  A    between atoms: S_2  and  N_4
REMARK    2  A    between atoms: S_2  and  C_31
REMARK    3  A    between atoms: N_4  and  C_5
REMARK    4  A    between atoms: C_9  and  N_13
REMARK    5  A    between atoms: C_17  and  O_18
REMARK    6  A    between atoms: O_18  and  C_19
REMARK    7  A    between atoms: C_23  and  N_25
REMARK    8  A    between atoms: C_36  and  C_37
REMARK                            x       y       z     vdW  Elec       q    Type
REMARK                         _______ _______ _______ _____ _____    ______ ____
ROOT
ATOM      5  C   UNL     1      -4.003   0.229  24.400  0.00  0.00    +0.157 C 
ATOM      6  C   UNL     1      -3.583   0.477  23.735  0.00  0.00    +0.164 C 
ATOM      7  O   UNL     1      -3.645   1.298  23.686  0.00  0.00    -0.350 OA
ATOM      8  C   UNL     1      -4.103   1.557  24.321  0.00  0.00    +0.169 C 
ATOM      9  C   UNL     1      -4.424   2.225  24.684  0.00  0.00    +0.170 C 
ATOM     10  C   UNL     1      -4.844   1.976  25.349  0.00  0.00    +0.169 C 
ATOM     11  O   UNL     1      -4.782   1.155  25.398  0.00  0.00    -0.350 OA
ATOM     12  C   UNL     1      -4.324   0.896  24.762  0.00  0.00    +0.164 C 
ENDROOT
BRANCH   9  13
ATOM     13  N   UNL     1      -4.341   3.004  24.427  0.00  0.00    -0.180 N 
ATOM     14  N   UNL     1      -4.731   3.348  23.786  0.00  0.00    -0.040 NA
ATOM     15  N   UNL     1      -4.483   4.133  23.728  0.00  0.00    -0.020 NA
ATOM     16  N   UNL     1      -3.941   4.274  24.332  0.00  0.00    -0.071 NA
ATOM     17  C   UNL     1      -3.852   3.576  24.764  0.00  0.00    +0.343 A 
BRANCH  17  18
ATOM     18  O   UNL     1      -3.361   3.470  25.419  0.00  0.00    -0.421 OA
BRANCH  18  19
ATOM     19  C   UNL     1      -2.587   3.757  25.406  0.00  0.00    +0.150 A 
ATOM     20  C   UNL     1      -2.448   4.568  25.451  0.00  0.00    +0.038 A 
ATOM     21  C   UNL     1      -1.675   4.855  25.438  0.00  0.00    +0.004 A 
ATOM     22  C   UNL     1      -1.041   4.330  25.379  0.00  0.00    +0.015 A 
ATOM     23  C   UNL     1      -1.181   3.518  25.333  0.00  0.00    +0.051 A 
ATOM     24  C   UNL     1      -1.954   3.232  25.346  0.00  0.00    +0.052 A 
BRANCH  23  25
ATOM     25  N   UNL     1      -0.548   2.992  25.274  0.00  0.00    -0.303 N 
ATOM     26  C   UNL     1      -0.157   2.739  25.955  0.00  0.00    +0.123 C 
ATOM     27  C   UNL     1       0.476   2.214  25.896  0.00  0.00    +0.164 C 
ATOM     28  O   UNL     1       0.719   1.942  25.157  0.00  0.00    -0.350 OA
ATOM     29  C   UNL     1       0.328   2.195  24.475  0.00  0.00    +0.164 C 
ATOM     30  C   UNL     1      -0.305   2.720  24.534  0.00  0.00    +0.123 C 
ENDBRANCH  23  25
ENDBRANCH  18  19
ENDBRANCH  17  18
ENDBRANCH   9  13
BRANCH   5   4
ATOM      4  N   UNL     1      -4.086  -0.551  24.657  0.00  0.00    -0.074 NA
BRANCH   4   2
ATOM      1  O   UNL     1      -3.457  -1.040  25.510  0.00  0.00    -0.152 OA
ATOM      2  S   UNL     1      -3.429  -1.049  24.685  0.00  0.00    +0.078 S 
ATOM      3  O   UNL     1      -3.401  -1.059  23.861  0.00  0.00    -0.152 OA
BRANCH   2  31
ATOM     31  C   UNL     1      -2.773  -1.548  24.714  0.00  0.00    +0.133 A 
ATOM     32  C   UNL     1      -2.035  -1.245  24.925  0.00  0.00    +0.021 A 
ATOM     33  C   UNL     1      -1.378  -1.744  24.954  0.00  0.00    +0.001 A 
ATOM     34  C   UNL     1      -1.459  -2.544  24.771  0.00  0.00    +0.001 A 
ATOM     35  C   UNL     1      -2.196  -2.846  24.560  0.00  0.00    +0.012 A 
ATOM     36  C   UNL     1      -2.854  -2.348  24.531  0.00  0.00    +0.087 A 
BRANCH  36  37
ATOM     37  C   UNL     1      -3.592  -2.651  24.319  0.00  0.00    +0.102 C 
ATOM     38  N   UNL     1      -4.329  -2.953  24.108  0.00  0.00    -0.191 NA
ENDBRANCH  36  37
ENDBRANCH   2  31
ENDBRANCH   4   2
ENDBRANCH   5   4
TORSDOF 8
ENDMDL
MODEL 4
REMARK VINA RESULT:     -10.3      1.380      4.752
REMARK  Name = 
REMARK  8 active torsions:
REMARK  status: ('A' for Active; 'I' for Inactive)
REMARK    1  A    between atoms: S_2  and  N_4
REMARK    2  A    between atoms: S_2  and  C_31
REMARK    3  A    between atoms: N_4  and  C_5
REMARK    4  A    between atoms: C_9  and  N_13
REMARK    5  A    between atoms: C_17  and  O_18
REMARK    6  A    between atoms: O_18  and  C_19
REMARK    7  A    between atoms: C_23  and  N_25
REMARK    8  A    between atoms: C_36  and  C_37
REMARK                            x       y       z     vdW  Elec       q    Type
REMARK                         _______ _______ _______ _____ _____    ______ ____
ROOT
ATOM      5  C   UNL     1      -0.445   1.815  25.124  0.00  0.00    +0.157 C 
ATOM      6  C   UNL     1      -0.771   1.584  25.846  0.00  0.00    +0.164 C 
ATOM      7  O   UNL     1      -0.906   0.771  25.815  0.00  0.00    -0.350 OA
ATOM      8  C   UNL     1      -0.663   0.499  25.076  0.00  0.00    +0.169 C 
ATOM      9  C   UNL     1      -0.596  -0.171  24.599  0.00  0.00    +0.170 C 
ATOM     10  C   UNL     1      -0.270   0.060  23.878  0.00  0.00    +0.169 C 
ATOM     11  O   UNL     1      -0.135   0.873  23.908  0.00  0.00    -0.350 OA
ATOM     12  C   UNL     1      -0.378   1.145  24.649  0.00  0.00    +0.164 C 
ENDROOT
BRANCH   9  13
ATOM     13  N   UNL     1      -0.817  -0.938  24.808  0.00  0.00    -0.180 N 
ATOM     14  N   UNL     1      -0.428  -1.425  25.350  0.00  0.00    -0.040 NA
ATOM     15  N   UNL     1      -0.836  -2.140  25.388  0.00  0.00    -0.020 NA
ATOM     16  N   UNL     1      -1.477  -2.097  24.871  0.00  0.00    -0.071 NA
ATOM     17  C   UNL     1      -1.465  -1.354  24.513  0.00  0.00    +0.343 A 
BRANCH  17  18
ATOM     18  O   UNL     1      -2.007  -1.075  23.956  0.00  0.00    -0.421 OA
BRANCH  18  19
ATOM     19  C   UNL     1      -2.814  -1.079  24.128  0.00  0.00    +0.150 A 
ATOM     20  C   UNL     1      -3.237  -1.787  24.108  0.00  0.00    +0.038 A 
ATOM     21  C   UNL     1      -4.043  -1.791  24.280  0.00  0.00    +0.004 A 
ATOM     22  C   UNL     1      -4.428  -1.087  24.472  0.00  0.00    +0.015 A 
ATOM     23  C   UNL     1      -4.005  -0.378  24.492  0.00  0.00    +0.051 A 
ATOM     24  C   UNL     1      -3.198  -0.375  24.320  0.00  0.00    +0.052 A 
BRANCH  23  25
ATOM     25  N   UNL     1      -4.389   0.326  24.683  0.00  0.00    -0.303 N 
ATOM     26  C   UNL     1      -4.222   1.015  24.260  0.00  0.00    +0.123 C 
ATOM     27  C   UNL     1      -4.605   1.720  24.452  0.00  0.00    +0.164 C 
ATOM     28  O   UNL     1      -5.156   1.736  25.065  0.00  0.00    -0.350 OA
ATOM     29  C   UNL     1      -5.323   1.047  25.488  0.00  0.00    +0.164 C 
ATOM     30  C   UNL     1      -4.939   0.343  25.297  0.00  0.00    +0.123 C 
ENDBRANCH  23  25
ENDBRANCH  18  19
ENDBRANCH  17  18
ENDBRANCH   9  13
BRANCH   5   4
ATOM      4  N   UNL     1      -0.224   2.582  24.915  0.00  0.00    -0.074 NA
BRANCH   4   2
ATOM      1  O   UNL     1      -0.315   3.359  25.781  0.00  0.00    -0.152 OA
ATOM      2  S   UNL     1      -0.726   3.216  25.081  0.00  0.00    +0.078 S 
ATOM      3  O   UNL     1      -1.138   3.073  24.380  0.00  0.00    -0.152 OA
BRANCH   2  31
ATOM     31  C   UNL     1      -1.228   3.849  25.246  0.00  0.00    +0.133 A 
ATOM     32  C   UNL     1      -1.873   3.743  25.750  0.00  0.00    +0.021 A 
ATOM     33  C   UNL     1      -2.374   4.377  25.916  0.00  0.00    +0.001 A 
ATOM     34  C   UNL     1      -2.231   5.116  25.579  0.00  0.00    +0.001 A 
ATOM     35  C   UNL     1      -1.587   5.222  25.076  0.00  0.00    +0.012 A 
ATOM     36  C   UNL     1      -1.085   4.588  24.909  0.00  0.00    +0.087 A 
BRANCH  36  37
ATOM     37  C   UNL     1      -0.439   4.694  24.406  0.00  0.00    +0.102 C 
ATOM     38  N   UNL     1       0.205   4.801  23.903  0.00  0.00    -0.191 NA
ENDBRANCH  36  37
ENDBRANCH   2  31
ENDBRANCH   4   2
ENDBRANCH   5   4
TORSDOF 8
ENDMDL
MODEL 5
REMARK VINA RESULT:     -10.3      2.500      5.564
REMARK  Name = 
REMARK  8 active torsions:
REMARK  status: ('A' for Active; 'I' for Inactive)
REMARK    1  A    between atoms: S_2  and  N_4
REMARK    2  A    between atoms: S_2  and  C_31
REMARK    3  A    between atoms: N_4  and  C_5
REMARK    4  A    between atoms: C_9  and  N_13
REMARK    5  A    between atoms: C_17  and  O_18
REMARK    6  A    between atoms: O_18  and  C_19
REMARK    7  A    between atoms: C_23  and  N_25
REMARK    8  A    between atoms: C_36  and  C_37
REMARK                            x       y       z     vdW  Elec       q    Type
REMARK                         _______ _______ _______ _____ _____    ______ ____
ROOT
ATOM      5  C   UNL     1      -2.625   1.668  24.382  0.00  0.00    +0.157 C 
ATOM      6  C   UNL     1      -2.912   1.014  23.970  0.00  0.00    +0.164 C 
ATOM      7  O   UNL     1      -2.325   0.435  23.970  0.00  0.00    -0.350 OA
ATOM      8  C   UNL     1      -1.675   0.730  24.382  0.00  0.00    +0.169 C 
ATOM      9  C   UNL     1      -0.910   0.556  24.638  0.00  0.00    +0.170 C 
ATOM     10  C   UNL     1      -0.623   1.210  25.050  0.00  0.00    +0.169 C 
ATOM     11  O   UNL     1      -1.210   1.789  25.049  0.00  0.00    -0.350 OA
ATOM     12  C   UNL     1      -1.861   1.493  24.637  0.00  0.00    +0.164 C 
ENDROOT
BRANCH   9  13
ATOM     13  N   UNL     1      -0.504  -0.150  24.504  0.00  0.00    -0.180 N 
ATOM     14  N   UNL     1      -0.653  -0.873  24.873  0.00  0.00    -0.040 NA
ATOM     15  N   UNL     1      -0.119  -1.426  24.575  0.00  0.00    -0.020 NA
ATOM     16  N   UNL     1       0.361  -1.045  24.023  0.00  0.00    -0.071 NA
ATOM     17  C   UNL     1       0.123  -0.256  23.980  0.00  0.00    +0.343 A 
BRANCH  17  18
ATOM     18  O   UNL     1       0.454   0.324  23.495  0.00  0.00    -0.421 OA
BRANCH  18  19
ATOM     19  C   UNL     1       1.046   0.123  22.956  0.00  0.00    +0.150 A 
ATOM     20  C   UNL     1       0.847  -0.225  22.236  0.00  0.00    +0.038 A 
ATOM     21  C   UNL     1       1.438  -0.426  21.697  0.00  0.00    +0.004 A 
ATOM     22  C   UNL     1       2.229  -0.278  21.879  0.00  0.00    +0.015 A 
ATOM     23  C   UNL     1       2.429   0.071  22.600  0.00  0.00    +0.051 A 
ATOM     24  C   UNL     1       1.837   0.272  23.138  0.00  0.00    +0.052 A 
BRANCH  23  25
ATOM     25  N   UNL     1       3.219   0.219  22.782  0.00  0.00    -0.303 N 
ATOM     26  C   UNL     1       3.551   0.956  22.611  0.00  0.00    +0.123 C 
ATOM     27  C   UNL     1       4.341   1.104  22.793  0.00  0.00    +0.164 C 
ATOM     28  O   UNL     1       4.801   0.517  23.145  0.00  0.00    -0.350 OA
ATOM     29  C   UNL     1       4.469  -0.219  23.316  0.00  0.00    +0.164 C 
ATOM     30  C   UNL     1       3.679  -0.368  23.134  0.00  0.00    +0.123 C 
ENDBRANCH  23  25
ENDBRANCH  18  19
ENDBRANCH  17  18
ENDBRANCH   9  13
BRANCH   5   4
ATOM      4  N   UNL     1      -3.031   2.374  24.515  0.00  0.00    -0.074 NA
BRANCH   4   2
ATOM      1  O   UNL     1      -4.048   2.538  23.966  0.00  0.00    -0.152 OA
ATOM      2  S   UNL     1      -3.825   2.357  24.740  0.00  0.00    +0.078 S 
ATOM      3  O   UNL     1      -3.603   2.176  25.514  0.00  0.00    -0.152 OA
BRANCH   2  31
ATOM     31  C   UNL     1      -4.619   2.340  24.964  0.00  0.00    +0.133 A 
ATOM     32  C   UNL     1      -5.080   1.676  24.798  0.00  0.00    +0.021 A 
ATOM     33  C   UNL     1      -5.874   1.660  25.022  0.00  0.00    +0.001 A 
ATOM     34  C   UNL     1      -6.207   2.306  25.411  0.00  0.00    +0.001 A 
ATOM     35  C   UNL     1      -5.746   2.970  25.577  0.00  0.00    +0.012 A 
ATOM     36  C   UNL     1      -4.952   2.987  25.353  0.00  0.00    +0.087 A 
BRANCH  36  37
ATOM     37  C   UNL     1      -4.490   3.651  25.519  0.00  0.00    +0.102 C 
ATOM     38  N   UNL     1      -4.030   4.315  25.685  0.00  0.00    -0.191 NA
ENDBRANCH  36  37
ENDBRANCH   2  31
ENDBRANCH   4   2
ENDBRANCH   5   4
TORSDOF 8
ENDMDL
MODEL 6
REMARK VINA RESULT:     -10.2      1.848      5.691
REMARK  Name = 
REMARK  8 active torsions:
REMARK  status: ('A' for Active; 'I' for Inactive)
REMARK    1  A    between atoms: S_2  and  N_4
REMARK    2  A    between atoms: S_2  and  C_31
REMARK    3  A    between atoms: N_4  and  C_5
REMARK    4  A    between atoms: C_9  and  N_13
REMARK    5  A    between atoms: C_17  and  O_18
REMARK    6  A    between atoms: O_18  and  C_19
REMARK    7  A    between atoms: C_23  and  N_25
REMARK    8  A    between atoms: C_36  and  C_37
REMARK                            x       y       z     vdW  Elec       q    Type
REMARK                         _______ _______ _______ _____ _____    ______ ____
ROOT
ATOM      5  C   UNL     1      -3.951   1.909  24.501  0.00  0.00    +0.157 C 
ATOM      6  C   UNL     1      -3.609   1.739  23.770  0.00  0.00    +0.164 C 
ATOM      7  O   UNL     1      -3.617   0.920  23.670  0.00  0.00    -0.350 OA
ATOM      8  C   UNL     1      -3.962   0.584  24.339  0.00  0.00    +0.169 C 
ATOM      9  C   UNL     1      -4.180  -0.129  24.692  0.00  0.00    +0.170 C 
ATOM     10  C   UNL     1      -4.521   0.041  25.423  0.00  0.00    +0.169 C 
ATOM     11  O   UNL     1      -4.514   0.860  25.523  0.00  0.00    -0.350 OA
ATOM     12  C   UNL     1      -4.168   1.196  24.853  0.00  0.00    +0.164 C 
ENDROOT
BRANCH   9  13
ATOM     13  N   UNL     1      -4.075  -0.881  24.369  0.00  0.00    -0.180 N 
ATOM     14  N   UNL     1      -4.542  -1.228  23.783  0.00  0.00    -0.040 NA
ATOM     15  N   UNL     1      -4.240  -1.979  23.628  0.00  0.00    -0.020 NA
ATOM     16  N   UNL     1      -3.587  -2.097  24.116  0.00  0.00    -0.071 NA
ATOM     17  C   UNL     1      -3.485  -1.418  24.574  0.00  0.00    +0.343 A 
BRANCH  17  18
ATOM     18  O   UNL     1      -2.895  -1.299  25.139  0.00  0.00    -0.421 OA
BRANCH  18  19
ATOM     19  C   UNL     1      -2.110  -1.486  24.963  0.00  0.00    +0.150 A 
ATOM     20  C   UNL     1      -1.832  -2.252  25.087  0.00  0.00    +0.038 A 
ATOM     21  C   UNL     1      -1.048  -2.440  24.911  0.00  0.00    +0.004 A 
ATOM     22  C   UNL     1      -0.543  -1.860  24.610  0.00  0.00    +0.015 A 
ATOM     23  C   UNL     1      -0.822  -1.093  24.487  0.00  0.00    +0.051 A 
ATOM     24  C   UNL     1      -1.606  -0.907  24.663  0.00  0.00    +0.052 A 
BRANCH  23  25
ATOM     25  N   UNL     1      -0.317  -0.514  24.187  0.00  0.00    -0.303 N 
ATOM     26  C   UNL     1      -0.297   0.235  24.534  0.00  0.00    +0.123 C 
ATOM     27  C   UNL     1       0.207   0.814  24.234  0.00  0.00    +0.164 C 
ATOM     28  O   UNL     1       0.691   0.646  23.588  0.00  0.00    -0.350 OA
ATOM     29  C   UNL     1       0.671  -0.103  23.241  0.00  0.00    +0.164 C 
ATOM     30  C   UNL     1       0.167  -0.682  23.541  0.00  0.00    +0.123 C 
ENDBRANCH  23  25
ENDBRANCH  18  19
ENDBRANCH  17  18
ENDBRANCH   9  13
BRANCH   5   4
ATOM      4  N   UNL     1      -4.056   2.661  24.824  0.00  0.00    -0.074 NA
BRANCH   4   2
ATOM      1  O   UNL     1      -3.696   3.643  24.306  0.00  0.00    -0.152 OA
ATOM      2  S   UNL     1      -3.409   3.166  24.915  0.00  0.00    +0.078 S 
ATOM      3  O   UNL     1      -3.122   2.689  25.524  0.00  0.00    -0.152 OA
BRANCH   2  31
ATOM     31  C   UNL     1      -2.763   3.670  25.005  0.00  0.00    +0.133 A 
ATOM     32  C   UNL     1      -2.131   3.629  24.476  0.00  0.00    +0.021 A 
ATOM     33  C   UNL     1      -1.484   4.134  24.566  0.00  0.00    +0.001 A 
ATOM     34  C   UNL     1      -1.470   4.680  25.185  0.00  0.00    +0.001 A 
ATOM     35  C   UNL     1      -2.102   4.721  25.713  0.00  0.00    +0.012 A 
ATOM     36  C   UNL     1      -2.749   4.216  25.623  0.00  0.00    +0.087 A 
BRANCH  36  37
ATOM     37  C   UNL     1      -3.381   4.258  26.152  0.00  0.00    +0.102 C 
ATOM     38  N   UNL     1      -4.013   4.300  26.680  0.00  0.00    -0.191 NA
ENDBRANCH  36  37
ENDBRANCH   2  31
ENDBRANCH   4   2
ENDBRANCH   5   4
TORSDOF 8
ENDMDL
MODEL 7
REMARK VINA RESULT:     -10.0      1.694      4.867
REMARK  Name = 
REMARK  8 active torsions:
REMARK  status: ('A' for Active; 'I' for Inactive)
REMARK    1  A    between atoms: S_2  and  N_4
REMARK    2  A    between atoms: S_2  and  C_31
REMARK    3  A    between atoms: N_4  and  C_5
REMARK    4  A    between atoms: C_9  and  N_13
REMARK    5  A    between atoms: C_17  and  O_18
REMARK    6  A    between atoms: O_18  and  C_19
REMARK    7  A    between atoms: C_23  and  N_25
REMARK    8  A    between atoms: C_36  and  C_37
REMARK                            x       y       z     vdW  Elec       q    Type
REMARK                         _______ _______ _______ _____ _____    ______ ____
ROOT
ATOM      5  C   UNL     1      -4.497   0.233  24.877  0.00  0.00    +0.157 C 
ATOM      6  C   UNL     1      -4.307   0.208  24.075  0.00  0.00    +0.164 C 
ATOM      7  O   UNL     1      -3.751  -0.391  23.963  0.00  0.00    -0.350 OA
ATOM      8  C   UNL     1      -3.597  -0.736  24.695  0.00  0.00    +0.169 C 
ATOM      9  C   UNL     1      -3.159  -1.320  25.080  0.00  0.00    +0.170 C 
ATOM     10  C   UNL     1      -3.349  -1.296  25.882  0.00  0.00    +0.169 C 
ATOM     11  O   UNL     1      -3.905  -0.697  25.994  0.00  0.00    -0.350 OA
ATOM     12  C   UNL     1      -4.059  -0.351  25.261  0.00  0.00    +0.164 C 
ENDROOT
BRANCH   9  13
ATOM     13  N   UNL     1      -2.624  -1.838  24.724  0.00  0.00    -0.180 N 
ATOM     14  N   UNL     1      -2.817  -2.506  24.279  0.00  0.00    -0.040 NA
ATOM     15  N   UNL     1      -2.115  -2.859  24.031  0.00  0.00    -0.020 NA
ATOM     16  N   UNL     1      -1.487  -2.410  24.322  0.00  0.00    -0.071 NA
ATOM     17  C   UNL     1      -1.802  -1.779  24.750  0.00  0.00    +0.343 A 
BRANCH  17  18
ATOM     18  O   UNL     1      -1.370  -1.192  25.137  0.00  0.00    -0.421 OA
BRANCH  18  19
ATOM     19  C   UNL     1      -0.811  -0.749  24.721  0.00  0.00    +0.150 A 
ATOM     20  C   UNL     1      -0.229  -1.129  24.279  0.00  0.00    +0.038 A 
ATOM     21  C   UNL     1       0.329  -0.687  23.863  0.00  0.00    +0.004 A 
ATOM     22  C   UNL     1       0.305   0.138  23.890  0.00  0.00    +0.015 A 
ATOM     23  C   UNL     1      -0.278   0.519  24.333  0.00  0.00    +0.051 A 
ATOM     24  C   UNL     1      -0.836   0.075  24.748  0.00  0.00    +0.052 A 
BRANCH  23  25
ATOM     25  N   UNL     1      -0.303   1.343  24.360  0.00  0.00    -0.303 N 
ATOM     26  C   UNL     1       0.188   1.753  24.882  0.00  0.00    +0.123 C 
ATOM     27  C   UNL     1       0.163   2.577  24.909  0.00  0.00    +0.164 C 
ATOM     28  O   UNL     1      -0.352   2.991  24.415  0.00  0.00    -0.350 OA
ATOM     29  C   UNL     1      -0.843   2.581  23.894  0.00  0.00    +0.164 C 
ATOM     30  C   UNL     1      -0.818   1.757  23.867  0.00  0.00    +0.123 C 
ENDBRANCH  23  25
ENDBRANCH  18  19
ENDBRANCH  17  18
ENDBRANCH   9  13
BRANCH   5   4
ATOM      4  N   UNL     1      -5.032   0.750  25.233  0.00  0.00    -0.074 NA
BRANCH   4   2
ATOM      1  O   UNL     1      -4.336   1.584  25.660  0.00  0.00    -0.152 OA
ATOM      2  S   UNL     1      -4.958   1.564  25.118  0.00  0.00    +0.078 S 
ATOM      3  O   UNL     1      -5.580   1.545  24.577  0.00  0.00    -0.152 OA
BRANCH   2  31
ATOM     31  C   UNL     1      -4.883   2.378  25.004  0.00  0.00    +0.133 A 
ATOM     32  C   UNL     1      -4.394   2.667  24.406  0.00  0.00    +0.021 A 
ATOM     33  C   UNL     1      -4.319   3.480  24.292  0.00  0.00    +0.001 A 
ATOM     34  C   UNL     1      -4.733   4.005  24.775  0.00  0.00    +0.001 A 
ATOM     35  C   UNL     1      -5.222   3.716  25.373  0.00  0.00    +0.012 A 
ATOM     36  C   UNL     1      -5.297   2.902  25.488  0.00  0.00    +0.087 A 
BRANCH  36  37
ATOM     37  C   UNL     1      -5.786   2.613  26.087  0.00  0.00    +0.102 C 
ATOM     38  N   UNL     1      -6.274   2.324  26.685  0.00  0.00    -0.191 NA
ENDBRANCH  36  37
ENDBRANCH   2  31
ENDBRANCH   4   2
ENDBRANCH   5   4
TORSDOF 8
ENDMDL
