MODEL 1
REMARK VINA RESULT:     -12.4      0.000      0.000
REMARK  Name = 
REMARK  3 active torsions:
REMARK  status: ('A' for Active; 'I' for Inactive)
REMARK    1  A    between atoms: C_4  and  C_8
REMARK    2  A    between atoms: C_11  and  C_13
REMARK    3  A    between atoms: N_18  and  C_19
REMARK                            x       y       z     vdW  Elec       q    Type
REMARK                         _______ _______ _______ _____ _____    ______ ____
ROOT
ATOM      8  C   UNL     1      -3.879   0.293  24.540  0.00  0.00    +0.203 A 
ATOM      9  N   UNL     1      -3.776   0.645  23.801  0.00  0.00    -0.056 NA
ATOM     10  O   UNL     1      -3.947   1.447  23.873  0.00  0.00    -0.336 OA
ATOM     11  C   UNL     1      -4.157   1.593  24.659  0.00  0.00    +0.251 A 
ATOM     12  N   UNL     1      -4.114   0.880  25.070  0.00  0.00    -0.190 NA
ENDROOT
BRANCH   8   4
ATOM      1  C   UNL     1      -4.167  -2.463  23.840  0.00  0.00    +0.031 C 
ATOM      2  C   UNL     1      -3.910  -1.883  24.368  0.00  0.00    -0.022 A 
ATOM      3  C   UNL     1      -4.023  -1.085  24.191  0.00  0.00    -0.001 A 
ATOM      4  C   UNL     1      -3.766  -0.505  24.718  0.00  0.00    +0.039 A 
ATOM      5  C   UNL     1      -3.397  -0.722  25.423  0.00  0.00    +0.003 A 
ATOM      6  C   UNL     1      -3.285  -1.520  25.601  0.00  0.00    -0.000 A 
ATOM      7  C   UNL     1      -3.541  -2.100  25.073  0.00  0.00    -0.004 A 
ENDBRANCH   8   4
BRANCH  11  13
ATOM     13  C   UNL     1      -4.371   2.324  24.975  0.00  0.00    +0.140 C 
ATOM     14  C   UNL     1      -5.135   2.562  25.174  0.00  0.00    +0.060 C 
ATOM     15  C   UNL     1      -5.093   3.332  25.470  0.00  0.00    +0.170 C 
ATOM     16  O   UNL     1      -5.729   3.784  25.735  0.00  0.00    -0.222 OA
ATOM     17  C   UNL     1      -4.303   3.568  25.454  0.00  0.00    +0.106 C 
ATOM     18  N   UNL     1      -3.856   2.946  25.149  0.00  0.00    -0.265 NA
BRANCH  18  19
ATOM     19  C   UNL     1      -3.039   2.944  25.036  0.00  0.00    +0.063 C 
ATOM     20  C   UNL     1      -2.538   2.740  25.660  0.00  0.00    +0.048 C 
ATOM     21  C   UNL     1      -1.720   2.737  25.548  0.00  0.00    +0.144 C 
ATOM     22  O   UNL     1      -1.404   2.939  24.813  0.00  0.00    -0.354 OA
ATOM     23  C   UNL     1      -1.905   3.144  24.190  0.00  0.00    +0.144 C 
ATOM     24  C   UNL     1      -2.723   3.146  24.303  0.00  0.00    +0.048 C 
ENDBRANCH  18  19
ENDBRANCH  11  13
TORSDOF 3
ENDMDL
MODEL 2
REMARK VINA RESULT:     -12.0      1.649      4.080
REMARK  Name = 
REMARK  3 active torsions:
REMARK  status: ('A' for Active; 'I' for Inactive)
REMARK    1  A    between atoms: C_4  and  C_8
REMARK    2  A    between atoms: C_11  and  C_13
REMARK    3  A    between atoms: N_18  and  C_19
REMARK                            x       y       z     vdW  Elec       q    Type
REMARK                         _______ _______ _______ _____ _____    ______ ____
ROOT
ATOM      8  C   UNL     1      -4.168   1.028  24.480  0.00  0.00    +0.203 A 
ATOM      9  N   UNL     1      -3.747   1.042  23.771  0.00  0.00    -0.056 NA
ATOM     10  O   UNL     1      -3.460   0.283  23.629  0.00  0.00    -0.336 OA
ATOM     11  C   UNL     1      -3.703  -0.202  24.252  0.00  0.00    +0.251 A 
ATOM     12  N   UNL     1      -4.141   0.259  24.777  0.00  0.00    -0.190 NA
ENDROOT
BRANCH   8   4
ATOM      1  C   UNL     1      -4.066   3.650  25.613  0.00  0.00    +0.031 C 
ATOM      2  C   UNL     1      -4.499   2.981  25.398  0.00  0.00    -0.022 A 
ATOM      3  C   UNL     1      -4.118   2.339  25.047  0.00  0.00    -0.001 A 
ATOM      4  C   UNL     1      -4.549   1.670  24.831  0.00  0.00    +0.039 A 
ATOM      5  C   UNL     1      -5.363   1.643  24.967  0.00  0.00    +0.003 A 
ATOM      6  C   UNL     1      -5.745   2.285  25.318  0.00  0.00    -0.000 A 
ATOM      7  C   UNL     1      -5.312   2.954  25.533  0.00  0.00    -0.004 A 
ENDBRANCH   8   4
BRANCH  11  13
ATOM     13  C   UNL     1      -3.537  -1.006  24.333  0.00  0.00    +0.140 C 
ATOM     14  C   UNL     1      -4.042  -1.628  24.136  0.00  0.00    +0.060 C 
ATOM     15  C   UNL     1      -3.652  -2.335  24.307  0.00  0.00    +0.170 C 
ATOM     16  O   UNL     1      -3.955  -3.094  24.195  0.00  0.00    -0.222 OA
ATOM     17  C   UNL     1      -2.908  -2.150  24.608  0.00  0.00    +0.106 C 
ATOM     18  N   UNL     1      -2.836  -1.329  24.624  0.00  0.00    -0.265 NA
BRANCH  18  19
ATOM     19  C   UNL     1      -2.179  -0.903  24.886  0.00  0.00    +0.063 C 
ATOM     20  C   UNL     1      -2.105  -0.712  25.686  0.00  0.00    +0.048 C 
ATOM     21  C   UNL     1      -1.448  -0.286  25.948  0.00  0.00    +0.144 C 
ATOM     22  O   UNL     1      -0.866  -0.052  25.411  0.00  0.00    -0.354 OA
ATOM     23  C   UNL     1      -0.941  -0.244  24.613  0.00  0.00    +0.144 C 
ATOM     24  C   UNL     1      -1.598  -0.670  24.350  0.00  0.00    +0.048 C 
ENDBRANCH  18  19
ENDBRANCH  11  13
TORSDOF 3
ENDMDL
MODEL 3
REMARK VINA RESULT:     -11.7      1.480      2.780
REMARK  Name = 
REMARK  3 active torsions:
REMARK  status: ('A' for Active; 'I' for Inactive)
REMARK    1  A    between atoms: C_4  and  C_8
REMARK    2  A    between atoms: C_11  and  C_13
REMARK    3  A    between atoms: N_18  and  C_19
REMARK                            x       y       z     vdW  Elec       q    Type
REMARK                         _______ _______ _______ _____ _____    ______ ____
ROOT
ATOM      8  C   UNL     1      -2.866  -0.374  24.791  0.00  0.00    +0.203 A 
ATOM      9  N   UNL     1      -2.928  -0.011  25.528  0.00  0.00    -0.056 NA
ATOM     10  O   UNL     1      -2.400   0.621  25.547  0.00  0.00    -0.336 OA
ATOM     11  C   UNL     1      -2.011   0.650  24.819  0.00  0.00    +0.251 A 
ATOM     12  N   UNL     1      -2.299   0.035  24.353  0.00  0.00    -0.190 NA
ENDROOT
BRANCH   8   4
ATOM      1  C   UNL     1      -3.236  -3.206  24.697  0.00  0.00    +0.031 C 
ATOM      2  C   UNL     1      -3.481  -2.447  24.488  0.00  0.00    -0.022 A 
ATOM      3  C   UNL     1      -3.052  -1.790  24.743  0.00  0.00    -0.001 A 
ATOM      4  C   UNL     1      -3.296  -1.030  24.535  0.00  0.00    +0.039 A 
ATOM      5  C   UNL     1      -3.971  -0.927  24.071  0.00  0.00    +0.003 A 
ATOM      6  C   UNL     1      -4.400  -1.584  23.815  0.00  0.00    -0.000 A 
ATOM      7  C   UNL     1      -4.155  -2.343  24.024  0.00  0.00    -0.004 A 
ENDBRANCH   8   4
BRANCH  11  13
ATOM     13  C   UNL     1      -1.435   1.198  24.600  0.00  0.00    +0.140 C 
ATOM     14  C   UNL     1      -0.619   1.076  24.612  0.00  0.00    +0.060 C 
ATOM     15  C   UNL     1      -0.255   1.768  24.348  0.00  0.00    +0.170 C 
ATOM     16  O   UNL     1       0.558   1.890  24.273  0.00  0.00    -0.222 OA
ATOM     17  C   UNL     1      -0.845   2.317  24.174  0.00  0.00    +0.106 C 
ATOM     18  N   UNL     1      -1.575   1.966  24.329  0.00  0.00    -0.265 NA
BRANCH  18  19
ATOM     19  C   UNL     1      -2.314   2.317  24.231  0.00  0.00    +0.063 C 
ATOM     20  C   UNL     1      -2.695   2.279  23.499  0.00  0.00    +0.048 C 
ATOM     21  C   UNL     1      -3.435   2.630  23.401  0.00  0.00    +0.144 C 
ATOM     22  O   UNL     1      -3.794   3.020  24.034  0.00  0.00    -0.354 OA
ATOM     23  C   UNL     1      -3.414   3.058  24.764  0.00  0.00    +0.144 C 
ATOM     24  C   UNL     1      -2.674   2.706  24.863  0.00  0.00    +0.048 C 
ENDBRANCH  18  19
ENDBRANCH  11  13
TORSDOF 3
ENDMDL
