REMARK  Name = 
REMARK  7 active torsions:
REMARK  status: ('A' for Active; 'I' for Inactive)
REMARK    1  A    between atoms: C_2  and  C_4
REMARK    2  A    between atoms: C_4  and  C_5
REMARK    3  A    between atoms: C_5  and  N_6
REMARK    4  A    between atoms: N_6  and  C_7
REMARK    5  A    between atoms: C_7  and  C_8
REMARK    6  A    between atoms: C_8  and  C_9
REMARK    7  A    between atoms: C_12  and  C_14
REMARK                            x       y       z     vdW  Elec       q    Type
REMARK                         _______ _______ _______ _____ _____    ______ ____
ROOT
ATOM      9  C   UNL     1       4.115  -4.030   0.000  0.00  0.00    +0.102 A 
ATOM     10  N   UNL     1       3.780  -3.276   0.000  0.00  0.00    -0.081 NA
ATOM     11  O   UNL     1       4.393  -2.724   0.000  0.00  0.00    -0.354 OA
ATOM     12  C   UNL     1       5.107  -3.136   0.000  0.00  0.00    +0.177 A 
ATOM     13  C   UNL     1       4.936  -3.943   0.000  0.00  0.00    +0.058 A 
ENDROOT
BRANCH  12  14
ATOM     14  C   UNL     1       5.861  -2.801   0.000  0.00  0.00    +0.037 A 
ATOM     15  C   UNL     1       5.947  -1.980   0.000  0.00  0.00    +0.005 A 
ATOM     16  C   UNL     1       6.701  -1.645   0.000  0.00  0.00    +0.030 A 
ATOM     17  C   UNL     1       7.368  -2.130   0.000  0.00  0.00    +0.140 A 
ATOM     18  F   UNL     1       8.122  -1.794   0.000  0.00  0.00    -0.204 F 
ATOM     19  C   UNL     1       7.282  -2.950   0.000  0.00  0.00    +0.030 A 
ATOM     20  C   UNL     1       6.528  -3.286   0.000  0.00  0.00    +0.005 A 
ENDBRANCH  12  14
BRANCH   9   8
ATOM      8  C   UNL     1       3.703  -4.744   0.000  0.00  0.00    +0.070 C 
BRANCH   8   7
ATOM      7  C   UNL     1       2.878  -4.744   0.000  0.00  0.00    +0.119 C 
ATOM     21  C   UNL     1       2.053  -4.744   0.000  0.00  0.00    +0.161 C 
ATOM     22  O   UNL     1       2.053  -3.919   0.000  0.00  0.00    -0.351 OA
ATOM     23  C   UNL     1       2.878  -3.919   0.000  0.00  0.00    +0.161 C 
BRANCH   7   6
ATOM      6  N   UNL     1       2.878  -5.569   0.000  0.00  0.00    -0.215 NA
BRANCH   6   5
ATOM      5  C   UNL     1       2.163  -5.982   0.000  0.00  0.00    +0.089 C 
BRANCH   5   4
ATOM      4  C   UNL     1       1.449  -5.569   0.000  0.00  0.00    +0.019 C 
BRANCH   4   2
ATOM      1  C   UNL     1       0.020  -5.569   0.000  0.00  0.00    +0.000 C 
ATOM      2  C   UNL     1       0.734  -5.982   0.000  0.00  0.00    +0.001 C 
ATOM      3  C   UNL     1       0.734  -6.807   0.000  0.00  0.00    +0.000 C 
ENDBRANCH   4   2
ENDBRANCH   5   4
ENDBRANCH   6   5
ENDBRANCH   7   6
ENDBRANCH   8   7
ENDBRANCH   9   8
TORSDOF 7
