MODEL 1
REMARK VINA RESULT:     -10.7      0.000      0.000
REMARK  Name = 
REMARK  7 active torsions:
REMARK  status: ('A' for Active; 'I' for Inactive)
REMARK    1  A    between atoms: C_2  and  C_3
REMARK    2  A    between atoms: C_2  and  C_27
REMARK    3  A    between atoms: C_10  and  N_11
REMARK    4  A    between atoms: C_12  and  C_14
REMARK    5  A    between atoms: C_14  and  O_15
REMARK    6  A    between atoms: O_15  and  C_16
REMARK    7  A    between atoms: N_29  and  C_30
REMARK                            x       y       z     vdW  Elec       q    Type
REMARK                         _______ _______ _______ _____ _____    ______ ____
ROOT
ATOM      3  C   UNL     1      -2.771   1.319  23.968  0.00  0.00    +0.039 C 
ATOM      4  C   UNL     1      -2.970   0.558  24.222  0.00  0.00    +0.003 C 
ATOM      5  C   UNL     1      -2.379  -0.004  24.340  0.00  0.00    +0.000 C 
ATOM      6  C   UNL     1      -1.590   0.192  24.203  0.00  0.00    +0.002 C 
ATOM      7  C   UNL     1      -1.788  -0.567  24.457  0.00  0.00    +0.000 C 
ATOM      8  C   UNL     1      -0.998  -0.371  24.321  0.00  0.00    +0.002 C 
ATOM      9  C   UNL     1      -0.209  -0.175  24.184  0.00  0.00    +0.022 C 
ATOM     10  C   UNL     1      -0.010   0.585  23.929  0.00  0.00    +0.095 C 
ATOM     22  C   UNL     1      -0.601   1.148  23.812  0.00  0.00    +0.022 C 
ATOM     23  C   UNL     1      -0.403   1.907  23.558  0.00  0.00    +0.002 C 
ATOM     24  C   UNL     1      -1.391   0.952  23.949  0.00  0.00    +0.032 C 
ATOM     25  C   UNL     1      -1.982   1.514  23.831  0.00  0.00    +0.152 C 
ATOM     26  O   UNL     1      -1.784   2.274  23.577  0.00  0.00    -0.223 OA
ENDROOT
BRANCH  10  11
ATOM     11  N   UNL     1       0.780   0.781  23.793  0.00  0.00    -0.204 NA
ATOM     12  C   UNL     1       1.228   0.339  23.261  0.00  0.00    +0.286 C 
ATOM     13  O   UNL     1       0.887  -0.300  22.864  0.00  0.00    -0.269 OA
BRANCH  12  14
ATOM     14  C   UNL     1       2.018   0.535  23.124  0.00  0.00    +0.291 C 
BRANCH  14  15
ATOM     15  O   UNL     1       2.554  -0.047  22.892  0.00  0.00    -0.466 OA
BRANCH  15  16
ATOM     16  C   UNL     1       3.365   0.077  22.983  0.00  0.00    +0.139 A 
ATOM     17  C   UNL     1       3.710   0.772  22.706  0.00  0.00    +0.037 A 
ATOM     18  C   UNL     1       4.520   0.896  22.797  0.00  0.00    +0.003 A 
ATOM     19  C   UNL     1       4.986   0.323  23.165  0.00  0.00    +0.000 A 
ATOM     20  C   UNL     1       4.641  -0.374  23.442  0.00  0.00    +0.003 A 
ATOM     21  C   UNL     1       3.830  -0.496  23.351  0.00  0.00    +0.037 A 
ENDBRANCH  15  16
ENDBRANCH  14  15
ENDBRANCH  12  14
ENDBRANCH  10  11
BRANCH   3   2
ATOM      1  C   UNL     1      -3.463   2.225  23.107  0.00  0.00    +0.010 C 
ATOM      2  C   UNL     1      -3.363   1.881  23.850  0.00  0.00    +0.081 C 
BRANCH   2  27
ATOM     27  C   UNL     1      -3.855   2.101  24.475  0.00  0.00    +0.241 C 
ATOM     28  O   UNL     1      -3.527   2.388  25.177  0.00  0.00    -0.273 OA
ATOM     29  N   UNL     1      -4.673   2.034  24.400  0.00  0.00    -0.207 NA
BRANCH  29  30
ATOM     30  C   UNL     1      -5.165   2.254  25.025  0.00  0.00    +0.095 C 
ATOM     31  C   UNL     1      -5.284   3.022  25.302  0.00  0.00    +0.022 C 
ATOM     32  C   UNL     1      -5.816   2.986  25.931  0.00  0.00    +0.002 C 
ATOM     33  C   UNL     1      -6.027   2.196  26.044  0.00  0.00    +0.002 C 
ATOM     34  C   UNL     1      -5.624   1.744  25.484  0.00  0.00    +0.022 C 
ENDBRANCH  29  30
ENDBRANCH   2  27
ENDBRANCH   3   2
TORSDOF 7
ENDMDL
MODEL 2
REMARK VINA RESULT:      -9.7      1.551      2.189
REMARK  Name = 
REMARK  7 active torsions:
REMARK  status: ('A' for Active; 'I' for Inactive)
REMARK    1  A    between atoms: C_2  and  C_3
REMARK    2  A    between atoms: C_2  and  C_27
REMARK    3  A    between atoms: C_10  and  N_11
REMARK    4  A    between atoms: C_12  and  C_14
REMARK    5  A    between atoms: C_14  and  O_15
REMARK    6  A    between atoms: O_15  and  C_16
REMARK    7  A    between atoms: N_29  and  C_30
REMARK                            x       y       z     vdW  Elec       q    Type
REMARK                         _______ _______ _______ _____ _____    ______ ____
ROOT
ATOM      3  C   UNL     1      -3.080   3.554  24.756  0.00  0.00    +0.039 C 
ATOM      4  C   UNL     1      -2.792   3.985  25.399  0.00  0.00    +0.003 C 
ATOM      5  C   UNL     1      -1.997   3.931  25.609  0.00  0.00    +0.000 C 
ATOM      6  C   UNL     1      -1.489   3.446  25.177  0.00  0.00    +0.002 C 
ATOM      7  C   UNL     1      -1.202   3.876  25.819  0.00  0.00    +0.000 C 
ATOM      8  C   UNL     1      -0.692   3.392  25.386  0.00  0.00    +0.002 C 
ATOM      9  C   UNL     1      -0.184   2.907  24.954  0.00  0.00    +0.022 C 
ATOM     10  C   UNL     1      -0.472   2.476  24.311  0.00  0.00    +0.095 C 
ATOM     22  C   UNL     1      -1.268   2.531  24.102  0.00  0.00    +0.022 C 
ATOM     23  C   UNL     1      -1.555   2.100  23.459  0.00  0.00    +0.002 C 
ATOM     24  C   UNL     1      -1.777   3.015  24.534  0.00  0.00    +0.032 C 
ATOM     25  C   UNL     1      -2.572   3.070  24.324  0.00  0.00    +0.152 C 
ATOM     26  O   UNL     1      -2.860   2.639  23.682  0.00  0.00    -0.223 OA
ENDROOT
BRANCH  10  11
ATOM     11  N   UNL     1       0.037   1.991  23.879  0.00  0.00    -0.204 NA
ATOM     12  C   UNL     1       0.698   1.659  24.243  0.00  0.00    +0.286 C 
ATOM     13  O   UNL     1       0.851   1.811  25.040  0.00  0.00    -0.269 OA
BRANCH  12  14
ATOM     14  C   UNL     1       1.207   1.174  23.810  0.00  0.00    +0.291 C 
BRANCH  14  15
ATOM     15  O   UNL     1       1.925   1.471  23.534  0.00  0.00    -0.466 OA
BRANCH  15  16
ATOM     16  C   UNL     1       2.434   0.986  23.102  0.00  0.00    +0.139 A 
ATOM     17  C   UNL     1       3.237   1.165  23.059  0.00  0.00    +0.037 A 
ATOM     18  C   UNL     1       3.746   0.680  22.626  0.00  0.00    +0.003 A 
ATOM     19  C   UNL     1       3.450   0.016  22.236  0.00  0.00    +0.000 A 
ATOM     20  C   UNL     1       2.645  -0.163  22.279  0.00  0.00    +0.003 A 
ATOM     21  C   UNL     1       2.138   0.322  22.711  0.00  0.00    +0.037 A 
ENDBRANCH  15  16
ENDBRANCH  14  15
ENDBRANCH  12  14
ENDBRANCH  10  11
BRANCH   3   2
ATOM      1  C   UNL     1      -4.097   4.032  23.874  0.00  0.00    +0.010 C 
ATOM      2  C   UNL     1      -3.877   3.609  24.547  0.00  0.00    +0.081 C 
BRANCH   2  27
ATOM     27  C   UNL     1      -4.452   3.242  25.010  0.00  0.00    +0.241 C 
ATOM     28  O   UNL     1      -4.621   3.530  25.765  0.00  0.00    -0.273 OA
ATOM     29  N   UNL     1      -4.860   2.587  24.719  0.00  0.00    -0.207 NA
BRANCH  29  30
ATOM     30  C   UNL     1      -5.435   2.220  25.181  0.00  0.00    +0.095 C 
ATOM     31  C   UNL     1      -6.129   2.568  25.460  0.00  0.00    +0.022 C 
ATOM     32  C   UNL     1      -6.541   2.003  25.898  0.00  0.00    +0.002 C 
ATOM     33  C   UNL     1      -6.102   1.305  25.891  0.00  0.00    +0.002 C 
ATOM     34  C   UNL     1      -5.418   1.439  25.448  0.00  0.00    +0.022 C 
ENDBRANCH  29  30
ENDBRANCH   2  27
ENDBRANCH   3   2
TORSDOF 7
ENDMDL
MODEL 3
REMARK VINA RESULT:      -9.6      3.605      4.984
REMARK  Name = 
REMARK  7 active torsions:
REMARK  status: ('A' for Active; 'I' for Inactive)
REMARK    1  A    between atoms: C_2  and  C_3
REMARK    2  A    between atoms: C_2  and  C_27
REMARK    3  A    between atoms: C_10  and  N_11
REMARK    4  A    between atoms: C_12  and  C_14
REMARK    5  A    between atoms: C_14  and  O_15
REMARK    6  A    between atoms: O_15  and  C_16
REMARK    7  A    between atoms: N_29  and  C_30
REMARK                            x       y       z     vdW  Elec       q    Type
REMARK                         _______ _______ _______ _____ _____    ______ ____
ROOT
ATOM      3  C   UNL     1      -4.226   3.316  24.653  0.00  0.00    +0.039 C 
ATOM      4  C   UNL     1      -4.843   3.427  25.191  0.00  0.00    +0.003 C 
ATOM      5  C   UNL     1      -5.251   2.776  25.489  0.00  0.00    +0.000 C 
ATOM      6  C   UNL     1      -5.044   2.014  25.250  0.00  0.00    +0.002 C 
ATOM      7  C   UNL     1      -5.660   2.125  25.787  0.00  0.00    +0.000 C 
ATOM      8  C   UNL     1      -5.453   1.362  25.548  0.00  0.00    +0.002 C 
ATOM      9  C   UNL     1      -5.246   0.601  25.309  0.00  0.00    +0.022 C 
ATOM     10  C   UNL     1      -4.629   0.490  24.771  0.00  0.00    +0.095 C 
ATOM     22  C   UNL     1      -4.221   1.141  24.474  0.00  0.00    +0.022 C 
ATOM     23  C   UNL     1      -3.605   1.031  23.936  0.00  0.00    +0.002 C 
ATOM     24  C   UNL     1      -4.428   1.903  24.712  0.00  0.00    +0.032 C 
ATOM     25  C   UNL     1      -4.019   2.555  24.414  0.00  0.00    +0.152 C 
ATOM     26  O   UNL     1      -3.403   2.444  23.877  0.00  0.00    -0.223 OA
ENDROOT
BRANCH  10  11
ATOM     11  N   UNL     1      -4.423  -0.272  24.533  0.00  0.00    -0.204 NA
ATOM     12  C   UNL     1      -4.169  -0.825  25.090  0.00  0.00    +0.286 C 
ATOM     13  O   UNL     1      -4.122  -0.615  25.887  0.00  0.00    -0.269 OA
BRANCH  12  14
ATOM     14  C   UNL     1      -3.962  -1.587  24.851  0.00  0.00    +0.291 C 
BRANCH  14  15
ATOM     15  O   UNL     1      -3.376  -2.002  25.256  0.00  0.00    -0.466 OA
BRANCH  15  16
ATOM     16  C   UNL     1      -2.751  -2.346  24.840  0.00  0.00    +0.139 A 
ATOM     17  C   UNL     1      -2.903  -2.918  24.266  0.00  0.00    +0.037 A 
ATOM     18  C   UNL     1      -2.278  -3.262  23.851  0.00  0.00    +0.003 A 
ATOM     19  C   UNL     1      -1.502  -3.033  24.010  0.00  0.00    +0.000 A 
ATOM     20  C   UNL     1      -1.350  -2.460  24.584  0.00  0.00    +0.003 A 
ATOM     21  C   UNL     1      -1.975  -2.117  24.999  0.00  0.00    +0.037 A 
ENDBRANCH  15  16
ENDBRANCH  14  15
ENDBRANCH  12  14
ENDBRANCH  10  11
BRANCH   3   2
ATOM      1  C   UNL     1      -4.101   4.363  23.688  0.00  0.00    +0.010 C 
ATOM      2  C   UNL     1      -3.817   3.968  24.355  0.00  0.00    +0.081 C 
BRANCH   2  27
ATOM     27  C   UNL     1      -3.125   4.226  24.723  0.00  0.00    +0.241 C 
ATOM     28  O   UNL     1      -3.137   4.439  25.520  0.00  0.00    -0.273 OA
ATOM     29  N   UNL     1      -2.422   4.271  24.294  0.00  0.00    -0.207 NA
BRANCH  29  30
ATOM     30  C   UNL     1      -1.731   4.528  24.662  0.00  0.00    +0.095 C 
ATOM     31  C   UNL     1      -1.522   5.313  24.810  0.00  0.00    +0.022 C 
ATOM     32  C   UNL     1      -0.788   5.316  25.186  0.00  0.00    +0.002 C 
ATOM     33  C   UNL     1      -0.542   4.533  25.272  0.00  0.00    +0.002 C 
ATOM     34  C   UNL     1      -1.124   4.047  24.948  0.00  0.00    +0.022 C 
ENDBRANCH  29  30
ENDBRANCH   2  27
ENDBRANCH   3   2
TORSDOF 7
ENDMDL
MODEL 4
REMARK VINA RESULT:      -9.4      3.370      5.357
REMARK  Name = 
REMARK  7 active torsions:
REMARK  status: ('A' for Active; 'I' for Inactive)
REMARK    1  A    between atoms: C_2  and  C_3
REMARK    2  A    between atoms: C_2  and  C_27
REMARK    3  A    between atoms: C_10  and  N_11
REMARK    4  A    between atoms: C_12  and  C_14
REMARK    5  A    between atoms: C_14  and  O_15
REMARK    6  A    between atoms: O_15  and  C_16
REMARK    7  A    between atoms: N_29  and  C_30
REMARK                            x       y       z     vdW  Elec       q    Type
REMARK                         _______ _______ _______ _____ _____    ______ ____
ROOT
ATOM      3  C   UNL     1      -4.279  -0.246  24.427  0.00  0.00    +0.039 C 
ATOM      4  C   UNL     1      -4.972  -0.271  24.876  0.00  0.00    +0.003 C 
ATOM      5  C   UNL     1      -5.273   0.421  25.208  0.00  0.00    +0.000 C 
ATOM      6  C   UNL     1      -4.883   1.138  25.092  0.00  0.00    +0.002 C 
ATOM      7  C   UNL     1      -5.574   1.113  25.540  0.00  0.00    +0.000 C 
ATOM      8  C   UNL     1      -5.183   1.830  25.425  0.00  0.00    +0.002 C 
ATOM      9  C   UNL     1      -4.793   2.547  25.309  0.00  0.00    +0.022 C 
ATOM     10  C   UNL     1      -4.100   2.572  24.860  0.00  0.00    +0.095 C 
ATOM     22  C   UNL     1      -3.799   1.880  24.528  0.00  0.00    +0.022 C 
ATOM     23  C   UNL     1      -3.107   1.905  24.080  0.00  0.00    +0.002 C 
ATOM     24  C   UNL     1      -4.190   1.162  24.644  0.00  0.00    +0.032 C 
ATOM     25  C   UNL     1      -3.889   0.471  24.312  0.00  0.00    +0.152 C 
ATOM     26  O   UNL     1      -3.196   0.495  23.863  0.00  0.00    -0.223 OA
ENDROOT
BRANCH  10  11
ATOM     11  N   UNL     1      -3.710   3.290  24.744  0.00  0.00    -0.204 NA
ATOM     12  C   UNL     1      -3.478   3.743  25.393  0.00  0.00    +0.286 C 
ATOM     13  O   UNL     1      -3.637   3.479  26.159  0.00  0.00    -0.269 OA
BRANCH  12  14
ATOM     14  C   UNL     1      -3.087   4.461  25.277  0.00  0.00    +0.291 C 
BRANCH  14  15
ATOM     15  O   UNL     1      -2.407   4.635  25.708  0.00  0.00    -0.466 OA
BRANCH  15  16
ATOM     16  C   UNL     1      -1.728   4.898  25.320  0.00  0.00    +0.139 A 
ATOM     17  C   UNL     1      -1.691   5.668  25.028  0.00  0.00    +0.037 A 
ATOM     18  C   UNL     1      -1.012   5.931  24.640  0.00  0.00    +0.003 A 
ATOM     19  C   UNL     1      -0.369   5.422  24.544  0.00  0.00    +0.000 A 
ATOM     20  C   UNL     1      -0.406   4.651  24.836  0.00  0.00    +0.003 A 
ATOM     21  C   UNL     1      -1.085   4.389  25.224  0.00  0.00    +0.037 A 
ENDBRANCH  15  16
ENDBRANCH  14  15
ENDBRANCH  12  14
ENDBRANCH  10  11
BRANCH   3   2
ATOM      1  C   UNL     1      -4.264  -1.205  23.368  0.00  0.00    +0.010 C 
ATOM      2  C   UNL     1      -3.978  -0.939  24.095  0.00  0.00    +0.081 C 
BRANCH   2  27
ATOM     27  C   UNL     1      -3.392  -1.366  24.489  0.00  0.00    +0.241 C 
ATOM     28  O   UNL     1      -3.536  -1.663  25.246  0.00  0.00    -0.273 OA
ATOM     29  N   UNL     1      -2.663  -1.497  24.127  0.00  0.00    -0.207 NA
BRANCH  29  30
ATOM     30  C   UNL     1      -2.077  -1.923  24.521  0.00  0.00    +0.095 C 
ATOM     31  C   UNL     1      -2.006  -2.745  24.542  0.00  0.00    +0.022 C 
ATOM     32  C   UNL     1      -1.345  -2.933  24.997  0.00  0.00    +0.002 C 
ATOM     33  C   UNL     1      -1.006  -2.227  25.259  0.00  0.00    +0.002 C 
ATOM     34  C   UNL     1      -1.459  -1.604  24.964  0.00  0.00    +0.022 C 
ENDBRANCH  29  30
ENDBRANCH   2  27
ENDBRANCH   3   2
TORSDOF 7
ENDMDL
MODEL 5
REMARK VINA RESULT:      -9.2      1.097      6.768
REMARK  Name = 
REMARK  7 active torsions:
REMARK  status: ('A' for Active; 'I' for Inactive)
REMARK    1  A    between atoms: C_2  and  C_3
REMARK    2  A    between atoms: C_2  and  C_27
REMARK    3  A    between atoms: C_10  and  N_11
REMARK    4  A    between atoms: C_12  and  C_14
REMARK    5  A    between atoms: C_14  and  O_15
REMARK    6  A    between atoms: O_15  and  C_16
REMARK    7  A    between atoms: N_29  and  C_30
REMARK                            x       y       z     vdW  Elec       q    Type
REMARK                         _______ _______ _______ _____ _____    ______ ____
ROOT
ATOM      3  C   UNL     1       0.716  -0.153  23.296  0.00  0.00    +0.039 C 
ATOM      4  C   UNL     1       0.722  -0.873  23.701  0.00  0.00    +0.003 C 
ATOM      5  C   UNL     1       0.160  -1.022  24.285  0.00  0.00    +0.000 C 
ATOM      6  C   UNL     1      -0.408  -0.453  24.465  0.00  0.00    +0.002 C 
ATOM      7  C   UNL     1      -0.403  -1.171  24.869  0.00  0.00    +0.000 C 
ATOM      8  C   UNL     1      -0.972  -0.601  25.050  0.00  0.00    +0.002 C 
ATOM      9  C   UNL     1      -1.540  -0.032  25.230  0.00  0.00    +0.022 C 
ATOM     10  C   UNL     1      -1.546   0.688  24.825  0.00  0.00    +0.095 C 
ATOM     22  C   UNL     1      -0.983   0.837  24.241  0.00  0.00    +0.022 C 
ATOM     23  C   UNL     1      -0.989   1.556  23.837  0.00  0.00    +0.002 C 
ATOM     24  C   UNL     1      -0.414   0.267  24.061  0.00  0.00    +0.032 C 
ATOM     25  C   UNL     1       0.148   0.416  23.476  0.00  0.00    +0.152 C 
ATOM     26  O   UNL     1       0.142   1.135  23.072  0.00  0.00    -0.223 OA
ENDROOT
BRANCH  10  11
ATOM     11  N   UNL     1      -2.115   1.258  25.006  0.00  0.00    -0.204 NA
ATOM     12  C   UNL     1      -2.915   1.060  24.996  0.00  0.00    +0.286 C 
ATOM     13  O   UNL     1      -3.148   0.290  24.806  0.00  0.00    -0.269 OA
BRANCH  12  14
ATOM     14  C   UNL     1      -3.484   1.629  25.177  0.00  0.00    +0.291 C 
BRANCH  14  15
ATOM     15  O   UNL     1      -4.244   1.568  24.864  0.00  0.00    -0.466 OA
BRANCH  15  16
ATOM     16  C   UNL     1      -4.845   2.063  25.137  0.00  0.00    +0.139 A 
ATOM     17  C   UNL     1      -4.756   2.881  25.096  0.00  0.00    +0.037 A 
ATOM     18  C   UNL     1      -5.357   3.376  25.370  0.00  0.00    +0.003 A 
ATOM     19  C   UNL     1      -6.048   3.051  25.683  0.00  0.00    +0.000 A 
ATOM     20  C   UNL     1      -6.137   2.231  25.724  0.00  0.00    +0.003 A 
ATOM     21  C   UNL     1      -5.536   1.738  25.450  0.00  0.00    +0.037 A 
ENDBRANCH  15  16
ENDBRANCH  14  15
ENDBRANCH  12  14
ENDBRANCH  10  11
BRANCH   3   2
ATOM      1  C   UNL     1       1.084  -0.105  21.916  0.00  0.00    +0.010 C 
ATOM      2  C   UNL     1       1.279  -0.005  22.712  0.00  0.00    +0.081 C 
BRANCH   2  27
ATOM     27  C   UNL     1       2.038   0.243  22.921  0.00  0.00    +0.241 C 
ATOM     28  O   UNL     1       2.136   0.883  23.435  0.00  0.00    -0.273 OA
ATOM     29  N   UNL     1       2.698  -0.147  22.619  0.00  0.00    -0.207 NA
BRANCH  29  30
ATOM     30  C   UNL     1       3.456   0.101  22.829  0.00  0.00    +0.095 C 
ATOM     31  C   UNL     1       3.997  -0.322  23.286  0.00  0.00    +0.022 C 
ATOM     32  C   UNL     1       4.682   0.132  23.358  0.00  0.00    +0.002 C 
ATOM     33  C   UNL     1       4.565   0.837  22.945  0.00  0.00    +0.002 C 
ATOM     34  C   UNL     1       3.808   0.818  22.619  0.00  0.00    +0.022 C 
ENDBRANCH  29  30
ENDBRANCH   2  27
ENDBRANCH   3   2
TORSDOF 7
ENDMDL
MODEL 6
REMARK VINA RESULT:      -8.9      2.609      5.195
REMARK  Name = 
REMARK  7 active torsions:
REMARK  status: ('A' for Active; 'I' for Inactive)
REMARK    1  A    between atoms: C_2  and  C_3
REMARK    2  A    between atoms: C_2  and  C_27
REMARK    3  A    between atoms: C_10  and  N_11
REMARK    4  A    between atoms: C_12  and  C_14
REMARK    5  A    between atoms: C_14  and  O_15
REMARK    6  A    between atoms: O_15  and  C_16
REMARK    7  A    between atoms: N_29  and  C_30
REMARK                            x       y       z     vdW  Elec       q    Type
REMARK                         _______ _______ _______ _____ _____    ______ ____
ROOT
ATOM      3  C   UNL     1      -0.705  -1.123  24.642  0.00  0.00    +0.039 C 
ATOM      4  C   UNL     1      -0.188  -1.164  23.999  0.00  0.00    +0.003 C 
ATOM      5  C   UNL     1       0.156  -0.476  23.703  0.00  0.00    +0.000 C 
ATOM      6  C   UNL     1      -0.015   0.253  24.048  0.00  0.00    +0.002 C 
ATOM      7  C   UNL     1       0.500   0.213  23.406  0.00  0.00    +0.000 C 
ATOM      8  C   UNL     1       0.329   0.942  23.752  0.00  0.00    +0.002 C 
ATOM      9  C   UNL     1       0.158   1.671  24.098  0.00  0.00    +0.022 C 
ATOM     10  C   UNL     1      -0.359   1.711  24.741  0.00  0.00    +0.095 C 
ATOM     22  C   UNL     1      -0.703   1.023  25.037  0.00  0.00    +0.022 C 
ATOM     23  C   UNL     1      -1.219   1.064  25.680  0.00  0.00    +0.002 C 
ATOM     24  C   UNL     1      -0.532   0.294  24.692  0.00  0.00    +0.032 C 
ATOM     25  C   UNL     1      -0.876  -0.395  24.988  0.00  0.00    +0.152 C 
ATOM     26  O   UNL     1      -1.392  -0.354  25.630  0.00  0.00    -0.223 OA
ENDROOT
BRANCH  10  11
ATOM     11  N   UNL     1      -0.530   2.441  25.087  0.00  0.00    -0.204 NA
ATOM     12  C   UNL     1      -0.800   3.065  24.621  0.00  0.00    +0.286 C 
ATOM     13  O   UNL     1      -0.900   2.961  23.808  0.00  0.00    -0.269 OA
BRANCH  12  14
ATOM     14  C   UNL     1      -0.971   3.795  24.967  0.00  0.00    +0.291 C 
BRANCH  14  15
ATOM     15  O   UNL     1      -1.627   4.227  24.717  0.00  0.00    -0.466 OA
BRANCH  15  16
ATOM     16  C   UNL     1      -2.296   4.278  25.197  0.00  0.00    +0.139 A 
ATOM     17  C   UNL     1      -2.224   4.527  25.980  0.00  0.00    +0.037 A 
ATOM     18  C   UNL     1      -2.893   4.579  26.460  0.00  0.00    +0.003 A 
ATOM     19  C   UNL     1      -3.634   4.381  26.157  0.00  0.00    +0.000 A 
ATOM     20  C   UNL     1      -3.707   4.131  25.373  0.00  0.00    +0.003 A 
ATOM     21  C   UNL     1      -3.037   4.080  24.894  0.00  0.00    +0.037 A 
ENDBRANCH  15  16
ENDBRANCH  14  15
ENDBRANCH  12  14
ENDBRANCH  10  11
BRANCH   3   2
ATOM      1  C   UNL     1      -0.721  -2.186  25.596  0.00  0.00    +0.010 C 
ATOM      2  C   UNL     1      -1.049  -1.812  24.938  0.00  0.00    +0.081 C 
BRANCH   2  27
ATOM     27  C   UNL     1      -1.720  -2.127  24.577  0.00  0.00    +0.241 C 
ATOM     28  O   UNL     1      -1.648  -2.560  23.877  0.00  0.00    -0.273 OA
ATOM     29  N   UNL     1      -2.464  -2.012  24.915  0.00  0.00    -0.207 NA
BRANCH  29  30
ATOM     30  C   UNL     1      -3.134  -2.327  24.554  0.00  0.00    +0.095 C 
ATOM     31  C   UNL     1      -3.377  -3.115  24.583  0.00  0.00    +0.022 C 
ATOM     32  C   UNL     1      -4.073  -3.184  24.147  0.00  0.00    +0.002 C 
ATOM     33  C   UNL     1      -4.263  -2.439  23.847  0.00  0.00    +0.002 C 
ATOM     34  C   UNL     1      -3.682  -1.909  24.099  0.00  0.00    +0.022 C 
ENDBRANCH  29  30
ENDBRANCH   2  27
ENDBRANCH   3   2
TORSDOF 7
ENDMDL
MODEL 7
REMARK VINA RESULT:      -8.8      2.823      4.038
REMARK  Name = 
REMARK  7 active torsions:
REMARK  status: ('A' for Active; 'I' for Inactive)
REMARK    1  A    between atoms: C_2  and  C_3
REMARK    2  A    between atoms: C_2  and  C_27
REMARK    3  A    between atoms: C_10  and  N_11
REMARK    4  A    between atoms: C_12  and  C_14
REMARK    5  A    between atoms: C_14  and  O_15
REMARK    6  A    between atoms: O_15  and  C_16
REMARK    7  A    between atoms: N_29  and  C_30
REMARK                            x       y       z     vdW  Elec       q    Type
REMARK                         _______ _______ _______ _____ _____    ______ ____
ROOT
ATOM      3  C   UNL     1      -2.054   3.406  25.212  0.00  0.00    +0.039 C 
ATOM      4  C   UNL     1      -1.463   3.612  25.752  0.00  0.00    +0.003 C 
ATOM      5  C   UNL     1      -0.900   3.054  25.979  0.00  0.00    +0.000 C 
ATOM      6  C   UNL     1      -0.926   2.291  25.667  0.00  0.00    +0.002 C 
ATOM      7  C   UNL     1      -0.337   2.496  26.206  0.00  0.00    +0.000 C 
ATOM      8  C   UNL     1      -0.363   1.733  25.894  0.00  0.00    +0.002 C 
ATOM      9  C   UNL     1      -0.389   0.970  25.582  0.00  0.00    +0.022 C 
ATOM     10  C   UNL     1      -0.979   0.764  25.042  0.00  0.00    +0.095 C 
ATOM     22  C   UNL     1      -1.542   1.322  24.815  0.00  0.00    +0.022 C 
ATOM     23  C   UNL     1      -2.132   1.117  24.276  0.00  0.00    +0.002 C 
ATOM     24  C   UNL     1      -1.517   2.086  25.127  0.00  0.00    +0.032 C 
ATOM     25  C   UNL     1      -2.080   2.644  24.900  0.00  0.00    +0.152 C 
ATOM     26  O   UNL     1      -2.669   2.438  24.361  0.00  0.00    -0.223 OA
ENDROOT
BRANCH  10  11
ATOM     11  N   UNL     1      -1.005   0.001  24.731  0.00  0.00    -0.204 NA
ATOM     12  C   UNL     1      -1.057  -0.649  25.235  0.00  0.00    +0.286 C 
ATOM     13  O   UNL     1      -1.083  -0.537  26.053  0.00  0.00    -0.269 OA
BRANCH  12  14
ATOM     14  C   UNL     1      -1.082  -1.413  24.923  0.00  0.00    +0.291 C 
BRANCH  14  15
ATOM     15  O   UNL     1      -1.522  -1.999  25.301  0.00  0.00    -0.466 OA
BRANCH  15  16
ATOM     16  C   UNL     1      -2.143  -2.370  24.905  0.00  0.00    +0.139 A 
ATOM     17  C   UNL     1      -1.996  -2.802  24.218  0.00  0.00    +0.037 A 
ATOM     18  C   UNL     1      -2.617  -3.174  23.822  0.00  0.00    +0.003 A 
ATOM     19  C   UNL     1      -3.387  -3.111  24.113  0.00  0.00    +0.000 A 
ATOM     20  C   UNL     1      -3.535  -2.678  24.800  0.00  0.00    +0.003 A 
ATOM     21  C   UNL     1      -2.913  -2.308  25.195  0.00  0.00    +0.037 A 
ENDBRANCH  15  16
ENDBRANCH  14  15
ENDBRANCH  12  14
ENDBRANCH  10  11
BRANCH   3   2
ATOM      1  C   UNL     1      -2.432   4.526  24.409  0.00  0.00    +0.010 C 
ATOM      2  C   UNL     1      -2.617   3.965  24.985  0.00  0.00    +0.081 C 
BRANCH   2  27
ATOM     27  C   UNL     1      -3.365   3.964  25.333  0.00  0.00    +0.241 C 
ATOM     28  O   UNL     1      -3.445   4.134  26.138  0.00  0.00    -0.273 OA
ATOM     29  N   UNL     1      -4.032   3.793  24.880  0.00  0.00    -0.207 NA
BRANCH  29  30
ATOM     30  C   UNL     1      -4.779   3.791  25.228  0.00  0.00    +0.095 C 
ATOM     31  C   UNL     1      -5.254   4.453  25.361  0.00  0.00    +0.022 C 
ATOM     32  C   UNL     1      -5.951   4.198  25.721  0.00  0.00    +0.002 C 
ATOM     33  C   UNL     1      -5.908   3.379  25.811  0.00  0.00    +0.002 C 
ATOM     34  C   UNL     1      -5.184   3.128  25.506  0.00  0.00    +0.022 C 
ENDBRANCH  29  30
ENDBRANCH   2  27
ENDBRANCH   3   2
TORSDOF 7
ENDMDL
