MODEL 1
REMARK VINA RESULT:     -14.0      0.000      0.000
REMARK  Name = 
REMARK  6 active torsions:
REMARK  status: ('A' for Active; 'I' for Inactive)
REMARK    1  A    between atoms: N_2  and  C_4
REMARK    2  A    between atoms: C_7  and  C_10
REMARK    3  A    between atoms: N_14  and  C_15
REMARK    4  A    between atoms: C_19  and  O_23
REMARK    5  A    between atoms: O_23  and  C_24
REMARK    6  A    between atoms: N_26  and  C_27
REMARK                            x       y       z     vdW  Elec       q    Type
REMARK                         _______ _______ _______ _____ _____    ______ ____
ROOT
ATOM     15  C   UNL     1      -1.013   3.248  25.473  0.00  0.00    +0.167 C 
ATOM     16  C   UNL     1      -1.182   2.967  26.229  0.00  0.00    +0.169 C 
ATOM     17  O   UNL     1      -0.972   2.170  26.258  0.00  0.00    -0.348 OA
ATOM     18  C   UNL     1      -0.673   1.959  25.519  0.00  0.00    +0.187 C 
ATOM     19  C   UNL     1      -0.357   1.336  25.079  0.00  0.00    +0.229 C 
ATOM     20  C   UNL     1      -0.188   1.617  24.322  0.00  0.00    +0.188 C 
ATOM     21  O   UNL     1      -0.399   2.415  24.294  0.00  0.00    -0.348 OA
ATOM     22  C   UNL     1      -0.698   2.626  25.034  0.00  0.00    +0.171 C 
ENDROOT
BRANCH  15  14
ATOM     10  C   UNL     1      -1.870   4.361  25.038  0.00  0.00    +0.184 A 
ATOM     11  N   UNL     1      -1.737   5.135  24.785  0.00  0.00    -0.108 NA
ATOM     12  N   UNL     1      -0.923   5.271  24.794  0.00  0.00    -0.023 NA
ATOM     13  N   UNL     1      -0.553   4.580  25.053  0.00  0.00    -0.043 NA
ATOM     14  N   UNL     1      -1.137   4.018  25.204  0.00  0.00    -0.210 N 
BRANCH  10   7
ATOM      4  C   UNL     1      -4.075   3.261  25.261  0.00  0.00    +0.048 A 
ATOM      5  C   UNL     1      -3.728   3.624  25.915  0.00  0.00    +0.015 A 
ATOM      6  C   UNL     1      -2.993   3.991  25.840  0.00  0.00    +0.004 A 
ATOM      7  C   UNL     1      -2.605   3.995  25.112  0.00  0.00    +0.037 A 
ATOM      8  C   UNL     1      -2.953   3.631  24.458  0.00  0.00    +0.004 A 
ATOM      9  C   UNL     1      -3.688   3.265  24.532  0.00  0.00    +0.015 A 
BRANCH   4   2
ATOM      1  C   UNL     1      -5.364   3.185  25.875  0.00  0.00    +0.112 C 
ATOM      2  N   UNL     1      -4.811   2.895  25.335  0.00  0.00    -0.304 N 
ATOM      3  C   UNL     1      -4.994   2.238  24.870  0.00  0.00    +0.112 C 
ENDBRANCH   4   2
ENDBRANCH  10   7
ENDBRANCH  15  14
BRANCH  19  23
ATOM     23  O   UNL     1      -0.233   0.566  25.350  0.00  0.00    -0.432 OA
BRANCH  23  24
ATOM     24  C   UNL     1      -0.611  -0.067  24.980  0.00  0.00    +0.425 C 
ATOM     25  O   UNL     1      -0.443  -0.244  24.191  0.00  0.00    -0.224 OA
ATOM     26  N   UNL     1      -1.156  -0.523  25.398  0.00  0.00    -0.142 NA
BRANCH  26  27
ATOM     27  C   UNL     1      -1.534  -1.156  25.028  0.00  0.00    +0.077 A 
ATOM     28  C   UNL     1      -1.101  -1.677  24.558  0.00  0.00    +0.017 A 
ATOM     29  C   UNL     1      -1.480  -2.311  24.188  0.00  0.00    +0.001 A 
ATOM     30  C   UNL     1      -2.290  -2.422  24.288  0.00  0.00    +0.000 A 
ATOM     31  C   UNL     1      -2.724  -1.901  24.757  0.00  0.00    +0.001 A 
ATOM     32  C   UNL     1      -3.535  -2.012  24.858  0.00  0.00    +0.000 A 
ATOM     33  C   UNL     1      -3.968  -1.491  25.327  0.00  0.00    +0.000 A 
ATOM     34  C   UNL     1      -3.590  -0.857  25.698  0.00  0.00    +0.000 A 
ATOM     35  C   UNL     1      -2.779  -0.746  25.598  0.00  0.00    +0.001 A 
ATOM     36  C   UNL     1      -2.345  -1.268  25.128  0.00  0.00    +0.015 A 
ENDBRANCH  26  27
ENDBRANCH  23  24
ENDBRANCH  19  23
TORSDOF 6
ENDMDL
MODEL 2
REMARK VINA RESULT:     -13.6      1.305      4.613
REMARK  Name = 
REMARK  6 active torsions:
REMARK  status: ('A' for Active; 'I' for Inactive)
REMARK    1  A    between atoms: N_2  and  C_4
REMARK    2  A    between atoms: C_7  and  C_10
REMARK    3  A    between atoms: N_14  and  C_15
REMARK    4  A    between atoms: C_19  and  O_23
REMARK    5  A    between atoms: O_23  and  C_24
REMARK    6  A    between atoms: N_26  and  C_27
REMARK                            x       y       z     vdW  Elec       q    Type
REMARK                         _______ _______ _______ _____ _____    ______ ____
ROOT
ATOM     15  C   UNL     1      -1.671  -0.771  25.079  0.00  0.00    +0.167 C 
ATOM     16  C   UNL     1      -1.688  -0.540  25.870  0.00  0.00    +0.169 C 
ATOM     17  O   UNL     1      -1.194   0.115  25.956  0.00  0.00    -0.348 OA
ATOM     18  C   UNL     1      -0.872   0.288  25.217  0.00  0.00    +0.187 C 
ATOM     19  C   UNL     1      -0.367   0.801  24.812  0.00  0.00    +0.229 C 
ATOM     20  C   UNL     1      -0.350   0.570  24.020  0.00  0.00    +0.188 C 
ATOM     21  O   UNL     1      -0.845  -0.085  23.935  0.00  0.00    -0.348 OA
ATOM     22  C   UNL     1      -1.167  -0.259  24.675  0.00  0.00    +0.171 C 
ENDROOT
BRANCH  15  14
ATOM     10  C   UNL     1      -2.891  -1.409  24.561  0.00  0.00    +0.184 A 
ATOM     11  N   UNL     1      -3.072  -2.150  24.246  0.00  0.00    -0.108 NA
ATOM     12  N   UNL     1      -2.382  -2.601  24.240  0.00  0.00    -0.023 NA
ATOM     13  N   UNL     1      -1.773  -2.139  24.551  0.00  0.00    -0.043 NA
ATOM     14  N   UNL     1      -2.087  -1.403  24.749  0.00  0.00    -0.210 N 
BRANCH  10   7
ATOM      4  C   UNL     1      -4.475   0.465  24.883  0.00  0.00    +0.048 A 
ATOM      5  C   UNL     1      -4.302  -0.042  25.511  0.00  0.00    +0.015 A 
ATOM      6  C   UNL     1      -3.774  -0.666  25.403  0.00  0.00    +0.004 A 
ATOM      7  C   UNL     1      -3.419  -0.784  24.668  0.00  0.00    +0.037 A 
ATOM      8  C   UNL     1      -3.592  -0.278  24.040  0.00  0.00    +0.004 A 
ATOM      9  C   UNL     1      -4.120   0.347  24.148  0.00  0.00    +0.015 A 
BRANCH   4   2
ATOM      1  C   UNL     1      -5.548   1.067  25.610  0.00  0.00    +0.112 C 
ATOM      2  N   UNL     1      -5.003   1.089  24.991  0.00  0.00    -0.304 N 
ATOM      3  C   UNL     1      -4.986   1.736  24.480  0.00  0.00    +0.112 C 
ENDBRANCH   4   2
ENDBRANCH  10   7
ENDBRANCH  15  14
BRANCH  19  23
ATOM     23  O   UNL     1       0.048   1.434  25.142  0.00  0.00    -0.432 OA
BRANCH  23  24
ATOM     24  C   UNL     1      -0.149   2.207  24.939  0.00  0.00    +0.425 C 
ATOM     25  O   UNL     1       0.072   2.510  24.203  0.00  0.00    -0.224 OA
ATOM     26  N   UNL     1      -0.567   2.680  25.470  0.00  0.00    -0.142 NA
BRANCH  26  27
ATOM     27  C   UNL     1      -0.765   3.454  25.267  0.00  0.00    +0.077 A 
ATOM     28  C   UNL     1      -0.250   3.904  24.807  0.00  0.00    +0.017 A 
ATOM     29  C   UNL     1      -0.448   4.680  24.603  0.00  0.00    +0.001 A 
ATOM     30  C   UNL     1      -1.161   5.004  24.860  0.00  0.00    +0.000 A 
ATOM     31  C   UNL     1      -1.676   4.554  25.320  0.00  0.00    +0.001 A 
ATOM     32  C   UNL     1      -2.390   4.878  25.578  0.00  0.00    +0.000 A 
ATOM     33  C   UNL     1      -2.906   4.429  26.037  0.00  0.00    +0.000 A 
ATOM     34  C   UNL     1      -2.708   3.653  26.241  0.00  0.00    +0.000 A 
ATOM     35  C   UNL     1      -1.995   3.329  25.984  0.00  0.00    +0.001 A 
ATOM     36  C   UNL     1      -1.478   3.779  25.524  0.00  0.00    +0.015 A 
ENDBRANCH  26  27
ENDBRANCH  23  24
ENDBRANCH  19  23
TORSDOF 6
ENDMDL
MODEL 3
REMARK VINA RESULT:     -12.4      1.719      3.220
REMARK  Name = 
REMARK  6 active torsions:
REMARK  status: ('A' for Active; 'I' for Inactive)
REMARK    1  A    between atoms: N_2  and  C_4
REMARK    2  A    between atoms: C_7  and  C_10
REMARK    3  A    between atoms: N_14  and  C_15
REMARK    4  A    between atoms: C_19  and  O_23
REMARK    5  A    between atoms: O_23  and  C_24
REMARK    6  A    between atoms: N_26  and  C_27
REMARK                            x       y       z     vdW  Elec       q    Type
REMARK                         _______ _______ _______ _____ _____    ______ ____
ROOT
ATOM     15  C   UNL     1      -3.696   2.984  24.776  0.00  0.00    +0.167 C 
ATOM     16  C   UNL     1      -3.371   2.937  24.020  0.00  0.00    +0.169 C 
ATOM     17  O   UNL     1      -3.565   2.200  23.704  0.00  0.00    -0.348 OA
ATOM     18  C   UNL     1      -4.011   1.792  24.265  0.00  0.00    +0.187 C 
ATOM     19  C   UNL     1      -4.407   1.084  24.417  0.00  0.00    +0.229 C 
ATOM     20  C   UNL     1      -4.732   1.131  25.175  0.00  0.00    +0.188 C 
ATOM     21  O   UNL     1      -4.537   1.868  25.490  0.00  0.00    -0.348 OA
ATOM     22  C   UNL     1      -4.091   2.277  24.928  0.00  0.00    +0.171 C 
ENDROOT
BRANCH  15  14
ATOM     10  C   UNL     1      -2.946   3.886  25.662  0.00  0.00    +0.184 A 
ATOM     11  N   UNL     1      -3.138   4.542  26.124  0.00  0.00    -0.108 NA
ATOM     12  N   UNL     1      -3.945   4.688  26.039  0.00  0.00    -0.023 NA
ATOM     13  N   UNL     1      -4.252   4.121  25.523  0.00  0.00    -0.043 NA
ATOM     14  N   UNL     1      -3.636   3.626  25.290  0.00  0.00    -0.210 N 
BRANCH  10   7
ATOM      4  C   UNL     1      -0.699   2.876  25.431  0.00  0.00    +0.048 A 
ATOM      5  C   UNL     1      -1.203   2.624  26.032  0.00  0.00    +0.015 A 
ATOM      6  C   UNL     1      -1.953   2.961  26.109  0.00  0.00    +0.004 A 
ATOM      7  C   UNL     1      -2.197   3.549  25.585  0.00  0.00    +0.037 A 
ATOM      8  C   UNL     1      -1.691   3.801  24.983  0.00  0.00    +0.004 A 
ATOM      9  C   UNL     1      -0.942   3.464  24.906  0.00  0.00    +0.015 A 
BRANCH   4   2
ATOM      1  C   UNL     1       0.298   2.245  24.623  0.00  0.00    +0.112 C 
ATOM      2  N   UNL     1       0.050   2.539  25.354  0.00  0.00    -0.304 N 
ATOM      3  C   UNL     1       0.553   2.495  26.007  0.00  0.00    +0.112 C 
ENDBRANCH   4   2
ENDBRANCH  10   7
ENDBRANCH  15  14
BRANCH  19  23
ATOM     23  O   UNL     1      -4.467   0.441  23.902  0.00  0.00    -0.432 OA
BRANCH  23  24
ATOM     24  C   UNL     1      -4.257  -0.313  24.159  0.00  0.00    +0.425 C 
ATOM     25  O   UNL     1      -4.774  -0.747  24.634  0.00  0.00    -0.224 OA
ATOM     26  N   UNL     1      -3.529  -0.636  23.941  0.00  0.00    -0.142 NA
BRANCH  26  27
ATOM     27  C   UNL     1      -3.319  -1.391  24.198  0.00  0.00    +0.077 A 
ATOM     28  C   UNL     1      -3.882  -1.993  24.210  0.00  0.00    +0.017 A 
ATOM     29  C   UNL     1      -3.671  -2.750  24.467  0.00  0.00    +0.001 A 
ATOM     30  C   UNL     1      -2.898  -2.902  24.711  0.00  0.00    +0.000 A 
ATOM     31  C   UNL     1      -2.336  -2.299  24.699  0.00  0.00    +0.001 A 
ATOM     32  C   UNL     1      -1.562  -2.451  24.943  0.00  0.00    +0.000 A 
ATOM     33  C   UNL     1      -1.000  -1.848  24.931  0.00  0.00    +0.000 A 
ATOM     34  C   UNL     1      -1.211  -1.092  24.674  0.00  0.00    +0.000 A 
ATOM     35  C   UNL     1      -1.983  -0.940  24.430  0.00  0.00    +0.001 A 
ATOM     36  C   UNL     1      -2.547  -1.543  24.442  0.00  0.00    +0.015 A 
ENDBRANCH  26  27
ENDBRANCH  23  24
ENDBRANCH  19  23
TORSDOF 6
ENDMDL
MODEL 4
REMARK VINA RESULT:     -12.2      1.606      3.159
REMARK  Name = 
REMARK  6 active torsions:
REMARK  status: ('A' for Active; 'I' for Inactive)
REMARK    1  A    between atoms: N_2  and  C_4
REMARK    2  A    between atoms: C_7  and  C_10
REMARK    3  A    between atoms: N_14  and  C_15
REMARK    4  A    between atoms: C_19  and  O_23
REMARK    5  A    between atoms: O_23  and  C_24
REMARK    6  A    between atoms: N_26  and  C_27
REMARK                            x       y       z     vdW  Elec       q    Type
REMARK                         _______ _______ _______ _____ _____    ______ ____
ROOT
ATOM     15  C   UNL     1      -2.362   3.640  25.469  0.00  0.00    +0.167 C 
ATOM     16  C   UNL     1      -2.309   3.155  26.133  0.00  0.00    +0.169 C 
ATOM     17  O   UNL     1      -2.918   2.599  26.092  0.00  0.00    -0.348 OA
ATOM     18  C   UNL     1      -3.346   2.743  25.402  0.00  0.00    +0.187 C 
ATOM     19  C   UNL     1      -3.988   2.488  24.950  0.00  0.00    +0.229 C 
ATOM     20  C   UNL     1      -4.041   2.975  24.285  0.00  0.00    +0.188 C 
ATOM     21  O   UNL     1      -3.432   3.529  24.327  0.00  0.00    -0.348 OA
ATOM     22  C   UNL     1      -3.002   3.386  25.017  0.00  0.00    +0.171 C 
ENDROOT
BRANCH  15  14
ATOM     10  C   UNL     1      -1.097   4.209  24.979  0.00  0.00    +0.184 A 
ATOM     11  N   UNL     1      -0.799   4.973  24.885  0.00  0.00    -0.108 NA
ATOM     12  N   UNL     1      -1.376   5.506  25.137  0.00  0.00    -0.023 NA
ATOM     13  N   UNL     1      -2.032   5.071  25.386  0.00  0.00    -0.043 NA
ATOM     14  N   UNL     1      -1.860   4.271  25.289  0.00  0.00    -0.210 N 
BRANCH  10   7
ATOM      4  C   UNL     1       0.086   2.107  24.428  0.00  0.00    +0.048 A 
ATOM      5  C   UNL     1      -0.303   2.528  23.835  0.00  0.00    +0.015 A 
ATOM      6  C   UNL     1      -0.697   3.229  24.019  0.00  0.00    +0.004 A 
ATOM      7  C   UNL     1      -0.703   3.508  24.795  0.00  0.00    +0.037 A 
ATOM      8  C   UNL     1      -0.314   3.086  25.388  0.00  0.00    +0.004 A 
ATOM      9  C   UNL     1       0.080   2.385  25.205  0.00  0.00    +0.015 A 
BRANCH   4   2
ATOM      1  C   UNL     1       0.116   0.678  24.385  0.00  0.00    +0.112 C 
ATOM      2  N   UNL     1       0.480   1.406  24.244  0.00  0.00    -0.304 N 
ATOM      3  C   UNL     1       1.238   1.431  23.920  0.00  0.00    +0.112 C 
ENDBRANCH   4   2
ENDBRANCH  10   7
ENDBRANCH  15  14
BRANCH  19  23
ATOM     23  O   UNL     1      -4.490   1.858  25.131  0.00  0.00    -0.432 OA
BRANCH  23  24
ATOM     24  C   UNL     1      -4.409   1.140  24.733  0.00  0.00    +0.425 C 
ATOM     25  O   UNL     1      -4.417   1.122  23.908  0.00  0.00    -0.224 OA
ATOM     26  N   UNL     1      -4.321   0.440  25.160  0.00  0.00    -0.142 NA
BRANCH  26  27
ATOM     27  C   UNL     1      -4.241  -0.279  24.762  0.00  0.00    +0.077 A 
ATOM     28  C   UNL     1      -4.552  -0.367  24.004  0.00  0.00    +0.017 A 
ATOM     29  C   UNL     1      -4.471  -1.086  23.605  0.00  0.00    +0.001 A 
ATOM     30  C   UNL     1      -4.080  -1.715  23.966  0.00  0.00    +0.000 A 
ATOM     31  C   UNL     1      -3.769  -1.627  24.725  0.00  0.00    +0.001 A 
ATOM     32  C   UNL     1      -3.377  -2.257  25.087  0.00  0.00    +0.000 A 
ATOM     33  C   UNL     1      -3.066  -2.169  25.845  0.00  0.00    +0.000 A 
ATOM     34  C   UNL     1      -3.147  -1.450  26.243  0.00  0.00    +0.000 A 
ATOM     35  C   UNL     1      -3.538  -0.820  25.882  0.00  0.00    +0.001 A 
ATOM     36  C   UNL     1      -3.849  -0.908  25.123  0.00  0.00    +0.015 A 
ENDBRANCH  26  27
ENDBRANCH  23  24
ENDBRANCH  19  23
TORSDOF 6
ENDMDL
MODEL 5
REMARK VINA RESULT:     -11.8      1.417      4.521
REMARK  Name = 
REMARK  6 active torsions:
REMARK  status: ('A' for Active; 'I' for Inactive)
REMARK    1  A    between atoms: N_2  and  C_4
REMARK    2  A    between atoms: C_7  and  C_10
REMARK    3  A    between atoms: N_14  and  C_15
REMARK    4  A    between atoms: C_19  and  O_23
REMARK    5  A    between atoms: O_23  and  C_24
REMARK    6  A    between atoms: N_26  and  C_27
REMARK                            x       y       z     vdW  Elec       q    Type
REMARK                         _______ _______ _______ _____ _____    ______ ____
ROOT
ATOM     15  C   UNL     1      -0.486   1.022  24.677  0.00  0.00    +0.167 C 
ATOM     16  C   UNL     1      -0.533   0.954  25.498  0.00  0.00    +0.169 C 
ATOM     17  O   UNL     1      -0.971   1.592  25.783  0.00  0.00    -0.348 OA
ATOM     18  C   UNL     1      -1.194   2.055  25.138  0.00  0.00    +0.187 C 
ATOM     19  C   UNL     1      -1.604   2.736  24.915  0.00  0.00    +0.229 C 
ATOM     20  C   UNL     1      -1.557   2.805  24.094  0.00  0.00    +0.188 C 
ATOM     21  O   UNL     1      -1.119   2.167  23.810  0.00  0.00    -0.348 OA
ATOM     22  C   UNL     1      -0.895   1.703  24.455  0.00  0.00    +0.171 C 
ENDROOT
BRANCH  15  14
ATOM     10  C   UNL     1      -0.322  -0.277  24.010  0.00  0.00    +0.184 A 
ATOM     11  N   UNL     1       0.220  -0.593  23.473  0.00  0.00    -0.108 NA
ATOM     12  N   UNL     1       0.778  -0.011  23.301  0.00  0.00    -0.023 NA
ATOM     13  N   UNL     1       0.581   0.665  23.731  0.00  0.00    -0.043 NA
ATOM     14  N   UNL     1      -0.098   0.501  24.169  0.00  0.00    -0.210 N 
BRANCH  10   7
ATOM      4  C   UNL     1      -2.274  -1.456  24.972  0.00  0.00    +0.048 A 
ATOM      5  C   UNL     1      -2.347  -1.053  24.256  0.00  0.00    +0.015 A 
ATOM      6  C   UNL     1      -1.696  -0.660  23.935  0.00  0.00    +0.004 A 
ATOM      7  C   UNL     1      -0.972  -0.670  24.330  0.00  0.00    +0.037 A 
ATOM      8  C   UNL     1      -0.899  -1.073  25.047  0.00  0.00    +0.004 A 
ATOM      9  C   UNL     1      -1.550  -1.466  25.367  0.00  0.00    +0.015 A 
BRANCH   4   2
ATOM      1  C   UNL     1      -3.225  -1.618  26.025  0.00  0.00    +0.112 C 
ATOM      2  N   UNL     1      -2.924  -1.849  25.292  0.00  0.00    -0.304 N 
ATOM      3  C   UNL     1      -3.274  -2.472  24.880  0.00  0.00    +0.112 C 
ENDBRANCH   4   2
ENDBRANCH  10   7
ENDBRANCH  15  14
BRANCH  19  23
ATOM     23  O   UNL     1      -1.992   3.257  25.425  0.00  0.00    -0.432 OA
BRANCH  23  24
ATOM     24  C   UNL     1      -2.784   3.444  25.298  0.00  0.00    +0.425 C 
ATOM     25  O   UNL     1      -2.986   4.076  24.807  0.00  0.00    -0.224 OA
ATOM     26  N   UNL     1      -3.377   2.999  25.661  0.00  0.00    -0.142 NA
BRANCH  26  27
ATOM     27  C   UNL     1      -4.170   3.186  25.534  0.00  0.00    +0.077 A 
ATOM     28  C   UNL     1      -4.416   3.973  25.553  0.00  0.00    +0.017 A 
ATOM     29  C   UNL     1      -5.211   4.160  25.425  0.00  0.00    +0.001 A 
ATOM     30  C   UNL     1      -5.757   3.560  25.279  0.00  0.00    +0.000 A 
ATOM     31  C   UNL     1      -5.511   2.774  25.260  0.00  0.00    +0.001 A 
ATOM     32  C   UNL     1      -6.058   2.173  25.114  0.00  0.00    +0.000 A 
ATOM     33  C   UNL     1      -5.811   1.387  25.095  0.00  0.00    +0.000 A 
ATOM     34  C   UNL     1      -5.017   1.199  25.223  0.00  0.00    +0.000 A 
ATOM     35  C   UNL     1      -4.471   1.799  25.369  0.00  0.00    +0.001 A 
ATOM     36  C   UNL     1      -4.717   2.587  25.388  0.00  0.00    +0.015 A 
ENDBRANCH  26  27
ENDBRANCH  23  24
ENDBRANCH  19  23
TORSDOF 6
ENDMDL
MODEL 6
REMARK VINA RESULT:     -11.6      1.774      5.235
REMARK  Name = 
REMARK  6 active torsions:
REMARK  status: ('A' for Active; 'I' for Inactive)
REMARK    1  A    between atoms: N_2  and  C_4
REMARK    2  A    between atoms: C_7  and  C_10
REMARK    3  A    between atoms: N_14  and  C_15
REMARK    4  A    between atoms: C_19  and  O_23
REMARK    5  A    between atoms: O_23  and  C_24
REMARK    6  A    between atoms: N_26  and  C_27
REMARK                            x       y       z     vdW  Elec       q    Type
REMARK                         _______ _______ _______ _____ _____    ______ ____
ROOT
ATOM     15  C   UNL     1      -2.280  -1.067  24.514  0.00  0.00    +0.167 C 
ATOM     16  C   UNL     1      -2.364  -0.707  23.778  0.00  0.00    +0.169 C 
ATOM     17  O   UNL     1      -3.106  -0.347  23.752  0.00  0.00    -0.348 OA
ATOM     18  C   UNL     1      -3.480  -0.485  24.474  0.00  0.00    +0.187 C 
ATOM     19  C   UNL     1      -4.171  -0.349  24.905  0.00  0.00    +0.229 C 
ATOM     20  C   UNL     1      -4.087  -0.710  25.643  0.00  0.00    +0.188 C 
ATOM     21  O   UNL     1      -3.345  -1.069  25.667  0.00  0.00    -0.348 OA
ATOM     22  C   UNL     1      -2.970  -0.931  24.945  0.00  0.00    +0.171 C 
ENDROOT
BRANCH  15  14
ATOM     10  C   UNL     1      -0.896  -1.167  24.999  0.00  0.00    +0.184 A 
ATOM     11  N   UNL     1      -0.398  -1.787  25.219  0.00  0.00    -0.108 NA
ATOM     12  N   UNL     1      -0.815  -2.493  25.131  0.00  0.00    -0.023 NA
ATOM     13  N   UNL     1      -1.571  -2.309  24.856  0.00  0.00    -0.043 NA
ATOM     14  N   UNL     1      -1.621  -1.490  24.774  0.00  0.00    -0.210 N 
BRANCH  10   7
ATOM      4  C   UNL     1      -0.316   1.239  25.010  0.00  0.00    +0.048 A 
ATOM      5  C   UNL     1      -0.624   0.886  25.689  0.00  0.00    +0.015 A 
ATOM      6  C   UNL     1      -0.818   0.085  25.685  0.00  0.00    +0.004 A 
ATOM      7  C   UNL     1      -0.702  -0.365  25.003  0.00  0.00    +0.037 A 
ATOM      8  C   UNL     1      -0.393  -0.012  24.324  0.00  0.00    +0.004 A 
ATOM      9  C   UNL     1      -0.200   0.790  24.328  0.00  0.00    +0.015 A 
BRANCH   4   2
ATOM      1  C   UNL     1       0.049   2.428  24.305  0.00  0.00    +0.112 C 
ATOM      2  N   UNL     1      -0.122   2.041  25.014  0.00  0.00    -0.304 N 
ATOM      3  C   UNL     1      -0.100   2.457  25.726  0.00  0.00    +0.112 C 
ENDBRANCH   4   2
ENDBRANCH  10   7
ENDBRANCH  15  14
BRANCH  19  23
ATOM     23  O   UNL     1      -4.830   0.075  24.644  0.00  0.00    -0.432 OA
BRANCH  23  24
ATOM     24  C   UNL     1      -5.018   0.799  24.990  0.00  0.00    +0.425 C 
ATOM     25  O   UNL     1      -5.348   0.822  25.746  0.00  0.00    -0.224 OA
ATOM     26  N   UNL     1      -4.876   1.501  24.580  0.00  0.00    -0.142 NA
BRANCH  26  27
ATOM     27  C   UNL     1      -5.064   2.226  24.926  0.00  0.00    +0.077 A 
ATOM     28  C   UNL     1      -5.755   2.304  25.370  0.00  0.00    +0.017 A 
ATOM     29  C   UNL     1      -5.943   3.030  25.716  0.00  0.00    +0.001 A 
ATOM     30  C   UNL     1      -5.441   3.676  25.618  0.00  0.00    +0.000 A 
ATOM     31  C   UNL     1      -4.750   3.597  25.175  0.00  0.00    +0.001 A 
ATOM     32  C   UNL     1      -4.246   4.244  25.077  0.00  0.00    +0.000 A 
ATOM     33  C   UNL     1      -3.555   4.166  24.634  0.00  0.00    +0.000 A 
ATOM     34  C   UNL     1      -3.367   3.440  24.288  0.00  0.00    +0.000 A 
ATOM     35  C   UNL     1      -3.870   2.794  24.385  0.00  0.00    +0.001 A 
ATOM     36  C   UNL     1      -4.561   2.872  24.829  0.00  0.00    +0.015 A 
ENDBRANCH  26  27
ENDBRANCH  23  24
ENDBRANCH  19  23
TORSDOF 6
ENDMDL
MODEL 7
REMARK VINA RESULT:     -11.3      1.965      5.770
REMARK  Name = 
REMARK  6 active torsions:
REMARK  status: ('A' for Active; 'I' for Inactive)
REMARK    1  A    between atoms: N_2  and  C_4
REMARK    2  A    between atoms: C_7  and  C_10
REMARK    3  A    between atoms: N_14  and  C_15
REMARK    4  A    between atoms: C_19  and  O_23
REMARK    5  A    between atoms: O_23  and  C_24
REMARK    6  A    between atoms: N_26  and  C_27
REMARK                            x       y       z     vdW  Elec       q    Type
REMARK                         _______ _______ _______ _____ _____    ______ ____
ROOT
ATOM     15  C   UNL     1      -3.650  -1.007  24.345  0.00  0.00    +0.167 C 
ATOM     16  C   UNL     1      -3.539  -0.681  23.595  0.00  0.00    +0.169 C 
ATOM     17  O   UNL     1      -3.836   0.089  23.605  0.00  0.00    -0.348 OA
ATOM     18  C   UNL     1      -4.131   0.238  24.360  0.00  0.00    +0.187 C 
ATOM     19  C   UNL     1      -4.497   0.806  24.834  0.00  0.00    +0.229 C 
ATOM     20  C   UNL     1      -4.608   0.481  25.584  0.00  0.00    +0.188 C 
ATOM     21  O   UNL     1      -4.311  -0.289  25.574  0.00  0.00    -0.348 OA
ATOM     22  C   UNL     1      -4.016  -0.439  24.817  0.00  0.00    +0.171 C 
ENDROOT
BRANCH  15  14
ATOM     10  C   UNL     1      -2.662  -2.042  24.680  0.00  0.00    +0.184 A 
ATOM     11  N   UNL     1      -2.701  -2.831  24.917  0.00  0.00    -0.108 NA
ATOM     12  N   UNL     1      -3.496  -3.045  24.963  0.00  0.00    -0.023 NA
ATOM     13  N   UNL     1      -3.949  -2.387  24.754  0.00  0.00    -0.043 NA
ATOM     14  N   UNL     1      -3.434  -1.768  24.579  0.00  0.00    -0.210 N 
BRANCH  10   7
ATOM      4  C   UNL     1      -0.593  -0.728  24.332  0.00  0.00    +0.048 A 
ATOM      5  C   UNL     1      -0.937  -1.131  23.700  0.00  0.00    +0.015 A 
ATOM      6  C   UNL     1      -1.626  -1.569  23.816  0.00  0.00    +0.004 A 
ATOM      7  C   UNL     1      -1.972  -1.604  24.564  0.00  0.00    +0.037 A 
ATOM      8  C   UNL     1      -1.628  -1.200  25.196  0.00  0.00    +0.004 A 
ATOM      9  C   UNL     1      -0.939  -0.763  25.080  0.00  0.00    +0.015 A 
BRANCH   4   2
ATOM      1  C   UNL     1       0.161   0.469  24.533  0.00  0.00    +0.112 C 
ATOM      2  N   UNL     1       0.096  -0.291  24.216  0.00  0.00    -0.304 N 
ATOM      3  C   UNL     1       0.721  -0.611  23.782  0.00  0.00    +0.112 C 
ENDBRANCH   4   2
ENDBRANCH  10   7
ENDBRANCH  15  14
BRANCH  19  23
ATOM     23  O   UNL     1      -4.713   1.568  24.598  0.00  0.00    -0.432 OA
BRANCH  23  24
ATOM     24  C   UNL     1      -4.455   2.221  25.029  0.00  0.00    +0.425 C 
ATOM     25  O   UNL     1      -4.856   2.448  25.714  0.00  0.00    -0.224 OA
ATOM     26  N   UNL     1      -3.798   2.649  24.775  0.00  0.00    -0.142 NA
BRANCH  26  27
ATOM     27  C   UNL     1      -3.540   3.304  25.206  0.00  0.00    +0.077 A 
ATOM     28  C   UNL     1      -4.061   3.699  25.707  0.00  0.00    +0.017 A 
ATOM     29  C   UNL     1      -3.803   4.355  26.138  0.00  0.00    +0.001 A 
ATOM     30  C   UNL     1      -3.023   4.613  26.068  0.00  0.00    +0.000 A 
ATOM     31  C   UNL     1      -2.501   4.217  25.567  0.00  0.00    +0.001 A 
ATOM     32  C   UNL     1      -1.721   4.476  25.496  0.00  0.00    +0.000 A 
ATOM     33  C   UNL     1      -1.199   4.080  24.995  0.00  0.00    +0.000 A 
ATOM     34  C   UNL     1      -1.457   3.425  24.564  0.00  0.00    +0.000 A 
ATOM     35  C   UNL     1      -2.237   3.167  24.634  0.00  0.00    +0.001 A 
ATOM     36  C   UNL     1      -2.760   3.562  25.136  0.00  0.00    +0.015 A 
ENDBRANCH  26  27
ENDBRANCH  23  24
ENDBRANCH  19  23
TORSDOF 6
ENDMDL
MODEL 8
REMARK VINA RESULT:     -11.1      1.715      4.072
REMARK  Name = 
REMARK  6 active torsions:
REMARK  status: ('A' for Active; 'I' for Inactive)
REMARK    1  A    between atoms: N_2  and  C_4
REMARK    2  A    between atoms: C_7  and  C_10
REMARK    3  A    between atoms: N_14  and  C_15
REMARK    4  A    between atoms: C_19  and  O_23
REMARK    5  A    between atoms: O_23  and  C_24
REMARK    6  A    between atoms: N_26  and  C_27
REMARK                            x       y       z     vdW  Elec       q    Type
REMARK                         _______ _______ _______ _____ _____    ______ ____
ROOT
ATOM     15  C   UNL     1      -1.005   1.092  23.776  0.00  0.00    +0.167 C 
ATOM     16  C   UNL     1      -1.435   1.491  23.196  0.00  0.00    +0.169 C 
ATOM     17  O   UNL     1      -2.223   1.252  23.253  0.00  0.00    -0.348 OA
ATOM     18  C   UNL     1      -2.279   0.706  23.867  0.00  0.00    +0.187 C 
ATOM     19  C   UNL     1      -2.801   0.220  24.283  0.00  0.00    +0.229 C 
ATOM     20  C   UNL     1      -2.371  -0.180  24.863  0.00  0.00    +0.188 C 
ATOM     21  O   UNL     1      -1.584   0.059  24.806  0.00  0.00    -0.348 OA
ATOM     22  C   UNL     1      -1.527   0.607  24.190  0.00  0.00    +0.171 C 
ENDROOT
BRANCH  15  14
ATOM     10  C   UNL     1       0.180   1.818  24.254  0.00  0.00    +0.184 A 
ATOM     11  N   UNL     1       0.989   1.656  24.289  0.00  0.00    -0.108 NA
ATOM     12  N   UNL     1       1.113   0.904  23.972  0.00  0.00    -0.023 NA
ATOM     13  N   UNL     1       0.380   0.602  23.741  0.00  0.00    -0.043 NA
ATOM     14  N   UNL     1      -0.195   1.165  23.915  0.00  0.00    -0.210 N 
BRANCH  10   7
ATOM      4  C   UNL     1      -0.923   3.893  25.029  0.00  0.00    +0.048 A 
ATOM      5  C   UNL     1      -0.751   3.292  25.567  0.00  0.00    +0.015 A 
ATOM      6  C   UNL     1      -0.383   2.600  25.309  0.00  0.00    +0.004 A 
ATOM      7  C   UNL     1      -0.187   2.509  24.513  0.00  0.00    +0.037 A 
ATOM      8  C   UNL     1      -0.360   3.111  23.974  0.00  0.00    +0.004 A 
ATOM      9  C   UNL     1      -0.728   3.802  24.233  0.00  0.00    +0.015 A 
BRANCH   4   2
ATOM      1  C   UNL     1      -1.081   5.311  24.958  0.00  0.00    +0.112 C 
ATOM      2  N   UNL     1      -1.291   4.584  25.288  0.00  0.00    -0.304 N 
ATOM      3  C   UNL     1      -1.869   4.550  25.875  0.00  0.00    +0.112 C 
ENDBRANCH   4   2
ENDBRANCH  10   7
ENDBRANCH  15  14
BRANCH  19  23
ATOM     23  O   UNL     1      -3.612   0.146  24.142  0.00  0.00    -0.432 OA
BRANCH  23  24
ATOM     24  C   UNL     1      -4.153   0.467  24.675  0.00  0.00    +0.425 C 
ATOM     25  O   UNL     1      -4.290   0.094  25.399  0.00  0.00    -0.224 OA
ATOM     26  N   UNL     1      -4.557   1.160  24.485  0.00  0.00    -0.142 NA
BRANCH  26  27
ATOM     27  C   UNL     1      -5.099   1.481  25.018  0.00  0.00    +0.077 A 
ATOM     28  C   UNL     1      -5.588   0.985  25.458  0.00  0.00    +0.017 A 
ATOM     29  C   UNL     1      -6.130   1.306  25.992  0.00  0.00    +0.001 A 
ATOM     30  C   UNL     1      -6.183   2.124  26.084  0.00  0.00    +0.000 A 
ATOM     31  C   UNL     1      -5.694   2.620  25.644  0.00  0.00    +0.001 A 
ATOM     32  C   UNL     1      -5.746   3.439  25.736  0.00  0.00    +0.000 A 
ATOM     33  C   UNL     1      -5.257   3.936  25.296  0.00  0.00    +0.000 A 
ATOM     34  C   UNL     1      -4.714   3.614  24.762  0.00  0.00    +0.000 A 
ATOM     35  C   UNL     1      -4.662   2.797  24.670  0.00  0.00    +0.001 A 
ATOM     36  C   UNL     1      -5.151   2.299  25.110  0.00  0.00    +0.015 A 
ENDBRANCH  26  27
ENDBRANCH  23  24
ENDBRANCH  19  23
TORSDOF 6
ENDMDL
