MODEL 1
REMARK VINA RESULT:     -13.5      0.000      0.000
REMARK  Name = 
REMARK  6 active torsions:
REMARK  status: ('A' for Active; 'I' for Inactive)
REMARK    1  A    between atoms: C_2  and  C_3
REMARK    2  A    between atoms: C_3  and  O_4
REMARK    3  A    between atoms: O_4  and  C_5
REMARK    4  A    between atoms: N_11  and  C_12
REMARK    5  A    between atoms: C_22  and  C_24
REMARK    6  A    between atoms: C_27  and  C_30
REMARK                            x       y       z     vdW  Elec       q    Type
REMARK                         _______ _______ _______ _____ _____    ______ ____
ROOT
ATOM     12  C   UNL     1      -3.402   2.782  23.666  0.00  0.00    +0.129 A 
ATOM     13  C   UNL     1      -3.627   3.564  23.804  0.00  0.00    +0.023 A 
ATOM     14  C   UNL     1      -4.221   3.732  24.350  0.00  0.00    +0.014 A 
ATOM     15  C   UNL     1      -4.590   3.119  24.760  0.00  0.00    +0.041 A 
ATOM     16  C   UNL     1      -5.241   2.973  25.392  0.00  0.00    +0.058 C 
ATOM     17  C   UNL     1      -5.703   3.315  25.796  0.00  0.00    +0.011 C 
ATOM     18  C   UNL     1      -5.478   2.544  25.658  0.00  0.00    +0.043 C 
ATOM     19  C   UNL     1      -5.349   1.565  25.632  0.00  0.00    +0.096 C 
ATOM     20  N   UNL     1      -4.742   1.519  25.060  0.00  0.00    -0.276 N 
ATOM     21  C   UNL     1      -5.129   2.025  25.378  0.00  0.00    +0.099 C 
ATOM     22  C   UNL     1      -4.179   1.179  24.560  0.00  0.00    +0.249 C 
ATOM     23  O   UNL     1      -3.716   1.660  24.074  0.00  0.00    -0.270 OA
ATOM     36  C   UNL     1      -4.796   2.686  24.998  0.00  0.00    +0.110 C 
ATOM     37  N   UNL     1      -4.365   2.337  24.623  0.00  0.00    -0.298 N 
ATOM     38  C   UNL     1      -3.771   2.168  24.076  0.00  0.00    +0.276 A 
ATOM     39  O   UNL     1      -3.385   1.504  23.775  0.00  0.00    -0.266 OA
ENDROOT
BRANCH  22  24
ATOM     24  C   UNL     1      -4.080   0.361  24.546  0.00  0.00    +0.054 A 
ATOM     25  C   UNL     1      -4.474  -0.093  23.982  0.00  0.00    +0.005 A 
ATOM     26  C   UNL     1      -4.375  -0.913  23.968  0.00  0.00    +0.000 A 
ATOM     27  C   UNL     1      -3.882  -1.277  24.519  0.00  0.00    +0.000 A 
ATOM     28  C   UNL     1      -3.488  -0.824  25.084  0.00  0.00    +0.000 A 
ATOM     29  C   UNL     1      -3.587  -0.004  25.098  0.00  0.00    +0.005 A 
BRANCH  27  30
ATOM     30  C   UNL     1      -3.783  -2.096  24.506  0.00  0.00    +0.000 A 
ATOM     31  C   UNL     1      -3.332  -2.468  25.088  0.00  0.00    +0.000 A 
ATOM     32  C   UNL     1      -3.233  -3.286  25.074  0.00  0.00    +0.000 A 
ATOM     33  C   UNL     1      -3.585  -3.734  24.477  0.00  0.00    +0.000 A 
ATOM     34  C   UNL     1      -4.036  -3.363  23.895  0.00  0.00    +0.000 A 
ATOM     35  C   UNL     1      -4.135  -2.544  23.909  0.00  0.00    +0.000 A 
ENDBRANCH  27  30
ENDBRANCH  22  24
BRANCH  12  11
ATOM      1  O   UNL     1      -1.426   2.607  22.755  0.00  0.00    -0.269 OA
ATOM      2  C   UNL     1      -2.020   2.775  23.303  0.00  0.00    +0.290 C 
ATOM     11  N   UNL     1      -2.808   2.614  23.120  0.00  0.00    -0.171 NA
BRANCH   2   3
ATOM      3  C   UNL     1      -1.826   3.104  24.035  0.00  0.00    +0.291 C 
BRANCH   3   4
ATOM      4  O   UNL     1      -1.035   3.241  24.228  0.00  0.00    -0.466 OA
BRANCH   4   5
ATOM      5  C   UNL     1      -0.749   3.022  24.970  0.00  0.00    +0.139 A 
ATOM      6  C   UNL     1      -0.223   2.391  25.039  0.00  0.00    +0.037 A 
ATOM      7  C   UNL     1       0.064   2.172  25.781  0.00  0.00    +0.003 A 
ATOM      8  C   UNL     1      -0.176   2.584  26.454  0.00  0.00    +0.000 A 
ATOM      9  C   UNL     1      -0.702   3.216  26.385  0.00  0.00    +0.003 A 
ATOM     10  C   UNL     1      -0.988   3.435  25.643  0.00  0.00    +0.037 A 
ENDBRANCH   4   5
ENDBRANCH   3   4
ENDBRANCH   2   3
ENDBRANCH  12  11
TORSDOF 6
ENDMDL
MODEL 2
REMARK VINA RESULT:     -13.5      2.392      6.053
REMARK  Name = 
REMARK  6 active torsions:
REMARK  status: ('A' for Active; 'I' for Inactive)
REMARK    1  A    between atoms: C_2  and  C_3
REMARK    2  A    between atoms: C_3  and  O_4
REMARK    3  A    between atoms: O_4  and  C_5
REMARK    4  A    between atoms: N_11  and  C_12
REMARK    5  A    between atoms: C_22  and  C_24
REMARK    6  A    between atoms: C_27  and  C_30
REMARK                            x       y       z     vdW  Elec       q    Type
REMARK                         _______ _______ _______ _____ _____    ______ ____
ROOT
ATOM     12  C   UNL     1      -1.012  -0.687  25.514  0.00  0.00    +0.129 A 
ATOM     13  C   UNL     1      -0.728  -1.420  25.263  0.00  0.00    +0.023 A 
ATOM     14  C   UNL     1      -0.250  -1.470  24.592  0.00  0.00    +0.014 A 
ATOM     15  C   UNL     1      -0.057  -0.787  24.172  0.00  0.00    +0.041 A 
ATOM     16  C   UNL     1       0.419  -0.513  23.435  0.00  0.00    +0.058 C 
ATOM     17  C   UNL     1       0.821  -0.762  22.916  0.00  0.00    +0.011 C 
ATOM     18  C   UNL     1       0.538  -0.040  23.166  0.00  0.00    +0.043 C 
ATOM     19  C   UNL     1       0.299   0.909  23.307  0.00  0.00    +0.096 C 
ATOM     20  N   UNL     1      -0.171   0.834  23.993  0.00  0.00    -0.276 N 
ATOM     21  C   UNL     1       0.197   0.407  23.558  0.00  0.00    +0.099 C 
ATOM     22  C   UNL     1      -0.649   1.060  24.627  0.00  0.00    +0.249 C 
ATOM     23  O   UNL     1      -0.934   0.491  25.153  0.00  0.00    -0.270 OA
ATOM     36  C   UNL     1       0.038  -0.316  23.938  0.00  0.00    +0.110 C 
ATOM     37  N   UNL     1      -0.341  -0.054  24.423  0.00  0.00    -0.298 N 
ATOM     38  C   UNL     1      -0.819  -0.004  25.093  0.00  0.00    +0.276 A 
ATOM     39  O   UNL     1      -1.209   0.580  25.526  0.00  0.00    -0.266 OA
ENDROOT
BRANCH  22  24
ATOM     24  C   UNL     1      -0.842   1.854  24.735  0.00  0.00    +0.054 A 
ATOM     25  C   UNL     1      -0.378   2.330  25.222  0.00  0.00    +0.005 A 
ATOM     26  C   UNL     1      -0.571   3.125  25.330  0.00  0.00    +0.000 A 
ATOM     27  C   UNL     1      -1.230   3.444  24.950  0.00  0.00    +0.000 A 
ATOM     28  C   UNL     1      -1.695   2.969  24.462  0.00  0.00    +0.000 A 
ATOM     29  C   UNL     1      -1.502   2.174  24.354  0.00  0.00    +0.005 A 
BRANCH  27  30
ATOM     30  C   UNL     1      -1.424   4.239  25.058  0.00  0.00    +0.000 A 
ATOM     31  C   UNL     1      -0.905   4.828  24.805  0.00  0.00    +0.000 A 
ATOM     32  C   UNL     1      -1.098   5.623  24.912  0.00  0.00    +0.000 A 
ATOM     33  C   UNL     1      -1.811   5.828  25.274  0.00  0.00    +0.000 A 
ATOM     34  C   UNL     1      -2.330   5.239  25.527  0.00  0.00    +0.000 A 
ATOM     35  C   UNL     1      -2.136   4.444  25.419  0.00  0.00    +0.000 A 
ENDBRANCH  27  30
ENDBRANCH  22  24
BRANCH  12  11
ATOM      1  O   UNL     1      -2.694  -0.978  26.875  0.00  0.00    -0.269 OA
ATOM      2  C   UNL     1      -2.216  -1.028  26.203  0.00  0.00    +0.290 C 
ATOM     11  N   UNL     1      -1.490  -0.638  26.184  0.00  0.00    -0.171 NA
BRANCH   2   3
ATOM      3  C   UNL     1      -2.466  -1.467  25.550  0.00  0.00    +0.291 C 
BRANCH   3   4
ATOM      4  O   UNL     1      -3.198  -1.849  25.566  0.00  0.00    -0.466 OA
BRANCH   4   5
ATOM      5  C   UNL     1      -3.579  -2.038  24.859  0.00  0.00    +0.139 A 
ATOM      6  C   UNL     1      -3.980  -1.453  24.438  0.00  0.00    +0.037 A 
ATOM      7  C   UNL     1      -4.361  -1.642  23.731  0.00  0.00    +0.003 A 
ATOM      8  C   UNL     1      -4.342  -2.415  23.447  0.00  0.00    +0.000 A 
ATOM      9  C   UNL     1      -3.942  -3.000  23.868  0.00  0.00    +0.003 A 
ATOM     10  C   UNL     1      -3.560  -2.812  24.575  0.00  0.00    +0.037 A 
ENDBRANCH   4   5
ENDBRANCH   3   4
ENDBRANCH   2   3
ENDBRANCH  12  11
TORSDOF 6
ENDMDL
MODEL 3
REMARK VINA RESULT:     -11.8      2.400      4.320
REMARK  Name = 
REMARK  6 active torsions:
REMARK  status: ('A' for Active; 'I' for Inactive)
REMARK    1  A    between atoms: C_2  and  C_3
REMARK    2  A    between atoms: C_3  and  O_4
REMARK    3  A    between atoms: O_4  and  C_5
REMARK    4  A    between atoms: N_11  and  C_12
REMARK    5  A    between atoms: C_22  and  C_24
REMARK    6  A    between atoms: C_27  and  C_30
REMARK                            x       y       z     vdW  Elec       q    Type
REMARK                         _______ _______ _______ _____ _____    ______ ____
ROOT
ATOM     12  C   UNL     1      -3.131   0.902  23.798  0.00  0.00    +0.129 A 
ATOM     13  C   UNL     1      -3.826   0.729  24.210  0.00  0.00    +0.023 A 
ATOM     14  C   UNL     1      -3.809   0.203  24.845  0.00  0.00    +0.014 A 
ATOM     15  C   UNL     1      -3.099  -0.152  25.068  0.00  0.00    +0.041 A 
ATOM     16  C   UNL     1      -2.758  -0.742  25.685  0.00  0.00    +0.058 C 
ATOM     17  C   UNL     1      -2.951  -1.143  26.228  0.00  0.00    +0.011 C 
ATOM     18  C   UNL     1      -2.268  -0.970  25.819  0.00  0.00    +0.043 C 
ATOM     19  C   UNL     1      -1.352  -0.892  25.457  0.00  0.00    +0.096 C 
ATOM     20  N   UNL     1      -1.492  -0.349  24.838  0.00  0.00    -0.276 N 
ATOM     21  C   UNL     1      -1.868  -0.677  25.346  0.00  0.00    +0.099 C 
ATOM     22  C   UNL     1      -1.332   0.143  24.195  0.00  0.00    +0.249 C 
ATOM     23  O   UNL     1      -1.941   0.577  23.846  0.00  0.00    -0.270 OA
ATOM     36  C   UNL     1      -2.614  -0.353  25.171  0.00  0.00    +0.110 C 
ATOM     37  N   UNL     1      -2.405   0.020  24.656  0.00  0.00    -0.298 N 
ATOM     38  C   UNL     1      -2.421   0.547  24.022  0.00  0.00    +0.276 A 
ATOM     39  O   UNL     1      -1.891   0.868  23.477  0.00  0.00    -0.266 OA
ENDROOT
BRANCH  22  24
ATOM     24  C   UNL     1      -0.564   0.200  23.901  0.00  0.00    +0.054 A 
ATOM     25  C   UNL     1      -0.259  -0.398  23.423  0.00  0.00    +0.005 A 
ATOM     26  C   UNL     1       0.511  -0.341  23.128  0.00  0.00    +0.000 A 
ATOM     27  C   UNL     1       0.974   0.317  23.313  0.00  0.00    +0.000 A 
ATOM     28  C   UNL     1       0.670   0.915  23.791  0.00  0.00    +0.000 A 
ATOM     29  C   UNL     1      -0.100   0.858  24.085  0.00  0.00    +0.005 A 
BRANCH  27  30
ATOM     30  C   UNL     1       1.743   0.374  23.019  0.00  0.00    +0.000 A 
ATOM     31  C   UNL     1       1.979  -0.097  22.384  0.00  0.00    +0.000 A 
ATOM     32  C   UNL     1       2.747  -0.039  22.090  0.00  0.00    +0.000 A 
ATOM     33  C   UNL     1       3.280   0.490  22.431  0.00  0.00    +0.000 A 
ATOM     34  C   UNL     1       3.045   0.961  23.066  0.00  0.00    +0.000 A 
ATOM     35  C   UNL     1       2.276   0.904  23.360  0.00  0.00    +0.000 A 
ENDBRANCH  27  30
ENDBRANCH  22  24
BRANCH  12  11
ATOM      1  O   UNL     1      -3.358   2.747  22.654  0.00  0.00    -0.269 OA
ATOM      2  C   UNL     1      -3.341   2.220  23.290  0.00  0.00    +0.290 C 
ATOM     11  N   UNL     1      -3.149   1.428  23.164  0.00  0.00    -0.171 NA
BRANCH   2   3
ATOM      3  C   UNL     1      -3.516   2.486  24.051  0.00  0.00    +0.291 C 
BRANCH   3   4
ATOM      4  O   UNL     1      -3.606   3.294  24.195  0.00  0.00    -0.466 OA
BRANCH   4   5
ATOM      5  C   UNL     1      -3.443   3.600  24.944  0.00  0.00    +0.139 A 
ATOM      6  C   UNL     1      -2.680   3.851  25.130  0.00  0.00    +0.037 A 
ATOM      7  C   UNL     1      -2.518   4.157  25.879  0.00  0.00    +0.003 A 
ATOM      8  C   UNL     1      -3.119   4.211  26.441  0.00  0.00    +0.000 A 
ATOM      9  C   UNL     1      -3.882   3.959  26.255  0.00  0.00    +0.003 A 
ATOM     10  C   UNL     1      -4.044   3.653  25.506  0.00  0.00    +0.037 A 
ENDBRANCH   4   5
ENDBRANCH   3   4
ENDBRANCH   2   3
ENDBRANCH  12  11
TORSDOF 6
ENDMDL
MODEL 4
REMARK VINA RESULT:     -11.4      1.183      3.118
REMARK  Name = 
REMARK  6 active torsions:
REMARK  status: ('A' for Active; 'I' for Inactive)
REMARK    1  A    between atoms: C_2  and  C_3
REMARK    2  A    between atoms: C_3  and  O_4
REMARK    3  A    between atoms: O_4  and  C_5
REMARK    4  A    between atoms: N_11  and  C_12
REMARK    5  A    between atoms: C_22  and  C_24
REMARK    6  A    between atoms: C_27  and  C_30
REMARK                            x       y       z     vdW  Elec       q    Type
REMARK                         _______ _______ _______ _____ _____    ______ ____
ROOT
ATOM     12  C   UNL     1      -1.848   2.736  23.843  0.00  0.00    +0.129 A 
ATOM     13  C   UNL     1      -1.420   3.413  24.043  0.00  0.00    +0.023 A 
ATOM     14  C   UNL     1      -0.904   3.399  24.686  0.00  0.00    +0.014 A 
ATOM     15  C   UNL     1      -0.814   2.708  25.129  0.00  0.00    +0.041 A 
ATOM     16  C   UNL     1      -0.355   2.379  25.853  0.00  0.00    +0.058 C 
ATOM     17  C   UNL     1       0.115   2.569  26.340  0.00  0.00    +0.011 C 
ATOM     18  C   UNL     1      -0.309   1.903  26.139  0.00  0.00    +0.043 C 
ATOM     19  C   UNL     1      -0.725   1.010  26.056  0.00  0.00    +0.096 C 
ATOM     20  N   UNL     1      -1.213   1.144  25.391  0.00  0.00    -0.276 N 
ATOM     21  C   UNL     1      -0.748   1.512  25.786  0.00  0.00    +0.099 C 
ATOM     22  C   UNL     1      -1.760   0.987  24.793  0.00  0.00    +0.249 C 
ATOM     23  O   UNL     1      -1.965   1.578  24.256  0.00  0.00    -0.270 OA
ATOM     36  C   UNL     1      -0.794   2.237  25.381  0.00  0.00    +0.110 C 
ATOM     37  N   UNL     1      -1.242   2.032  24.928  0.00  0.00    -0.298 N 
ATOM     38  C   UNL     1      -1.759   2.045  24.285  0.00  0.00    +0.276 A 
ATOM     39  O   UNL     1      -2.273   1.528  23.901  0.00  0.00    -0.266 OA
ENDROOT
BRANCH  22  24
ATOM     24  C   UNL     1      -2.101   0.238  24.734  0.00  0.00    +0.054 A 
ATOM     25  C   UNL     1      -1.709  -0.363  24.329  0.00  0.00    +0.005 A 
ATOM     26  C   UNL     1      -2.050  -1.112  24.269  0.00  0.00    +0.000 A 
ATOM     27  C   UNL     1      -2.785  -1.259  24.615  0.00  0.00    +0.000 A 
ATOM     28  C   UNL     1      -3.178  -0.658  25.020  0.00  0.00    +0.000 A 
ATOM     29  C   UNL     1      -2.836   0.091  25.080  0.00  0.00    +0.005 A 
BRANCH  27  30
ATOM     30  C   UNL     1      -3.126  -2.008  24.555  0.00  0.00    +0.000 A 
ATOM     31  C   UNL     1      -2.823  -2.636  24.994  0.00  0.00    +0.000 A 
ATOM     32  C   UNL     1      -3.164  -3.385  24.935  0.00  0.00    +0.000 A 
ATOM     33  C   UNL     1      -3.810  -3.505  24.435  0.00  0.00    +0.000 A 
ATOM     34  C   UNL     1      -4.113  -2.877  23.996  0.00  0.00    +0.000 A 
ATOM     35  C   UNL     1      -3.772  -2.127  24.056  0.00  0.00    +0.000 A 
ENDBRANCH  27  30
ENDBRANCH  22  24
BRANCH  12  11
ATOM      1  O   UNL     1      -3.619   3.126  22.627  0.00  0.00    -0.269 OA
ATOM      2  C   UNL     1      -3.102   3.112  23.272  0.00  0.00    +0.290 C 
ATOM     11  N   UNL     1      -2.364   2.751  23.200  0.00  0.00    -0.171 NA
BRANCH   2   3
ATOM      3  C   UNL     1      -3.325   3.458  23.987  0.00  0.00    +0.291 C 
BRANCH   3   4
ATOM      4  O   UNL     1      -4.097   3.732  24.090  0.00  0.00    -0.466 OA
BRANCH   4   5
ATOM      5  C   UNL     1      -4.508   3.553  24.783  0.00  0.00    +0.139 A 
ATOM      6  C   UNL     1      -5.097   2.976  24.776  0.00  0.00    +0.037 A 
ATOM      7  C   UNL     1      -5.508   2.798  25.468  0.00  0.00    +0.003 A 
ATOM      8  C   UNL     1      -5.329   3.197  26.168  0.00  0.00    +0.000 A 
ATOM      9  C   UNL     1      -4.740   3.774  26.175  0.00  0.00    +0.003 A 
ATOM     10  C   UNL     1      -4.329   3.952  25.482  0.00  0.00    +0.037 A 
ENDBRANCH   4   5
ENDBRANCH   3   4
ENDBRANCH   2   3
ENDBRANCH  12  11
TORSDOF 6
ENDMDL
MODEL 5
REMARK VINA RESULT:     -11.3      2.040      4.646
REMARK  Name = 
REMARK  6 active torsions:
REMARK  status: ('A' for Active; 'I' for Inactive)
REMARK    1  A    between atoms: C_2  and  C_3
REMARK    2  A    between atoms: C_3  and  O_4
REMARK    3  A    between atoms: O_4  and  C_5
REMARK    4  A    between atoms: N_11  and  C_12
REMARK    5  A    between atoms: C_22  and  C_24
REMARK    6  A    between atoms: C_27  and  C_30
REMARK                            x       y       z     vdW  Elec       q    Type
REMARK                         _______ _______ _______ _____ _____    ______ ____
ROOT
ATOM     12  C   UNL     1      -2.365  -1.400  25.596  0.00  0.00    +0.129 A 
ATOM     13  C   UNL     1      -2.195  -2.178  25.379  0.00  0.00    +0.023 A 
ATOM     14  C   UNL     1      -2.663  -2.562  24.819  0.00  0.00    +0.014 A 
ATOM     15  C   UNL     1      -3.302  -2.169  24.476  0.00  0.00    +0.041 A 
ATOM     16  C   UNL     1      -3.976  -2.300  23.865  0.00  0.00    +0.058 C 
ATOM     17  C   UNL     1      -4.238  -2.783  23.429  0.00  0.00    +0.011 C 
ATOM     18  C   UNL     1      -4.403  -2.016  23.646  0.00  0.00    +0.043 C 
ATOM     19  C   UNL     1      -4.759  -1.103  23.774  0.00  0.00    +0.096 C 
ATOM     20  N   UNL     1      -4.218  -0.821  24.346  0.00  0.00    -0.276 N 
ATOM     21  C   UNL     1      -4.332  -1.420  23.978  0.00  0.00    +0.099 C 
ATOM     22  C   UNL     1      -3.862  -0.299  24.877  0.00  0.00    +0.249 C 
ATOM     23  O   UNL     1      -3.200  -0.538  25.309  0.00  0.00    -0.270 OA
ATOM     36  C   UNL     1      -3.703  -1.870  24.286  0.00  0.00    +0.110 C 
ATOM     37  N   UNL     1      -3.473  -1.392  24.694  0.00  0.00    -0.298 N 
ATOM     38  C   UNL     1      -3.004  -1.007  25.253  0.00  0.00    +0.276 A 
ATOM     39  O   UNL     1      -2.969  -0.270  25.621  0.00  0.00    -0.266 OA
ENDROOT
BRANCH  22  24
ATOM     24  C   UNL     1      -4.167   0.460  24.976  0.00  0.00    +0.054 A 
ATOM     25  C   UNL     1      -4.789   0.590  25.502  0.00  0.00    +0.005 A 
ATOM     26  C   UNL     1      -5.094   1.351  25.601  0.00  0.00    +0.000 A 
ATOM     27  C   UNL     1      -4.777   1.981  25.173  0.00  0.00    +0.000 A 
ATOM     28  C   UNL     1      -4.156   1.852  24.647  0.00  0.00    +0.000 A 
ATOM     29  C   UNL     1      -3.851   1.091  24.548  0.00  0.00    +0.005 A 
BRANCH  27  30
ATOM     30  C   UNL     1      -5.083   2.741  25.272  0.00  0.00    +0.000 A 
ATOM     31  C   UNL     1      -4.596   3.399  25.170  0.00  0.00    +0.000 A 
ATOM     32  C   UNL     1      -4.901   4.158  25.269  0.00  0.00    +0.000 A 
ATOM     33  C   UNL     1      -5.694   4.261  25.470  0.00  0.00    +0.000 A 
ATOM     34  C   UNL     1      -6.182   3.604  25.573  0.00  0.00    +0.000 A 
ATOM     35  C   UNL     1      -5.876   2.843  25.473  0.00  0.00    +0.000 A 
ENDBRANCH  27  30
ENDBRANCH  22  24
BRANCH  12  11
ATOM      1  O   UNL     1      -0.662  -0.395  26.521  0.00  0.00    -0.269 OA
ATOM      2  C   UNL     1      -1.131  -0.779  25.960  0.00  0.00    +0.290 C 
ATOM     11  N   UNL     1      -1.896  -1.017  26.155  0.00  0.00    -0.171 NA
BRANCH   2   3
ATOM      3  C   UNL     1      -0.834  -0.925  25.204  0.00  0.00    +0.291 C 
BRANCH   3   4
ATOM      4  O   UNL     1      -0.075  -0.671  25.003  0.00  0.00    -0.466 OA
BRANCH   4   5
ATOM      5  C   UNL     1       0.068  -0.350  24.257  0.00  0.00    +0.139 A 
ATOM      6  C   UNL     1      -0.037   0.458  24.129  0.00  0.00    +0.037 A 
ATOM      7  C   UNL     1       0.106   0.780  23.382  0.00  0.00    +0.003 A 
ATOM      8  C   UNL     1       0.354   0.292  22.765  0.00  0.00    +0.000 A 
ATOM      9  C   UNL     1       0.459  -0.515  22.893  0.00  0.00    +0.003 A 
ATOM     10  C   UNL     1       0.316  -0.837  23.639  0.00  0.00    +0.037 A 
ENDBRANCH   4   5
ENDBRANCH   3   4
ENDBRANCH   2   3
ENDBRANCH  12  11
TORSDOF 6
ENDMDL
