MODEL 1
REMARK VINA RESULT:      -9.5      0.000      0.000
REMARK  Name = 
REMARK  8 active torsions:
REMARK  status: ('A' for Active; 'I' for Inactive)
REMARK    1  A    between atoms: C_4  and  C_25
REMARK    2  A    between atoms: C_6  and  C_7
REMARK    3  A    between atoms: C_14  and  C_15
REMARK    4  A    between atoms: C_15  and  N_16
REMARK    5  A    between atoms: C_17  and  C_19
REMARK    6  A    between atoms: C_19  and  C_20
REMARK    7  A    between atoms: C_20  and  C_21
REMARK    8  A    between atoms: C_21  and  C_22
REMARK                            x       y       z     vdW  Elec       q    Type
REMARK                         _______ _______ _______ _____ _____    ______ ____
ROOT
ATOM      7  C   UNL     1      -0.629   1.375  25.300  0.00  0.00    +0.056 C 
ATOM      8  C   UNL     1      -0.925   0.880  25.821  0.00  0.00    +0.078 C 
ATOM      9  N   UNL     1      -0.594   0.680  25.092  0.00  0.00    -0.272 NA
ATOM     10  C   UNL     1      -0.291   1.573  24.634  0.00  0.00    +0.072 C 
ATOM     11  C   UNL     1      -0.021   1.890  24.131  0.00  0.00    +0.018 C 
ATOM     12  C   UNL     1      -0.306   1.171  24.586  0.00  0.00    +0.010 C 
ATOM     13  C   UNL     1      -0.190   0.395  24.193  0.00  0.00    +0.018 C 
ATOM     14  C   UNL     1      -0.471  -0.124  24.678  0.00  0.00    +0.079 C 
ENDROOT
BRANCH   7   6
ATOM      1  C   UNL     1       0.328   2.174  26.593  0.00  0.00    +0.153 C 
ATOM      2  N   UNL     1      -0.205   2.545  26.084  0.00  0.00    -0.253 N 
ATOM      3  N   UNL     1      -0.393   3.349  26.080  0.00  0.00    -0.169 NA
ATOM      4  C   UNL     1      -0.948   3.479  25.484  0.00  0.00    +0.108 A 
ATOM      5  C   UNL     1      -1.104   2.756  25.119  0.00  0.00    +0.036 A 
ATOM      6  C   UNL     1      -0.645   2.179  25.490  0.00  0.00    +0.058 A 
BRANCH   4  25
ATOM     25  C   UNL     1      -1.287   4.205  25.288  0.00  0.00    +0.049 A 
ATOM     26  C   UNL     1      -0.896   4.848  24.951  0.00  0.00    +0.009 A 
ATOM     27  C   UNL     1      -1.445   5.455  24.849  0.00  0.00    +0.008 A 
ATOM     28  C   UNL     1      -2.176   5.187  25.123  0.00  0.00    +0.035 A 
ATOM     29  S   UNL     1      -2.079   4.414  25.394  0.00  0.00    -0.085 S 
ENDBRANCH   4  25
ENDBRANCH   7   6
BRANCH  14  15
ATOM     15  C   UNL     1      -0.591  -0.934  24.771  0.00  0.00    +0.131 C 
BRANCH  15  16
ATOM     16  N   UNL     1      -1.260  -1.292  24.448  0.00  0.00    -0.204 NA
ATOM     17  C   UNL     1      -1.458  -2.064  24.662  0.00  0.00    +0.241 C 
ATOM     18  O   UNL     1      -0.988  -2.477  25.199  0.00  0.00    -0.273 OA
BRANCH  17  19
ATOM     19  C   UNL     1      -2.128  -2.422  24.339  0.00  0.00    +0.087 C 
BRANCH  19  20
ATOM     20  C   UNL     1      -2.875  -2.102  24.480  0.00  0.00    +0.021 C 
BRANCH  20  21
ATOM     21  C   UNL     1      -3.551  -2.549  24.322  0.00  0.00    +0.115 C 
BRANCH  21  22
ATOM     22  C   UNL     1      -4.229  -2.183  24.029  0.00  0.00    +0.365 C 
ATOM     23  O   UNL     1      -4.462  -1.448  24.323  0.00  0.00    -0.246 OA
ATOM     24  O   UNL     1      -4.674  -2.551  23.440  0.00  0.00    -0.246 OA
ENDBRANCH  21  22
ENDBRANCH  20  21
ENDBRANCH  19  20
ENDBRANCH  17  19
ENDBRANCH  15  16
ENDBRANCH  14  15
TORSDOF 8
ENDMDL
MODEL 2
REMARK VINA RESULT:      -9.4      3.251      4.572
REMARK  Name = 
REMARK  8 active torsions:
REMARK  status: ('A' for Active; 'I' for Inactive)
REMARK    1  A    between atoms: C_4  and  C_25
REMARK    2  A    between atoms: C_6  and  C_7
REMARK    3  A    between atoms: C_14  and  C_15
REMARK    4  A    between atoms: C_15  and  N_16
REMARK    5  A    between atoms: C_17  and  C_19
REMARK    6  A    between atoms: C_19  and  C_20
REMARK    7  A    between atoms: C_20  and  C_21
REMARK    8  A    between atoms: C_21  and  C_22
REMARK                            x       y       z     vdW  Elec       q    Type
REMARK                         _______ _______ _______ _____ _____    ______ ____
ROOT
ATOM      7  C   UNL     1      -2.299   1.402  24.062  0.00  0.00    +0.056 C 
ATOM      8  C   UNL     1      -2.261   0.792  23.581  0.00  0.00    +0.078 C 
ATOM      9  N   UNL     1      -1.644   1.088  24.043  0.00  0.00    -0.272 NA
ATOM     10  C   UNL     1      -2.022   1.910  24.573  0.00  0.00    +0.072 C 
ATOM     11  C   UNL     1      -1.939   2.398  24.999  0.00  0.00    +0.018 C 
ATOM     12  C   UNL     1      -1.690   1.687  24.512  0.00  0.00    +0.010 C 
ATOM     13  C   UNL     1      -0.856   1.430  24.604  0.00  0.00    +0.018 C 
ATOM     14  C   UNL     1      -0.776   0.826  24.143  0.00  0.00    +0.079 C 
ENDROOT
BRANCH   7   6
ATOM      1  C   UNL     1      -3.034   2.453  22.804  0.00  0.00    +0.153 C 
ATOM      2  N   UNL     1      -3.362   2.276  23.540  0.00  0.00    -0.253 N 
ATOM      3  N   UNL     1      -4.085   2.551  23.828  0.00  0.00    -0.169 NA
ATOM      4  C   UNL     1      -4.194   2.238  24.583  0.00  0.00    +0.108 A 
ATOM      5  C   UNL     1      -3.539   1.770  24.763  0.00  0.00    +0.036 A 
ATOM      6  C   UNL     1      -3.025   1.794  24.118  0.00  0.00    +0.058 A 
BRANCH   4  25
ATOM     25  C   UNL     1      -4.845   2.371  25.073  0.00  0.00    +0.049 A 
ATOM     26  C   UNL     1      -5.403   1.808  25.301  0.00  0.00    +0.009 A 
ATOM     27  C   UNL     1      -5.955   2.179  25.789  0.00  0.00    +0.008 A 
ATOM     28  C   UNL     1      -5.737   2.971  25.862  0.00  0.00    +0.035 A 
ATOM     29  S   UNL     1      -5.052   3.091  25.420  0.00  0.00    -0.085 S 
ENDBRANCH   4  25
ENDBRANCH   7   6
BRANCH  14  15
ATOM     15  C   UNL     1      -0.227   0.267  23.887  0.00  0.00    +0.131 C 
BRANCH  15  16
ATOM     16  N   UNL     1       0.395   0.494  23.395  0.00  0.00    -0.204 NA
ATOM     17  C   UNL     1       0.944  -0.067  23.140  0.00  0.00    +0.241 C 
ATOM     18  O   UNL     1       0.870  -0.854  23.376  0.00  0.00    -0.273 OA
BRANCH  17  19
ATOM     19  C   UNL     1       1.566   0.160  22.648  0.00  0.00    +0.087 C 
BRANCH  19  20
ATOM     20  C   UNL     1       2.338   0.173  22.938  0.00  0.00    +0.021 C 
BRANCH  20  21
ATOM     21  C   UNL     1       2.962   0.391  22.444  0.00  0.00    +0.115 C 
BRANCH  21  22
ATOM     22  C   UNL     1       3.691   0.601  22.767  0.00  0.00    +0.365 C 
ATOM     23  O   UNL     1       4.278   0.030  22.867  0.00  0.00    -0.246 OA
ATOM     24  O   UNL     1       3.833   1.382  22.990  0.00  0.00    -0.246 OA
ENDBRANCH  21  22
ENDBRANCH  20  21
ENDBRANCH  19  20
ENDBRANCH  17  19
ENDBRANCH  15  16
ENDBRANCH  14  15
TORSDOF 8
ENDMDL
MODEL 3
REMARK VINA RESULT:      -9.4      3.392      5.133
REMARK  Name = 
REMARK  8 active torsions:
REMARK  status: ('A' for Active; 'I' for Inactive)
REMARK    1  A    between atoms: C_4  and  C_25
REMARK    2  A    between atoms: C_6  and  C_7
REMARK    3  A    between atoms: C_14  and  C_15
REMARK    4  A    between atoms: C_15  and  N_16
REMARK    5  A    between atoms: C_17  and  C_19
REMARK    6  A    between atoms: C_19  and  C_20
REMARK    7  A    between atoms: C_20  and  C_21
REMARK    8  A    between atoms: C_21  and  C_22
REMARK                            x       y       z     vdW  Elec       q    Type
REMARK                         _______ _______ _______ _____ _____    ______ ____
ROOT
ATOM      7  C   UNL     1      -0.836   0.218  24.203  0.00  0.00    +0.056 C 
ATOM      8  C   UNL     1      -0.586  -0.451  23.895  0.00  0.00    +0.078 C 
ATOM      9  N   UNL     1      -0.197   0.276  23.862  0.00  0.00    -0.272 NA
ATOM     10  C   UNL     1      -0.796   0.971  24.370  0.00  0.00    +0.072 C 
ATOM     11  C   UNL     1      -0.904   1.578  24.583  0.00  0.00    +0.018 C 
ATOM     12  C   UNL     1      -0.449   0.928  24.167  0.00  0.00    +0.010 C 
ATOM     13  C   UNL     1       0.314   1.164  23.802  0.00  0.00    +0.018 C 
ATOM     14  C   UNL     1       0.595   0.528  23.486  0.00  0.00    +0.079 C 
ENDROOT
BRANCH   7   6
ATOM      1  C   UNL     1      -1.171  -0.620  25.756  0.00  0.00    +0.153 C 
ATOM      2  N   UNL     1      -1.713  -0.182  25.315  0.00  0.00    -0.253 N 
ATOM      3  N   UNL     1      -2.504  -0.051  25.509  0.00  0.00    -0.169 NA
ATOM      4  C   UNL     1      -2.840   0.414  24.916  0.00  0.00    +0.108 A 
ATOM      5  C   UNL     1      -2.256   0.571  24.355  0.00  0.00    +0.036 A 
ATOM      6  C   UNL     1      -1.560   0.203  24.601  0.00  0.00    +0.058 A 
BRANCH   4  25
ATOM     25  C   UNL     1      -3.622   0.675  24.890  0.00  0.00    +0.049 A 
ATOM     26  C   UNL     1      -3.875   1.456  24.965  0.00  0.00    +0.009 A 
ATOM     27  C   UNL     1      -4.698   1.465  24.905  0.00  0.00    +0.008 A 
ATOM     28  C   UNL     1      -4.952   0.688  24.793  0.00  0.00    +0.035 A 
ATOM     29  S   UNL     1      -4.288   0.200  24.783  0.00  0.00    -0.085 S 
ENDBRANCH   4  25
ENDBRANCH   7   6
BRANCH  14  15
ATOM     15  C   UNL     1       1.237   0.240  23.056  0.00  0.00    +0.131 C 
BRANCH  15  16
ATOM     16  N   UNL     1       1.971   0.613  23.111  0.00  0.00    -0.204 NA
ATOM     17  C   UNL     1       2.594   0.368  22.629  0.00  0.00    +0.241 C 
ATOM     18  O   UNL     1       2.484  -0.249  22.092  0.00  0.00    -0.273 OA
BRANCH  17  19
ATOM     19  C   UNL     1       3.328   0.741  22.683  0.00  0.00    +0.087 C 
BRANCH  19  20
ATOM     20  C   UNL     1       3.975   0.334  22.994  0.00  0.00    +0.021 C 
BRANCH  20  21
ATOM     21  C   UNL     1       4.705   0.713  23.067  0.00  0.00    +0.115 C 
BRANCH  21  22
ATOM     22  C   UNL     1       5.303   0.372  23.520  0.00  0.00    +0.365 C 
ATOM     23  O   UNL     1       5.370   0.555  24.322  0.00  0.00    -0.246 OA
ATOM     24  O   UNL     1       5.836  -0.152  23.171  0.00  0.00    -0.246 OA
ENDBRANCH  21  22
ENDBRANCH  20  21
ENDBRANCH  19  20
ENDBRANCH  17  19
ENDBRANCH  15  16
ENDBRANCH  14  15
TORSDOF 8
ENDMDL
MODEL 4
REMARK VINA RESULT:      -9.3      2.097      2.944
REMARK  Name = 
REMARK  8 active torsions:
REMARK  status: ('A' for Active; 'I' for Inactive)
REMARK    1  A    between atoms: C_4  and  C_25
REMARK    2  A    between atoms: C_6  and  C_7
REMARK    3  A    between atoms: C_14  and  C_15
REMARK    4  A    between atoms: C_15  and  N_16
REMARK    5  A    between atoms: C_17  and  C_19
REMARK    6  A    between atoms: C_19  and  C_20
REMARK    7  A    between atoms: C_20  and  C_21
REMARK    8  A    between atoms: C_21  and  C_22
REMARK                            x       y       z     vdW  Elec       q    Type
REMARK                         _______ _______ _______ _____ _____    ______ ____
ROOT
ATOM      7  C   UNL     1      -3.630   2.052  24.812  0.00  0.00    +0.056 C 
ATOM      8  C   UNL     1      -3.847   1.597  25.405  0.00  0.00    +0.078 C 
ATOM      9  N   UNL     1      -3.862   1.394  24.605  0.00  0.00    -0.272 NA
ATOM     10  C   UNL     1      -3.508   2.223  24.069  0.00  0.00    +0.072 C 
ATOM     11  C   UNL     1      -3.357   2.510  23.502  0.00  0.00    +0.018 C 
ATOM     12  C   UNL     1      -3.647   1.845  24.029  0.00  0.00    +0.010 C 
ATOM     13  C   UNL     1      -3.893   1.109  23.620  0.00  0.00    +0.018 C 
ATOM     14  C   UNL     1      -4.115   0.631  24.173  0.00  0.00    +0.079 C 
ENDROOT
BRANCH   7   6
ATOM      1  C   UNL     1      -4.589   3.357  25.587  0.00  0.00    +0.153 C 
ATOM      2  N   UNL     1      -3.800   3.409  25.352  0.00  0.00    -0.253 N 
ATOM      3  N   UNL     1      -3.313   4.070  25.432  0.00  0.00    -0.169 NA
ATOM      4  C   UNL     1      -2.571   3.879  25.126  0.00  0.00    +0.108 A 
ATOM      5  C   UNL     1      -2.600   3.100  24.856  0.00  0.00    +0.036 A 
ATOM      6  C   UNL     1      -3.359   2.810  24.996  0.00  0.00    +0.058 A 
BRANCH   4  25
ATOM     25  C   UNL     1      -1.917   4.380  25.095  0.00  0.00    +0.049 A 
ATOM     26  C   UNL     1      -1.936   5.204  25.069  0.00  0.00    +0.009 A 
ATOM     27  C   UNL     1      -1.159   5.477  25.042  0.00  0.00    +0.008 A 
ATOM     28  C   UNL     1      -0.658   4.822  25.052  0.00  0.00    +0.035 A 
ATOM     29  S   UNL     1      -1.126   4.143  25.084  0.00  0.00    -0.085 S 
ENDBRANCH   4  25
ENDBRANCH   7   6
BRANCH  14  15
ATOM     15  C   UNL     1      -4.411  -0.127  24.303  0.00  0.00    +0.131 C 
BRANCH  15  16
ATOM     16  N   UNL     1      -3.921  -0.713  24.616  0.00  0.00    -0.204 NA
ATOM     17  C   UNL     1      -4.062  -1.506  24.438  0.00  0.00    +0.241 C 
ATOM     18  O   UNL     1      -4.690  -1.713  23.946  0.00  0.00    -0.273 OA
BRANCH  17  19
ATOM     19  C   UNL     1      -3.572  -2.092  24.751  0.00  0.00    +0.087 C 
BRANCH  19  20
ATOM     20  C   UNL     1      -2.830  -2.232  24.418  0.00  0.00    +0.021 C 
BRANCH  20  21
ATOM     21  C   UNL     1      -2.229  -2.565  24.874  0.00  0.00    +0.115 C 
BRANCH  21  22
ATOM     22  C   UNL     1      -1.443  -2.494  24.637  0.00  0.00    +0.365 C 
ATOM     23  O   UNL     1      -1.205  -2.787  23.903  0.00  0.00    -0.246 OA
ATOM     24  O   UNL     1      -0.894  -2.131  25.134  0.00  0.00    -0.246 OA
ENDBRANCH  21  22
ENDBRANCH  20  21
ENDBRANCH  19  20
ENDBRANCH  17  19
ENDBRANCH  15  16
ENDBRANCH  14  15
TORSDOF 8
ENDMDL
MODEL 5
REMARK VINA RESULT:      -9.0      3.445      6.161
REMARK  Name = 
REMARK  8 active torsions:
REMARK  status: ('A' for Active; 'I' for Inactive)
REMARK    1  A    between atoms: C_4  and  C_25
REMARK    2  A    between atoms: C_6  and  C_7
REMARK    3  A    between atoms: C_14  and  C_15
REMARK    4  A    between atoms: C_15  and  N_16
REMARK    5  A    between atoms: C_17  and  C_19
REMARK    6  A    between atoms: C_19  and  C_20
REMARK    7  A    between atoms: C_20  and  C_21
REMARK    8  A    between atoms: C_21  and  C_22
REMARK                            x       y       z     vdW  Elec       q    Type
REMARK                         _______ _______ _______ _____ _____    ______ ____
ROOT
ATOM      7  C   UNL     1      -3.855   1.178  24.804  0.00  0.00    +0.056 C 
ATOM      8  C   UNL     1      -3.222   1.581  25.011  0.00  0.00    +0.078 C 
ATOM      9  N   UNL     1      -4.006   1.810  25.129  0.00  0.00    -0.272 NA
ATOM     10  C   UNL     1      -4.613   1.050  24.738  0.00  0.00    +0.072 C 
ATOM     11  C   UNL     1      -5.205   0.804  24.612  0.00  0.00    +0.018 C 
ATOM     12  C   UNL     1      -4.621   1.410  24.923  0.00  0.00    +0.010 C 
ATOM     13  C   UNL     1      -4.969   2.127  25.291  0.00  0.00    +0.018 C 
ATOM     14  C   UNL     1      -4.374   2.553  25.510  0.00  0.00    +0.079 C 
ENDROOT
BRANCH   7   6
ATOM      1  C   UNL     1      -3.229   0.936  23.138  0.00  0.00    +0.153 C 
ATOM      2  N   UNL     1      -3.447   0.341  23.666  0.00  0.00    -0.253 N 
ATOM      3  N   UNL     1      -3.415  -0.471  23.521  0.00  0.00    -0.169 NA
ATOM      4  C   UNL     1      -3.684  -0.862  24.196  0.00  0.00    +0.108 A 
ATOM      5  C   UNL     1      -3.881  -0.292  24.758  0.00  0.00    +0.036 A 
ATOM      6  C   UNL     1      -3.734   0.451  24.431  0.00  0.00    +0.058 A 
BRANCH   4  25
ATOM     25  C   UNL     1      -3.744  -1.679  24.291  0.00  0.00    +0.049 A 
ATOM     26  C   UNL     1      -4.217  -2.186  23.844  0.00  0.00    +0.009 A 
ATOM     27  C   UNL     1      -4.106  -2.953  24.127  0.00  0.00    +0.008 A 
ATOM     28  C   UNL     1      -3.565  -2.920  24.749  0.00  0.00    +0.035 A 
ATOM     29  S   UNL     1      -3.341  -2.133  24.850  0.00  0.00    -0.085 S 
ENDBRANCH   4  25
ENDBRANCH   7   6
BRANCH  14  15
ATOM     15  C   UNL     1      -4.180   3.266  25.876  0.00  0.00    +0.131 C 
BRANCH  15  16
ATOM     16  N   UNL     1      -3.643   3.781  25.519  0.00  0.00    -0.204 NA
ATOM     17  C   UNL     1      -3.251   4.347  25.973  0.00  0.00    +0.241 C 
ATOM     18  O   UNL     1      -3.396   4.399  26.784  0.00  0.00    -0.273 OA
BRANCH  17  19
ATOM     19  C   UNL     1      -2.714   4.862  25.617  0.00  0.00    +0.087 C 
BRANCH  19  20
ATOM     20  C   UNL     1      -1.928   4.633  25.516  0.00  0.00    +0.021 C 
BRANCH  20  21
ATOM     21  C   UNL     1      -1.399   5.132  25.126  0.00  0.00    +0.115 C 
BRANCH  21  22
ATOM     22  C   UNL     1      -0.689   4.833  24.832  0.00  0.00    +0.365 C 
ATOM     23  O   UNL     1      -0.389   4.122  25.122  0.00  0.00    -0.246 OA
ATOM     24  O   UNL     1      -0.279   5.246  24.247  0.00  0.00    -0.246 OA
ENDBRANCH  21  22
ENDBRANCH  20  21
ENDBRANCH  19  20
ENDBRANCH  17  19
ENDBRANCH  15  16
ENDBRANCH  14  15
TORSDOF 8
ENDMDL
MODEL 6
REMARK VINA RESULT:      -8.7      2.583      5.273
REMARK  Name = 
REMARK  8 active torsions:
REMARK  status: ('A' for Active; 'I' for Inactive)
REMARK    1  A    between atoms: C_4  and  C_25
REMARK    2  A    between atoms: C_6  and  C_7
REMARK    3  A    between atoms: C_14  and  C_15
REMARK    4  A    between atoms: C_15  and  N_16
REMARK    5  A    between atoms: C_17  and  C_19
REMARK    6  A    between atoms: C_19  and  C_20
REMARK    7  A    between atoms: C_20  and  C_21
REMARK    8  A    between atoms: C_21  and  C_22
REMARK                            x       y       z     vdW  Elec       q    Type
REMARK                         _______ _______ _______ _____ _____    ______ ____
ROOT
ATOM      7  C   UNL     1      -1.045  -0.163  24.883  0.00  0.00    +0.056 C 
ATOM      8  C   UNL     1      -1.114   0.269  25.527  0.00  0.00    +0.078 C 
ATOM      9  N   UNL     1      -0.676   0.463  24.854  0.00  0.00    -0.272 NA
ATOM     10  C   UNL     1      -0.790  -0.326  24.173  0.00  0.00    +0.072 C 
ATOM     11  C   UNL     1      -0.661  -0.599  23.594  0.00  0.00    +0.018 C 
ATOM     12  C   UNL     1      -0.613   0.034  24.228  0.00  0.00    +0.010 C 
ATOM     13  C   UNL     1      -0.122   0.736  24.036  0.00  0.00    +0.018 C 
ATOM     14  C   UNL     1      -0.164   1.189  24.648  0.00  0.00    +0.079 C 
ENDROOT
BRANCH   7   6
ATOM      1  C   UNL     1      -0.444  -1.720  25.548  0.00  0.00    +0.153 C 
ATOM      2  N   UNL     1      -1.169  -1.600  25.173  0.00  0.00    -0.253 N 
ATOM      3  N   UNL     1      -1.746  -2.174  25.038  0.00  0.00    -0.169 NA
ATOM      4  C   UNL     1      -2.379  -1.814  24.650  0.00  0.00    +0.108 A 
ATOM      5  C   UNL     1      -2.193  -1.017  24.544  0.00  0.00    +0.036 A 
ATOM      6  C   UNL     1      -1.446  -0.885  24.868  0.00  0.00    +0.058 A 
BRANCH   4  25
ATOM     25  C   UNL     1      -3.074  -2.186  24.409  0.00  0.00    +0.049 A 
ATOM     26  C   UNL     1      -3.732  -1.817  24.075  0.00  0.00    +0.009 A 
ATOM     27  C   UNL     1      -4.299  -2.396  23.920  0.00  0.00    +0.008 A 
ATOM     28  C   UNL     1      -3.991  -3.123  24.157  0.00  0.00    +0.035 A 
ATOM     29  S   UNL     1      -3.234  -2.995  24.459  0.00  0.00    -0.085 S 
ENDBRANCH   4  25
ENDBRANCH   7   6
BRANCH  14  15
ATOM     15  C   UNL     1       0.099   1.912  24.947  0.00  0.00    +0.131 C 
BRANCH  15  16
ATOM     16  N   UNL     1      -0.369   2.586  24.867  0.00  0.00    -0.204 NA
ATOM     17  C   UNL     1      -0.235   3.240  25.351  0.00  0.00    +0.241 C 
ATOM     18  O   UNL     1       0.367   3.220  25.915  0.00  0.00    -0.273 OA
BRANCH  17  19
ATOM     19  C   UNL     1      -0.703   3.915  25.272  0.00  0.00    +0.087 C 
BRANCH  19  20
ATOM     20  C   UNL     1      -1.441   3.951  25.638  0.00  0.00    +0.021 C 
BRANCH  20  21
ATOM     21  C   UNL     1      -2.009   4.487  25.371  0.00  0.00    +0.115 C 
BRANCH  21  22
ATOM     22  C   UNL     1      -2.804   4.373  25.556  0.00  0.00    +0.365 C 
ATOM     23  O   UNL     1      -3.054   4.407  26.342  0.00  0.00    -0.246 OA
ATOM     24  O   UNL     1      -3.349   4.225  24.955  0.00  0.00    -0.246 OA
ENDBRANCH  21  22
ENDBRANCH  20  21
ENDBRANCH  19  20
ENDBRANCH  17  19
ENDBRANCH  15  16
ENDBRANCH  14  15
TORSDOF 8
ENDMDL
