REMARK  Name = 
REMARK  6 active torsions:
REMARK  status: ('A' for Active; 'I' for Inactive)
REMARK    1  A    between atoms: C_2  and  C_13
REMARK    2  A    between atoms: N_3  and  C_4
REMARK    3  A    between atoms: C_4  and  C_5
REMARK    4  A    between atoms: C_8  and  C_11
REMARK    5  A    between atoms: N_18  and  C_19
REMARK    6  A    between atoms: C_19  and  C_20
REMARK                            x       y       z     vdW  Elec       q    Type
REMARK                         _______ _______ _______ _____ _____    ______ ____
ROOT
ATOM     13  C   UNL     1      -2.691  -1.412   0.000  0.00  0.00    +0.143 C 
ATOM     14  C   UNL     1      -3.103  -2.127   0.000  0.00  0.00    +0.072 C 
ATOM     15  C   UNL     1      -2.691  -2.841   0.000  0.00  0.00    +0.077 A 
ATOM     16  C   UNL     1      -1.866  -2.841   0.000  0.00  0.00    +0.090 A 
ATOM     17  C   UNL     1      -1.453  -2.127   0.000  0.00  0.00    +0.121 C 
ATOM     18  N   UNL     1      -1.866  -1.412   0.000  0.00  0.00    -0.255 NA
ATOM     29  N   UNL     1      -1.611  -3.626   0.000  0.00  0.00    -0.226 NA
ATOM     30  C   UNL     1      -2.278  -4.111   0.000  0.00  0.00    +0.198 A 
ATOM     31  N   UNL     1      -2.946  -3.626   0.000  0.00  0.00    -0.227 NA
ENDROOT
BRANCH  13   2
ATOM      1  O   UNL     1      -3.928  -0.698   0.000  0.00  0.00    -0.272 OA
ATOM      2  C   UNL     1      -3.103  -0.698   0.000  0.00  0.00    +0.257 C 
ATOM      3  N   UNL     1      -2.691   0.017   0.000  0.00  0.00    -0.199 NA
BRANCH   3   4
ATOM      4  C   UNL     1      -1.866   0.017   0.000  0.00  0.00    +0.142 C 
BRANCH   4   5
ATOM      5  C   UNL     1      -1.453   0.731   0.000  0.00  0.00    -0.001 A 
ATOM      6  C   UNL     1      -1.866   1.446   0.000  0.00  0.00    -0.002 A 
ATOM      7  C   UNL     1      -1.453   2.160   0.000  0.00  0.00    +0.010 A 
ATOM      8  C   UNL     1      -0.628   2.160   0.000  0.00  0.00    +0.068 A 
ATOM      9  C   UNL     1      -0.216   1.446   0.000  0.00  0.00    +0.010 A 
ATOM     10  C   UNL     1      -0.628   0.731   0.000  0.00  0.00    -0.002 A 
BRANCH   8  11
ATOM     11  C   UNL     1      -0.216   2.874   0.000  0.00  0.00    +0.100 C 
ATOM     12  N   UNL     1       0.197   3.589   0.000  0.00  0.00    -0.191 NA
ENDBRANCH   8  11
ENDBRANCH   4   5
ENDBRANCH   3   4
ENDBRANCH  13   2
BRANCH  18  19
ATOM     19  C   UNL     1      -1.453  -0.698   0.000  0.00  0.00    +0.138 C 
BRANCH  19  20
ATOM     20  C   UNL     1      -0.628  -0.698   0.000  0.00  0.00    +0.139 A 
ATOM     21  C   UNL     1      -0.143  -1.365   0.000  0.00  0.00    +0.037 A 
ATOM     22  C   UNL     1       0.641  -1.110   0.000  0.00  0.00    +0.037 A 
ATOM     23  C   UNL     1       0.641  -0.285   0.000  0.00  0.00    +0.145 A 
ATOM     24  O   UNL     1      -0.143  -0.030   0.000  0.00  0.00    -0.456 OA
ATOM     25  C   UNL     1       1.356   0.127   0.000  0.00  0.00    +0.037 A 
ATOM     26  C   UNL     1       2.070  -0.285   0.000  0.00  0.00    +0.003 A 
ATOM     27  C   UNL     1       2.070  -1.110   0.000  0.00  0.00    +0.000 A 
ATOM     28  C   UNL     1       1.356  -1.523   0.000  0.00  0.00    +0.003 A 
ENDBRANCH  19  20
ENDBRANCH  18  19
TORSDOF 6
