REMARK  Name = 
REMARK  7 active torsions:
REMARK  status: ('A' for Active; 'I' for Inactive)
REMARK    1  A    between atoms: C_2  and  C_3
REMARK    2  A    between atoms: C_10  and  C_11
REMARK    3  A    between atoms: C_11  and  N_12
REMARK    4  A    between atoms: N_12  and  C_13
REMARK    5  A    between atoms: C_13  and  C_14
REMARK    6  A    between atoms: C_17  and  O_18
REMARK    7  A    between atoms: O_18  and  C_19
REMARK                            x       y       z     vdW  Elec       q    Type
REMARK                         _______ _______ _______ _____ _____    ______ ____
ROOT
ATOM     12  N   UNL     1      -1.004  -2.845   0.000  0.00  0.00    -0.212 NA
ENDROOT
BRANCH  12  11
ATOM     11  C   UNL     1      -0.179  -2.836   0.000  0.00  0.00    +0.105 C 
BRANCH  11  10
ATOM      3  C   UNL     1       1.661  -1.343   0.000  0.00  0.00    +0.016 C 
ATOM      4  C   UNL     1       1.814  -2.106   0.000  0.00  0.00    +0.072 C 
ATOM      5  N   UNL     1       1.065  -1.759   0.000  0.00  0.00    -0.273 NA
ATOM      6  C   UNL     1       1.205  -0.720   0.000  0.00  0.00    +0.072 C 
ATOM      7  C   UNL     1       0.961  -0.114   0.000  0.00  0.00    +0.017 C 
ATOM      8  C   UNL     1       0.923  -1.010   0.000  0.00  0.00    +0.004 C 
ATOM      9  C   UNL     1       0.119  -1.362   0.000  0.00  0.00    +0.018 C 
ATOM     10  C   UNL     1       0.226  -2.118   0.000  0.00  0.00    +0.075 C 
BRANCH   3   2
ATOM      1  C   UNL     1       3.075  -1.130   0.000  0.00  0.00    +0.000 C 
ATOM      2  C   UNL     1       2.307  -0.828   0.000  0.00  0.00    +0.001 C 
ENDBRANCH   3   2
ENDBRANCH  11  10
ENDBRANCH  12  11
BRANCH  12  13
ATOM     13  C   UNL     1      -1.408  -3.564   0.000  0.00  0.00    +0.115 C 
BRANCH  13  14
ATOM     14  C   UNL     1      -2.233  -3.573   0.000  0.00  0.00    -0.005 A 
ATOM     15  C   UNL     1      -2.638  -4.292   0.000  0.00  0.00    +0.000 A 
ATOM     16  C   UNL     1      -3.463  -4.301   0.000  0.00  0.00    +0.037 A 
ATOM     17  C   UNL     1      -3.883  -3.591   0.000  0.00  0.00    +0.147 A 
ATOM     23  C   UNL     1      -3.478  -2.872   0.000  0.00  0.00    +0.037 A 
ATOM     24  C   UNL     1      -2.654  -2.863   0.000  0.00  0.00    +0.000 A 
BRANCH  17  18
ATOM     18  O   UNL     1      -4.708  -3.599   0.000  0.00  0.00    -0.404 OA
BRANCH  18  19
ATOM     19  C   UNL     1      -5.113  -4.318   0.000  0.00  0.00    +0.575 C 
ATOM     20  F   UNL     1      -5.518  -5.037   0.000  0.00  0.00    -0.133 F 
ATOM     21  F   UNL     1      -5.832  -3.913   0.000  0.00  0.00    -0.133 F 
ATOM     22  F   UNL     1      -4.394  -4.723   0.000  0.00  0.00    -0.133 F 
ENDBRANCH  18  19
ENDBRANCH  17  18
ENDBRANCH  13  14
ENDBRANCH  12  13
TORSDOF 7
