MODEL 1
REMARK VINA RESULT:     -16.3      0.000      0.000
REMARK  Name = 
REMARK  4 active torsions:
REMARK  status: ('A' for Active; 'I' for Inactive)
REMARK    1  A    between atoms: O_2  and  C_3
REMARK    2  A    between atoms: C_3  and  C_4
REMARK    3  A    between atoms: C_4  and  C_5
REMARK    4  A    between atoms: C_16  and  C_21
REMARK                            x       y       z     vdW  Elec       q    Type
REMARK                         _______ _______ _______ _____ _____    ______ ____
ROOT
ATOM      5  C   UNL     1      -2.867   1.918  24.339  0.00  0.00    +0.228 C 
ATOM      6  O   UNL     1      -3.260   1.230  24.572  0.00  0.00    -0.275 OA
ATOM      7  N   UNL     1      -3.236   2.652  24.420  0.00  0.00    -0.279 N 
ATOM      8  C   UNL     1      -3.341   3.480  24.381  0.00  0.00    +0.095 C 
ATOM      9  C   UNL     1      -4.252   3.549  24.756  0.00  0.00    +0.043 C 
ATOM     10  C   UNL     1      -4.983   3.773  25.039  0.00  0.00    +0.011 C 
ATOM     11  C   UNL     1      -4.622   3.178  24.948  0.00  0.00    +0.058 C 
ATOM     12  C   UNL     1      -3.741   3.127  24.584  0.00  0.00    +0.099 C 
ATOM     13  C   UNL     1      -4.689   2.269  25.067  0.00  0.00    +0.041 A 
ATOM     14  C   UNL     1      -5.213   1.696  25.344  0.00  0.00    +0.013 A 
ATOM     15  C   UNL     1      -4.998   0.900  25.333  0.00  0.00    +0.006 A 
ATOM     16  C   UNL     1      -4.257   0.677  25.045  0.00  0.00    +0.056 A 
ATOM     17  C   UNL     1      -3.733   1.250  24.768  0.00  0.00    +0.261 A 
ATOM     18  O   UNL     1      -3.084   0.793  24.542  0.00  0.00    -0.267 OA
ATOM     19  N   UNL     1      -3.948   2.046  24.779  0.00  0.00    -0.299 N 
ATOM     20  C   UNL     1      -4.313   2.599  24.876  0.00  0.00    +0.110 C 
ENDROOT
BRANCH  16  21
ATOM     21  C   UNL     1      -4.043  -0.119  25.035  0.00  0.00    +0.005 A 
ATOM     22  C   UNL     1      -3.613  -0.438  25.663  0.00  0.00    +0.000 A 
ATOM     23  C   UNL     1      -3.398  -1.235  25.654  0.00  0.00    +0.000 A 
ATOM     24  C   UNL     1      -3.612  -1.712  25.016  0.00  0.00    +0.000 A 
ATOM     25  C   UNL     1      -3.397  -2.509  25.006  0.00  0.00    +0.000 A 
ATOM     26  C   UNL     1      -3.611  -2.986  24.367  0.00  0.00    +0.000 A 
ATOM     27  C   UNL     1      -4.040  -2.667  23.740  0.00  0.00    +0.000 A 
ATOM     28  C   UNL     1      -4.255  -1.871  23.749  0.00  0.00    +0.000 A 
ATOM     29  C   UNL     1      -4.041  -1.394  24.387  0.00  0.00    +0.000 A 
ATOM     30  C   UNL     1      -4.257  -0.596  24.397  0.00  0.00    +0.000 A 
ENDBRANCH  16  21
BRANCH   5   4
ATOM      4  C   UNL     1      -2.106   1.871  24.025  0.00  0.00    +0.117 C 
BRANCH   4   3
ATOM      3  C   UNL     1      -1.451   1.976  24.515  0.00  0.00    +0.152 C 
BRANCH   3   2
ATOM      1  C   UNL     1      -0.034   2.008  24.696  0.00  0.00    +0.174 C 
ATOM      2  O   UNL     1      -0.689   1.928  24.201  0.00  0.00    -0.351 OA
ENDBRANCH   3   2
ENDBRANCH   4   3
ENDBRANCH   5   4
TORSDOF 4
ENDMDL
MODEL 2
REMARK VINA RESULT:     -15.0      1.500      4.132
REMARK  Name = 
REMARK  4 active torsions:
REMARK  status: ('A' for Active; 'I' for Inactive)
REMARK    1  A    between atoms: O_2  and  C_3
REMARK    2  A    between atoms: C_3  and  C_4
REMARK    3  A    between atoms: C_4  and  C_5
REMARK    4  A    between atoms: C_16  and  C_21
REMARK                            x       y       z     vdW  Elec       q    Type
REMARK                         _______ _______ _______ _____ _____    ______ ____
ROOT
ATOM      5  C   UNL     1      -1.915  -0.666  24.596  0.00  0.00    +0.228 C 
ATOM      6  O   UNL     1      -2.525  -0.127  24.459  0.00  0.00    -0.275 OA
ATOM      7  N   UNL     1      -2.079  -1.474  24.630  0.00  0.00    -0.279 N 
ATOM      8  C   UNL     1      -1.942  -2.294  24.714  0.00  0.00    +0.095 C 
ATOM      9  C   UNL     1      -2.863  -2.630  24.592  0.00  0.00    +0.043 C 
ATOM     10  C   UNL     1      -3.551  -3.059  24.514  0.00  0.00    +0.011 C 
ATOM     11  C   UNL     1      -3.355  -2.385  24.495  0.00  0.00    +0.058 C 
ATOM     12  C   UNL     1      -2.459  -2.077  24.615  0.00  0.00    +0.099 C 
ATOM     13  C   UNL     1      -3.693  -1.539  24.378  0.00  0.00    +0.041 A 
ATOM     14  C   UNL     1      -4.405  -1.148  24.235  0.00  0.00    +0.013 A 
ATOM     15  C   UNL     1      -4.418  -0.326  24.171  0.00  0.00    +0.006 A 
ATOM     16  C   UNL     1      -3.720   0.106  24.251  0.00  0.00    +0.056 A 
ATOM     17  C   UNL     1      -3.008  -0.285  24.394  0.00  0.00    +0.261 A 
ATOM     18  O   UNL     1      -2.472   0.341  24.432  0.00  0.00    -0.267 OA
ATOM     19  N   UNL     1      -2.994  -1.107  24.457  0.00  0.00    -0.299 N 
ATOM     20  C   UNL     1      -3.207  -1.742  24.470  0.00  0.00    +0.110 C 
ENDROOT
BRANCH  16  21
ATOM     21  C   UNL     1      -3.734   0.928  24.187  0.00  0.00    +0.005 A 
ATOM     22  C   UNL     1      -3.490   1.291  23.487  0.00  0.00    +0.000 A 
ATOM     23  C   UNL     1      -3.504   2.113  23.423  0.00  0.00    +0.000 A 
ATOM     24  C   UNL     1      -3.761   2.572  24.058  0.00  0.00    +0.000 A 
ATOM     25  C   UNL     1      -3.775   3.396  23.994  0.00  0.00    +0.000 A 
ATOM     26  C   UNL     1      -4.033   3.854  24.630  0.00  0.00    +0.000 A 
ATOM     27  C   UNL     1      -4.276   3.491  25.329  0.00  0.00    +0.000 A 
ATOM     28  C   UNL     1      -4.262   2.669  25.393  0.00  0.00    +0.000 A 
ATOM     29  C   UNL     1      -4.005   2.210  24.758  0.00  0.00    +0.000 A 
ATOM     30  C   UNL     1      -3.991   1.387  24.822  0.00  0.00    +0.000 A 
ENDBRANCH  16  21
BRANCH   5   4
ATOM      4  C   UNL     1      -1.143  -0.397  24.699  0.00  0.00    +0.117 C 
BRANCH   4   3
ATOM      3  C   UNL     1      -0.626  -0.369  24.056  0.00  0.00    +0.152 C 
BRANCH   3   2
ATOM      1  C   UNL     1       0.626   0.025  23.491  0.00  0.00    +0.174 C 
ATOM      2  O   UNL     1       0.121  -0.029  24.141  0.00  0.00    -0.351 OA
ENDBRANCH   3   2
ENDBRANCH   4   3
ENDBRANCH   5   4
TORSDOF 4
ENDMDL
MODEL 3
REMARK VINA RESULT:     -14.1      1.227      2.632
REMARK  Name = 
REMARK  4 active torsions:
REMARK  status: ('A' for Active; 'I' for Inactive)
REMARK    1  A    between atoms: O_2  and  C_3
REMARK    2  A    between atoms: C_3  and  C_4
REMARK    3  A    between atoms: C_4  and  C_5
REMARK    4  A    between atoms: C_16  and  C_21
REMARK                            x       y       z     vdW  Elec       q    Type
REMARK                         _______ _______ _______ _____ _____    ______ ____
ROOT
ATOM      5  C   UNL     1      -3.787   2.789  25.045  0.00  0.00    +0.228 C 
ATOM      6  O   UNL     1      -3.479   2.046  24.857  0.00  0.00    -0.275 OA
ATOM      7  N   UNL     1      -3.278   3.419  25.203  0.00  0.00    -0.279 N 
ATOM      8  C   UNL     1      -3.034   4.193  25.398  0.00  0.00    +0.095 C 
ATOM      9  C   UNL     1      -2.054   4.072  25.367  0.00  0.00    +0.043 C 
ATOM     10  C   UNL     1      -1.242   4.136  25.383  0.00  0.00    +0.011 C 
ATOM     11  C   UNL     1      -1.721   3.638  25.258  0.00  0.00    +0.058 C 
ATOM     12  C   UNL     1      -2.666   3.772  25.292  0.00  0.00    +0.099 C 
ATOM     13  C   UNL     1      -1.795   2.750  25.034  0.00  0.00    +0.041 A 
ATOM     14  C   UNL     1      -1.329   2.090  24.868  0.00  0.00    +0.013 A 
ATOM     15  C   UNL     1      -1.685   1.369  24.686  0.00  0.00    +0.006 A 
ATOM     16  C   UNL     1      -2.508   1.307  24.671  0.00  0.00    +0.056 A 
ATOM     17  C   UNL     1      -2.974   1.967  24.837  0.00  0.00    +0.261 A 
ATOM     18  O   UNL     1      -3.736   1.662  24.761  0.00  0.00    -0.267 OA
ATOM     19  N   UNL     1      -2.618   2.688  25.019  0.00  0.00    -0.299 N 
ATOM     20  C   UNL     1      -2.141   3.145  25.134  0.00  0.00    +0.110 C 
ENDROOT
BRANCH  16  21
ATOM     21  C   UNL     1      -2.863   0.586  24.490  0.00  0.00    +0.005 A 
ATOM     22  C   UNL     1      -3.203   0.469  23.747  0.00  0.00    +0.000 A 
ATOM     23  C   UNL     1      -3.559  -0.252  23.564  0.00  0.00    +0.000 A 
ATOM     24  C   UNL     1      -3.575  -0.857  24.125  0.00  0.00    +0.000 A 
ATOM     25  C   UNL     1      -3.931  -1.580  23.942  0.00  0.00    +0.000 A 
ATOM     26  C   UNL     1      -3.947  -2.185  24.503  0.00  0.00    +0.000 A 
ATOM     27  C   UNL     1      -3.607  -2.068  25.245  0.00  0.00    +0.000 A 
ATOM     28  C   UNL     1      -3.251  -1.347  25.428  0.00  0.00    +0.000 A 
ATOM     29  C   UNL     1      -3.235  -0.742  24.867  0.00  0.00    +0.000 A 
ATOM     30  C   UNL     1      -2.879  -0.019  25.050  0.00  0.00    +0.000 A 
ENDBRANCH  16  21
BRANCH   5   4
ATOM      4  C   UNL     1      -4.603   2.902  25.073  0.00  0.00    +0.117 C 
BRANCH   4   3
ATOM      3  C   UNL     1      -5.018   2.740  25.768  0.00  0.00    +0.152 C 
BRANCH   3   2
ATOM      1  C   UNL     1      -6.300   2.351  26.266  0.00  0.00    +0.174 C 
ATOM      2  O   UNL     1      -5.837   2.844  25.794  0.00  0.00    -0.351 OA
ENDBRANCH   3   2
ENDBRANCH   4   3
ENDBRANCH   5   4
TORSDOF 4
ENDMDL
MODEL 4
REMARK VINA RESULT:     -14.0      1.565      4.535
REMARK  Name = 
REMARK  4 active torsions:
REMARK  status: ('A' for Active; 'I' for Inactive)
REMARK    1  A    between atoms: O_2  and  C_3
REMARK    2  A    between atoms: C_3  and  C_4
REMARK    3  A    between atoms: C_4  and  C_5
REMARK    4  A    between atoms: C_16  and  C_21
REMARK                            x       y       z     vdW  Elec       q    Type
REMARK                         _______ _______ _______ _____ _____    ______ ____
ROOT
ATOM      5  C   UNL     1      -3.581  -0.111  24.279  0.00  0.00    +0.228 C 
ATOM      6  O   UNL     1      -2.785   0.043  24.431  0.00  0.00    -0.275 OA
ATOM      7  N   UNL     1      -3.859  -0.888  24.279  0.00  0.00    -0.279 N 
ATOM      8  C   UNL     1      -4.398  -1.523  24.214  0.00  0.00    +0.095 C 
ATOM      9  C   UNL     1      -3.787  -2.278  24.395  0.00  0.00    +0.043 C 
ATOM     10  C   UNL     1      -3.423  -2.996  24.522  0.00  0.00    +0.011 C 
ATOM     11  C   UNL     1      -3.242  -2.318  24.509  0.00  0.00    +0.058 C 
ATOM     12  C   UNL     1      -3.846  -1.598  24.333  0.00  0.00    +0.099 C 
ATOM     13  C   UNL     1      -2.518  -1.762  24.617  0.00  0.00    +0.041 A 
ATOM     14  C   UNL     1      -1.711  -1.787  24.785  0.00  0.00    +0.013 A 
ATOM     15  C   UNL     1      -1.276  -1.087  24.823  0.00  0.00    +0.006 A 
ATOM     16  C   UNL     1      -1.648  -0.362  24.694  0.00  0.00    +0.056 A 
ATOM     17  C   UNL     1      -2.456  -0.337  24.526  0.00  0.00    +0.261 A 
ATOM     18  O   UNL     1      -2.588   0.472  24.440  0.00  0.00    -0.267 OA
ATOM     19  N   UNL     1      -2.891  -1.037  24.488  0.00  0.00    -0.299 N 
ATOM     20  C   UNL     1      -3.036  -1.690  24.506  0.00  0.00    +0.110 C 
ENDROOT
BRANCH  16  21
ATOM     21  C   UNL     1      -1.213   0.337  24.732  0.00  0.00    +0.005 A 
ATOM     22  C   UNL     1      -0.868   0.646  24.049  0.00  0.00    +0.000 A 
ATOM     23  C   UNL     1      -0.433   1.345  24.086  0.00  0.00    +0.000 A 
ATOM     24  C   UNL     1      -0.341   1.736  24.807  0.00  0.00    +0.000 A 
ATOM     25  C   UNL     1       0.095   2.436  24.845  0.00  0.00    +0.000 A 
ATOM     26  C   UNL     1       0.186   2.826  25.567  0.00  0.00    +0.000 A 
ATOM     27  C   UNL     1      -0.158   2.517  26.249  0.00  0.00    +0.000 A 
ATOM     28  C   UNL     1      -0.594   1.818  26.211  0.00  0.00    +0.000 A 
ATOM     29  C   UNL     1      -0.685   1.427  25.491  0.00  0.00    +0.000 A 
ATOM     30  C   UNL     1      -1.121   0.727  25.453  0.00  0.00    +0.000 A 
ENDBRANCH  16  21
BRANCH   5   4
ATOM      4  C   UNL     1      -4.100   0.512  24.127  0.00  0.00    +0.117 C 
BRANCH   4   3
ATOM      3  C   UNL     1      -4.528   0.852  24.745  0.00  0.00    +0.152 C 
BRANCH   3   2
ATOM      1  C   UNL     1      -5.477   1.814  25.210  0.00  0.00    +0.174 C 
ATOM      2  O   UNL     1      -5.026   1.494  24.598  0.00  0.00    -0.351 OA
ENDBRANCH   3   2
ENDBRANCH   4   3
ENDBRANCH   5   4
TORSDOF 4
ENDMDL
