MODEL 1
REMARK VINA RESULT:      -9.2      0.000      0.000
REMARK  Name = 
REMARK  4 active torsions:
REMARK  status: ('A' for Active; 'I' for Inactive)
REMARK    1  A    between atoms: N_5  and  C_8
REMARK    2  A    between atoms: C_11  and  C_14
REMARK    3  A    between atoms: C_17  and  C_19
REMARK    4  A    between atoms: N_23  and  C_24
REMARK                            x       y       z     vdW  Elec       q    Type
REMARK                         _______ _______ _______ _____ _____    ______ ____
ROOT
ATOM     14  C   UNL     1      -3.382   1.890  24.494  0.00  0.00    +0.205 A 
ATOM     15  N   UNL     1      -3.408   2.411  23.855  0.00  0.00    -0.056 NA
ATOM     16  O   UNL     1      -3.310   3.176  24.145  0.00  0.00    -0.336 OA
ATOM     17  C   UNL     1      -3.223   3.129  24.965  0.00  0.00    +0.251 A 
ATOM     18  N   UNL     1      -3.268   2.334  25.180  0.00  0.00    -0.190 NA
ENDROOT
BRANCH  14  11
ATOM      8  C   UNL     1      -3.607  -0.571  24.375  0.00  0.00    +0.132 A 
ATOM      9  C   UNL     1      -4.157  -0.127  24.800  0.00  0.00    +0.034 A 
ATOM     10  C   UNL     1      -4.082   0.693  24.839  0.00  0.00    +0.008 A 
ATOM     11  C   UNL     1      -3.457   1.070  24.455  0.00  0.00    +0.058 A 
ATOM     12  C   UNL     1      -2.907   0.625  24.030  0.00  0.00    +0.103 A 
ATOM     13  N   UNL     1      -2.982  -0.196  23.990  0.00  0.00    -0.229 NA
BRANCH   8   5
ATOM      1  C   UNL     1      -3.908  -3.854  24.217  0.00  0.00    +0.090 C 
ATOM      2  N   UNL     1      -3.833  -3.033  24.256  0.00  0.00    -0.269 NA
ATOM      3  C   UNL     1      -3.324  -2.692  24.808  0.00  0.00    +0.094 C 
ATOM      4  C   UNL     1      -3.249  -1.872  24.848  0.00  0.00    +0.109 C 
ATOM      5  N   UNL     1      -3.683  -1.392  24.336  0.00  0.00    -0.290 N 
ATOM      6  C   UNL     1      -4.192  -1.734  23.783  0.00  0.00    +0.109 C 
ATOM      7  C   UNL     1      -4.267  -2.555  23.744  0.00  0.00    +0.094 C 
ENDBRANCH   8   5
ENDBRANCH  14  11
BRANCH  17  19
ATOM     19  C   UNL     1      -3.112   3.766  25.478  0.00  0.00    +0.138 C 
ATOM     20  C   UNL     1      -3.706   4.202  25.846  0.00  0.00    +0.027 C 
ATOM     21  C   UNL     1      -3.346   4.784  26.308  0.00  0.00    +0.019 C 
ATOM     22  C   UNL     1      -2.530   4.706  26.225  0.00  0.00    +0.072 C 
ATOM     23  N   UNL     1      -2.384   4.077  25.713  0.00  0.00    -0.268 NA
BRANCH  23  24
ATOM     24  C   UNL     1      -1.642   3.805  25.475  0.00  0.00    +0.063 C 
ATOM     25  C   UNL     1      -1.247   3.238  25.927  0.00  0.00    +0.048 C 
ATOM     26  C   UNL     1      -0.505   2.966  25.690  0.00  0.00    +0.144 C 
ATOM     27  O   UNL     1      -0.158   3.260  25.002  0.00  0.00    -0.354 OA
ATOM     28  C   UNL     1      -0.552   3.827  24.551  0.00  0.00    +0.144 C 
ATOM     29  C   UNL     1      -1.295   4.099  24.788  0.00  0.00    +0.048 C 
ENDBRANCH  23  24
ENDBRANCH  17  19
TORSDOF 4
ENDMDL
MODEL 2
REMARK VINA RESULT:      -9.0      1.222      2.163
REMARK  Name = 
REMARK  4 active torsions:
REMARK  status: ('A' for Active; 'I' for Inactive)
REMARK    1  A    between atoms: N_5  and  C_8
REMARK    2  A    between atoms: C_11  and  C_14
REMARK    3  A    between atoms: C_17  and  C_19
REMARK    4  A    between atoms: N_23  and  C_24
REMARK                            x       y       z     vdW  Elec       q    Type
REMARK                         _______ _______ _______ _____ _____    ______ ____
ROOT
ATOM     14  C   UNL     1      -1.385   1.675  25.344  0.00  0.00    +0.205 A 
ATOM     15  N   UNL     1      -0.895   1.840  25.987  0.00  0.00    -0.056 NA
ATOM     16  O   UNL     1      -0.707   2.643  25.965  0.00  0.00    -0.336 OA
ATOM     17  C   UNL     1      -1.082   2.974  25.308  0.00  0.00    +0.251 A 
ATOM     18  N   UNL     1      -1.500   2.376  24.926  0.00  0.00    -0.190 NA
ENDROOT
BRANCH  14  11
ATOM      8  C   UNL     1      -2.342  -0.535  24.774  0.00  0.00    +0.132 A 
ATOM      9  C   UNL     1      -2.461  -0.216  25.525  0.00  0.00    +0.034 A 
ATOM     10  C   UNL     1      -2.142   0.521  25.715  0.00  0.00    +0.008 A 
ATOM     11  C   UNL     1      -1.704   0.939  25.154  0.00  0.00    +0.058 A 
ATOM     12  C   UNL     1      -1.585   0.619  24.403  0.00  0.00    +0.103 A 
ATOM     13  N   UNL     1      -1.904  -0.118  24.212  0.00  0.00    -0.229 NA
BRANCH   8   5
ATOM      1  C   UNL     1      -3.618  -3.482  24.014  0.00  0.00    +0.090 C 
ATOM      2  N   UNL     1      -3.299  -2.745  24.204  0.00  0.00    -0.269 NA
ATOM      3  C   UNL     1      -2.501  -2.679  24.399  0.00  0.00    +0.094 C 
ATOM      4  C   UNL     1      -2.182  -1.943  24.589  0.00  0.00    +0.109 C 
ATOM      5  N   UNL     1      -2.661  -1.272  24.584  0.00  0.00    -0.290 N 
ATOM      6  C   UNL     1      -3.461  -1.338  24.389  0.00  0.00    +0.109 C 
ATOM      7  C   UNL     1      -3.780  -2.074  24.199  0.00  0.00    +0.094 C 
ENDBRANCH   8   5
ENDBRANCH  14  11
BRANCH  17  19
ATOM     19  C   UNL     1      -1.043   3.765  25.077  0.00  0.00    +0.138 C 
ATOM     20  C   UNL     1      -0.390   4.142  24.745  0.00  0.00    +0.027 C 
ATOM     21  C   UNL     1      -0.595   4.929  24.600  0.00  0.00    +0.019 C 
ATOM     22  C   UNL     1      -1.376   5.036  24.844  0.00  0.00    +0.072 C 
ATOM     23  N   UNL     1      -1.653   4.319  25.138  0.00  0.00    -0.268 NA
BRANCH  23  24
ATOM     24  C   UNL     1      -2.407   4.176  25.442  0.00  0.00    +0.063 C 
ATOM     25  C   UNL     1      -3.026   3.982  24.931  0.00  0.00    +0.048 C 
ATOM     26  C   UNL     1      -3.781   3.839  25.233  0.00  0.00    +0.144 C 
ATOM     27  O   UNL     1      -3.916   3.891  26.046  0.00  0.00    -0.354 OA
ATOM     28  C   UNL     1      -3.298   4.085  26.555  0.00  0.00    +0.144 C 
ATOM     29  C   UNL     1      -2.543   4.228  26.253  0.00  0.00    +0.048 C 
ENDBRANCH  23  24
ENDBRANCH  17  19
TORSDOF 4
ENDMDL
MODEL 3
REMARK VINA RESULT:      -8.9      3.282      5.256
REMARK  Name = 
REMARK  4 active torsions:
REMARK  status: ('A' for Active; 'I' for Inactive)
REMARK    1  A    between atoms: N_5  and  C_8
REMARK    2  A    between atoms: C_11  and  C_14
REMARK    3  A    between atoms: C_17  and  C_19
REMARK    4  A    between atoms: N_23  and  C_24
REMARK                            x       y       z     vdW  Elec       q    Type
REMARK                         _______ _______ _______ _____ _____    ______ ____
ROOT
ATOM     14  C   UNL     1      -1.346   0.340  24.686  0.00  0.00    +0.205 A 
ATOM     15  N   UNL     1      -1.456   0.199  25.491  0.00  0.00    -0.056 NA
ATOM     16  O   UNL     1      -2.262   0.249  25.652  0.00  0.00    -0.336 OA
ATOM     17  C   UNL     1      -2.653   0.421  24.945  0.00  0.00    +0.251 A 
ATOM     18  N   UNL     1      -2.086   0.478  24.349  0.00  0.00    -0.190 NA
ENDROOT
BRANCH  14  11
ATOM      8  C   UNL     1       0.822   0.350  23.491  0.00  0.00    +0.132 A 
ATOM      9  C   UNL     1       0.450  -0.366  23.665  0.00  0.00    +0.034 A 
ATOM     10  C   UNL     1      -0.272  -0.369  24.063  0.00  0.00    +0.008 A 
ATOM     11  C   UNL     1      -0.624   0.343  24.288  0.00  0.00    +0.058 A 
ATOM     12  C   UNL     1      -0.251   1.059  24.113  0.00  0.00    +0.103 A 
ATOM     13  N   UNL     1       0.471   1.062  23.715  0.00  0.00    -0.229 NA
BRANCH   8   5
ATOM      1  C   UNL     1       3.712   0.362  21.899  0.00  0.00    +0.090 C 
ATOM      2  N   UNL     1       2.989   0.359  22.297  0.00  0.00    -0.269 NA
ATOM      3  C   UNL     1       2.888   0.822  22.971  0.00  0.00    +0.094 C 
ATOM      4  C   UNL     1       2.166   0.819  23.369  0.00  0.00    +0.109 C 
ATOM      5  N   UNL     1       1.544   0.353  23.093  0.00  0.00    -0.290 N 
ATOM      6  C   UNL     1       1.645  -0.111  22.418  0.00  0.00    +0.109 C 
ATOM      7  C   UNL     1       2.368  -0.108  22.020  0.00  0.00    +0.094 C 
ENDBRANCH   8   5
ENDBRANCH  14  11
BRANCH  17  19
ATOM     19  C   UNL     1      -3.467   0.520  24.853  0.00  0.00    +0.138 C 
ATOM     20  C   UNL     1      -3.868   1.240  24.823  0.00  0.00    +0.027 C 
ATOM     21  C   UNL     1      -4.672   1.079  24.726  0.00  0.00    +0.019 C 
ATOM     22  C   UNL     1      -4.766   0.260  24.696  0.00  0.00    +0.072 C 
ATOM     23  N   UNL     1      -4.022  -0.086  24.774  0.00  0.00    -0.268 NA
BRANCH  23  24
ATOM     24  C   UNL     1      -3.860  -0.895  24.773  0.00  0.00    +0.063 C 
ATOM     25  C   UNL     1      -3.822  -1.306  24.058  0.00  0.00    +0.048 C 
ATOM     26  C   UNL     1      -3.659  -2.115  24.057  0.00  0.00    +0.144 C 
ATOM     27  O   UNL     1      -3.535  -2.513  24.770  0.00  0.00    -0.354 OA
ATOM     28  C   UNL     1      -3.573  -2.101  25.483  0.00  0.00    +0.144 C 
ATOM     29  C   UNL     1      -3.735  -1.292  25.485  0.00  0.00    +0.048 C 
ENDBRANCH  23  24
ENDBRANCH  17  19
TORSDOF 4
ENDMDL
MODEL 4
REMARK VINA RESULT:      -8.3      2.889      4.461
REMARK  Name = 
REMARK  4 active torsions:
REMARK  status: ('A' for Active; 'I' for Inactive)
REMARK    1  A    between atoms: N_5  and  C_8
REMARK    2  A    between atoms: C_11  and  C_14
REMARK    3  A    between atoms: C_17  and  C_19
REMARK    4  A    between atoms: N_23  and  C_24
REMARK                            x       y       z     vdW  Elec       q    Type
REMARK                         _______ _______ _______ _____ _____    ______ ____
ROOT
ATOM     14  C   UNL     1      -1.658   0.845  24.726  0.00  0.00    +0.205 A 
ATOM     15  N   UNL     1      -1.765   1.035  25.521  0.00  0.00    -0.056 NA
ATOM     16  O   UNL     1      -2.575   1.081  25.666  0.00  0.00    -0.336 OA
ATOM     17  C   UNL     1      -2.970   0.921  24.958  0.00  0.00    +0.251 A 
ATOM     18  N   UNL     1      -2.402   0.775  24.378  0.00  0.00    -0.190 NA
ENDROOT
BRANCH  14  11
ATOM      8  C   UNL     1       0.516   0.542  23.582  0.00  0.00    +0.132 A 
ATOM      9  C   UNL     1       0.227   1.301  23.722  0.00  0.00    +0.034 A 
ATOM     10  C   UNL     1      -0.498   1.402  24.103  0.00  0.00    +0.008 A 
ATOM     11  C   UNL     1      -0.933   0.744  24.345  0.00  0.00    +0.058 A 
ATOM     12  C   UNL     1      -0.643  -0.016  24.205  0.00  0.00    +0.103 A 
ATOM     13  N   UNL     1       0.082  -0.117  23.824  0.00  0.00    -0.229 NA
BRANCH   8   5
ATOM      1  C   UNL     1       3.415   0.137  22.058  0.00  0.00    +0.090 C 
ATOM      2  N   UNL     1       2.690   0.238  22.439  0.00  0.00    -0.269 NA
ATOM      3  C   UNL     1       2.625   0.770  23.066  0.00  0.00    +0.094 C 
ATOM      4  C   UNL     1       1.900   0.871  23.447  0.00  0.00    +0.109 C 
ATOM      5  N   UNL     1       1.241   0.441  23.201  0.00  0.00    -0.290 N 
ATOM      6  C   UNL     1       1.307  -0.091  22.573  0.00  0.00    +0.109 C 
ATOM      7  C   UNL     1       2.031  -0.193  22.192  0.00  0.00    +0.094 C 
ENDBRANCH   8   5
ENDBRANCH  14  11
BRANCH  17  19
ATOM     19  C   UNL     1      -3.788   0.908  24.852  0.00  0.00    +0.138 C 
ATOM     20  C   UNL     1      -4.269   0.239  24.864  0.00  0.00    +0.027 C 
ATOM     21  C   UNL     1      -5.047   0.482  24.734  0.00  0.00    +0.019 C 
ATOM     22  C   UNL     1      -5.046   1.301  24.643  0.00  0.00    +0.072 C 
ATOM     23  N   UNL     1      -4.269   1.566  24.715  0.00  0.00    -0.268 NA
BRANCH  23  24
ATOM     24  C   UNL     1      -4.014   2.349  24.661  0.00  0.00    +0.063 C 
ATOM     25  C   UNL     1      -3.836   2.673  23.923  0.00  0.00    +0.048 C 
ATOM     26  C   UNL     1      -3.581   3.456  23.867  0.00  0.00    +0.144 C 
ATOM     27  O   UNL     1      -3.505   3.914  24.550  0.00  0.00    -0.354 OA
ATOM     28  C   UNL     1      -3.683   3.590  25.286  0.00  0.00    +0.144 C 
ATOM     29  C   UNL     1      -3.938   2.807  25.342  0.00  0.00    +0.048 C 
ENDBRANCH  23  24
ENDBRANCH  17  19
TORSDOF 4
ENDMDL
MODEL 5
REMARK VINA RESULT:      -8.3      1.705      5.646
REMARK  Name = 
REMARK  4 active torsions:
REMARK  status: ('A' for Active; 'I' for Inactive)
REMARK    1  A    between atoms: N_5  and  C_8
REMARK    2  A    between atoms: C_11  and  C_14
REMARK    3  A    between atoms: C_17  and  C_19
REMARK    4  A    between atoms: N_23  and  C_24
REMARK                            x       y       z     vdW  Elec       q    Type
REMARK                         _______ _______ _______ _____ _____    ______ ____
ROOT
ATOM     14  C   UNL     1      -3.252   0.387  25.072  0.00  0.00    +0.205 A 
ATOM     15  N   UNL     1      -3.622   0.049  25.727  0.00  0.00    -0.056 NA
ATOM     16  O   UNL     1      -3.888  -0.701  25.511  0.00  0.00    -0.336 OA
ATOM     17  C   UNL     1      -3.682  -0.826  24.721  0.00  0.00    +0.251 A 
ATOM     18  N   UNL     1      -3.289  -0.154  24.451  0.00  0.00    -0.190 NA
ENDROOT
BRANCH  14  11
ATOM      8  C   UNL     1      -2.212   2.632  24.986  0.00  0.00    +0.132 A 
ATOM      9  C   UNL     1      -2.973   2.518  24.689  0.00  0.00    +0.034 A 
ATOM     10  C   UNL     1      -3.320   1.770  24.718  0.00  0.00    +0.008 A 
ATOM     11  C   UNL     1      -2.905   1.135  25.044  0.00  0.00    +0.058 A 
ATOM     12  C   UNL     1      -2.144   1.249  25.341  0.00  0.00    +0.103 A 
ATOM     13  N   UNL     1      -1.797   1.997  25.312  0.00  0.00    -0.229 NA
BRANCH   8   5
ATOM      1  C   UNL     1      -0.826   5.624  24.872  0.00  0.00    +0.090 C 
ATOM      2  N   UNL     1      -1.173   4.876  24.900  0.00  0.00    -0.269 NA
ATOM      3  C   UNL     1      -1.903   4.774  25.268  0.00  0.00    +0.094 C 
ATOM      4  C   UNL     1      -2.250   4.026  25.297  0.00  0.00    +0.109 C 
ATOM      5  N   UNL     1      -1.866   3.380  24.958  0.00  0.00    -0.290 N 
ATOM      6  C   UNL     1      -1.134   3.482  24.589  0.00  0.00    +0.109 C 
ATOM      7  C   UNL     1      -0.787   4.230  24.561  0.00  0.00    +0.094 C 
ENDBRANCH   8   5
ENDBRANCH  14  11
BRANCH  17  19
ATOM     19  C   UNL     1      -3.842  -1.506  24.282  0.00  0.00    +0.138 C 
ATOM     20  C   UNL     1      -4.538  -1.664  23.869  0.00  0.00    +0.027 C 
ATOM     21  C   UNL     1      -4.459  -2.403  23.510  0.00  0.00    +0.019 C 
ATOM     22  C   UNL     1      -3.714  -2.701  23.701  0.00  0.00    +0.072 C 
ATOM     23  N   UNL     1      -3.332  -2.147  24.178  0.00  0.00    -0.268 NA
BRANCH  23  24
ATOM     24  C   UNL     1      -2.574  -2.219  24.496  0.00  0.00    +0.063 C 
ATOM     25  C   UNL     1      -1.917  -2.006  24.045  0.00  0.00    +0.048 C 
ATOM     26  C   UNL     1      -1.158  -2.078  24.362  0.00  0.00    +0.144 C 
ATOM     27  O   UNL     1      -1.058  -2.363  25.130  0.00  0.00    -0.354 OA
ATOM     28  C   UNL     1      -1.715  -2.576  25.580  0.00  0.00    +0.144 C 
ATOM     29  C   UNL     1      -2.474  -2.504  25.263  0.00  0.00    +0.048 C 
ENDBRANCH  23  24
ENDBRANCH  17  19
TORSDOF 4
ENDMDL
MODEL 6
REMARK VINA RESULT:      -8.1      1.928      5.980
REMARK  Name = 
REMARK  4 active torsions:
REMARK  status: ('A' for Active; 'I' for Inactive)
REMARK    1  A    between atoms: N_5  and  C_8
REMARK    2  A    between atoms: C_11  and  C_14
REMARK    3  A    between atoms: C_17  and  C_19
REMARK    4  A    between atoms: N_23  and  C_24
REMARK                            x       y       z     vdW  Elec       q    Type
REMARK                         _______ _______ _______ _____ _____    ______ ____
ROOT
ATOM     14  C   UNL     1      -1.350   0.345  25.462  0.00  0.00    +0.205 A 
ATOM     15  N   UNL     1      -1.346  -0.075  26.172  0.00  0.00    -0.056 NA
ATOM     16  O   UNL     1      -1.366  -0.879  25.993  0.00  0.00    -0.336 OA
ATOM     17  C   UNL     1      -1.384  -0.957  25.171  0.00  0.00    +0.251 A 
ATOM     18  N   UNL     1      -1.374  -0.200  24.844  0.00  0.00    -0.190 NA
ENDROOT
BRANCH  14  11
ATOM      8  C   UNL     1      -1.302   2.808  25.229  0.00  0.00    +0.132 A 
ATOM      9  C   UNL     1      -0.695   2.421  25.631  0.00  0.00    +0.034 A 
ATOM     10  C   UNL     1      -0.711   1.599  25.709  0.00  0.00    +0.008 A 
ATOM     11  C   UNL     1      -1.334   1.166  25.385  0.00  0.00    +0.058 A 
ATOM     12  C   UNL     1      -1.941   1.555  24.982  0.00  0.00    +0.103 A 
ATOM     13  N   UNL     1      -1.925   2.376  24.905  0.00  0.00    -0.229 NA
BRANCH   8   5
ATOM      1  C   UNL     1      -1.237   6.093  24.919  0.00  0.00    +0.090 C 
ATOM      2  N   UNL     1      -1.253   5.272  24.996  0.00  0.00    -0.269 NA
ATOM      3  C   UNL     1      -0.634   4.818  24.697  0.00  0.00    +0.094 C 
ATOM      4  C   UNL     1      -0.650   3.996  24.775  0.00  0.00    +0.109 C 
ATOM      5  N   UNL     1      -1.286   3.630  25.152  0.00  0.00    -0.290 N 
ATOM      6  C   UNL     1      -1.906   4.085  25.451  0.00  0.00    +0.109 C 
ATOM      7  C   UNL     1      -1.890   4.906  25.374  0.00  0.00    +0.094 C 
ENDBRANCH   8   5
ENDBRANCH  14  11
BRANCH  17  19
ATOM     19  C   UNL     1      -1.407  -1.667  24.752  0.00  0.00    +0.138 C 
ATOM     20  C   UNL     1      -0.755  -2.109  24.509  0.00  0.00    +0.027 C 
ATOM     21  C   UNL     1      -1.033  -2.776  24.109  0.00  0.00    +0.019 C 
ATOM     22  C   UNL     1      -1.858  -2.744  24.105  0.00  0.00    +0.072 C 
ATOM     23  N   UNL     1      -2.089  -2.060  24.502  0.00  0.00    -0.268 NA
BRANCH  23  24
ATOM     24  C   UNL     1      -2.865  -1.810  24.628  0.00  0.00    +0.063 C 
ATOM     25  C   UNL     1      -3.276  -1.424  24.025  0.00  0.00    +0.048 C 
ATOM     26  C   UNL     1      -4.053  -1.174  24.150  0.00  0.00    +0.144 C 
ATOM     27  O   UNL     1      -4.418  -1.310  24.877  0.00  0.00    -0.354 OA
ATOM     28  C   UNL     1      -4.007  -1.696  25.479  0.00  0.00    +0.144 C 
ATOM     29  C   UNL     1      -3.231  -1.946  25.354  0.00  0.00    +0.048 C 
ENDBRANCH  23  24
ENDBRANCH  17  19
TORSDOF 4
ENDMDL
