MODEL 1
REMARK VINA RESULT:     -11.3      0.000      0.000
REMARK  Name = 
REMARK  8 active torsions:
REMARK  status: ('A' for Active; 'I' for Inactive)
REMARK    1  A    between atoms: C_2  and  C_4
REMARK    2  A    between atoms: C_7  and  N_8
REMARK    3  A    between atoms: C_9  and  O_11
REMARK    4  A    between atoms: O_11  and  C_12
REMARK    5  A    between atoms: C_16  and  N_20
REMARK    6  A    between atoms: C_24  and  S_25
REMARK    7  A    between atoms: S_25  and  C_26
REMARK    8  A    between atoms: C_26  and  C_27
REMARK                            x       y       z     vdW  Elec       q    Type
REMARK                         _______ _______ _______ _____ _____    ______ ____
ROOT
ATOM     12  C   UNL     1      -0.470   1.225  24.738  0.00  0.00    +0.229 C 
ATOM     13  C   UNL     1      -0.512   1.562  23.986  0.00  0.00    +0.188 C 
ATOM     14  O   UNL     1      -0.658   2.369  24.077  0.00  0.00    -0.348 OA
ATOM     15  C   UNL     1      -0.707   2.531  24.884  0.00  0.00    +0.171 C 
ATOM     16  C   UNL     1      -0.827   3.128  25.440  0.00  0.00    +0.168 C 
ATOM     17  C   UNL     1      -0.784   2.791  26.191  0.00  0.00    +0.169 C 
ATOM     18  O   UNL     1      -0.638   1.985  26.100  0.00  0.00    -0.348 OA
ATOM     19  C   UNL     1      -0.590   1.823  25.292  0.00  0.00    +0.187 C 
ENDROOT
BRANCH  16  20
ATOM     20  N   UNL     1      -0.965   3.925  25.272  0.00  0.00    -0.205 N 
ATOM     21  N   UNL     1      -0.398   4.478  25.040  0.00  0.00    -0.042 NA
ATOM     22  N   UNL     1      -0.777   5.202  24.932  0.00  0.00    -0.022 NA
ATOM     23  N   UNL     1      -1.578   5.097  25.097  0.00  0.00    -0.101 NA
ATOM     24  C   UNL     1      -1.694   4.308  25.308  0.00  0.00    +0.211 A 
BRANCH  24  25
ATOM     25  S   UNL     1      -2.414   3.962  25.517  0.00  0.00    -0.066 S 
BRANCH  25  26
ATOM     26  C   UNL     1      -3.124   4.313  25.281  0.00  0.00    +0.129 C 
BRANCH  26  27
ATOM     27  C   UNL     1      -3.830   3.892  25.341  0.00  0.00    +0.134 A 
ATOM     28  C   UNL     1      -4.248   3.555  24.715  0.00  0.00    +0.037 A 
ATOM     29  C   UNL     1      -4.920   3.189  25.025  0.00  0.00    +0.043 A 
ATOM     30  C   UNL     1      -4.917   3.300  25.841  0.00  0.00    +0.179 A 
ATOM     31  O   UNL     1      -4.244   3.734  26.038  0.00  0.00    -0.454 OA
ENDBRANCH  26  27
ENDBRANCH  25  26
ENDBRANCH  24  25
ENDBRANCH  16  20
BRANCH  12  11
ATOM     11  O   UNL     1      -0.332   0.429  24.905  0.00  0.00    -0.432 OA
BRANCH  11   9
ATOM      8  N   UNL     1      -1.253  -0.586  25.309  0.00  0.00    -0.142 NA
ATOM      9  C   UNL     1      -0.900  -0.138  24.714  0.00  0.00    +0.425 C 
ATOM     10  O   UNL     1      -1.114  -0.256  23.925  0.00  0.00    -0.224 OA
BRANCH   8   7
ATOM      4  C   UNL     1      -2.957  -2.287  24.735  0.00  0.00    +0.035 A 
ATOM      5  C   UNL     1      -2.160  -2.429  24.573  0.00  0.00    +0.004 A 
ATOM      6  C   UNL     1      -1.593  -1.862  24.764  0.00  0.00    +0.017 A 
ATOM      7  C   UNL     1      -1.821  -1.152  25.118  0.00  0.00    +0.077 A 
ATOM     32  C   UNL     1      -2.617  -1.010  25.280  0.00  0.00    +0.017 A 
ATOM     33  C   UNL     1      -3.185  -1.577  25.089  0.00  0.00    +0.004 A 
BRANCH   4   2
ATOM      1  C   UNL     1      -4.061  -2.710  23.934  0.00  0.00    +0.077 C 
ATOM      2  C   UNL     1      -3.524  -2.854  24.544  0.00  0.00    +0.173 C 
ATOM      3  O   UNL     1      -3.555  -3.565  24.961  0.00  0.00    -0.291 OA
ENDBRANCH   4   2
ENDBRANCH   8   7
ENDBRANCH  11   9
ENDBRANCH  12  11
TORSDOF 8
ENDMDL
MODEL 2
REMARK VINA RESULT:      -9.8      1.420      3.013
REMARK  Name = 
REMARK  8 active torsions:
REMARK  status: ('A' for Active; 'I' for Inactive)
REMARK    1  A    between atoms: C_2  and  C_4
REMARK    2  A    between atoms: C_7  and  N_8
REMARK    3  A    between atoms: C_9  and  O_11
REMARK    4  A    between atoms: O_11  and  C_12
REMARK    5  A    between atoms: C_16  and  N_20
REMARK    6  A    between atoms: C_24  and  S_25
REMARK    7  A    between atoms: S_25  and  C_26
REMARK    8  A    between atoms: C_26  and  C_27
REMARK                            x       y       z     vdW  Elec       q    Type
REMARK                         _______ _______ _______ _____ _____    ______ ____
ROOT
ATOM     12  C   UNL     1      -4.027   2.411  24.401  0.00  0.00    +0.229 C 
ATOM     13  C   UNL     1      -3.723   2.697  23.690  0.00  0.00    +0.188 C 
ATOM     14  O   UNL     1      -3.215   3.323  23.864  0.00  0.00    -0.348 OA
ATOM     15  C   UNL     1      -3.205   3.424  24.682  0.00  0.00    +0.171 C 
ATOM     16  C   UNL     1      -2.885   3.873  25.296  0.00  0.00    +0.168 C 
ATOM     17  C   UNL     1      -3.190   3.587  26.007  0.00  0.00    +0.169 C 
ATOM     18  O   UNL     1      -3.698   2.961  25.833  0.00  0.00    -0.348 OA
ATOM     19  C   UNL     1      -3.707   2.860  25.014  0.00  0.00    +0.187 C 
ENDROOT
BRANCH  16  20
ATOM     20  N   UNL     1      -2.354   4.498  25.213  0.00  0.00    -0.205 N 
ATOM     21  N   UNL     1      -2.551   5.288  25.075  0.00  0.00    -0.042 NA
ATOM     22  N   UNL     1      -1.851   5.722  25.030  0.00  0.00    -0.022 NA
ATOM     23  N   UNL     1      -1.221   5.201  25.140  0.00  0.00    -0.101 NA
ATOM     24  C   UNL     1      -1.532   4.445  25.253  0.00  0.00    +0.211 A 
BRANCH  24  25
ATOM     25  S   UNL     1      -1.096   3.756  25.384  0.00  0.00    -0.066 S 
BRANCH  25  26
ATOM     26  C   UNL     1      -0.328   3.691  25.088  0.00  0.00    +0.129 C 
BRANCH  26  27
ATOM     27  C   UNL     1      -0.008   2.947  24.934  0.00  0.00    +0.134 A 
ATOM     28  C   UNL     1       0.202   2.383  25.499  0.00  0.00    +0.037 A 
ATOM     29  C   UNL     1       0.498   1.724  25.102  0.00  0.00    +0.043 A 
ATOM     30  C   UNL     1       0.473   1.879  24.293  0.00  0.00    +0.179 A 
ATOM     31  O   UNL     1       0.160   2.636  24.189  0.00  0.00    -0.454 OA
ENDBRANCH  26  27
ENDBRANCH  25  26
ENDBRANCH  24  25
ENDBRANCH  16  20
BRANCH  12  11
ATOM     11  O   UNL     1      -4.559   1.785  24.485  0.00  0.00    -0.432 OA
BRANCH  11   9
ATOM      8  N   UNL     1      -4.519   0.421  24.908  0.00  0.00    -0.142 NA
ATOM      9  C   UNL     1      -4.304   1.009  24.371  0.00  0.00    +0.425 C 
ATOM     10  O   UNL     1      -3.833   0.821  23.720  0.00  0.00    -0.224 OA
BRANCH   8   7
ATOM      4  C   UNL     1      -3.753  -1.908  24.569  0.00  0.00    +0.035 A 
ATOM      5  C   UNL     1      -3.498  -1.481  25.228  0.00  0.00    +0.004 A 
ATOM      6  C   UNL     1      -3.753  -0.705  25.341  0.00  0.00    +0.017 A 
ATOM      7  C   UNL     1      -4.263  -0.355  24.795  0.00  0.00    +0.077 A 
ATOM     32  C   UNL     1      -4.518  -0.781  24.137  0.00  0.00    +0.017 A 
ATOM     33  C   UNL     1      -4.263  -1.558  24.024  0.00  0.00    +0.004 A 
BRANCH   4   2
ATOM      1  C   UNL     1      -2.729  -2.900  24.669  0.00  0.00    +0.077 C 
ATOM      2  C   UNL     1      -3.497  -2.684  24.457  0.00  0.00    +0.173 C 
ATOM      3  O   UNL     1      -4.008  -3.244  24.132  0.00  0.00    -0.291 OA
ENDBRANCH   4   2
ENDBRANCH   8   7
ENDBRANCH  11   9
ENDBRANCH  12  11
TORSDOF 8
ENDMDL
MODEL 3
REMARK VINA RESULT:      -9.6      2.322      6.139
REMARK  Name = 
REMARK  8 active torsions:
REMARK  status: ('A' for Active; 'I' for Inactive)
REMARK    1  A    between atoms: C_2  and  C_4
REMARK    2  A    between atoms: C_7  and  N_8
REMARK    3  A    between atoms: C_9  and  O_11
REMARK    4  A    between atoms: O_11  and  C_12
REMARK    5  A    between atoms: C_16  and  N_20
REMARK    6  A    between atoms: C_24  and  S_25
REMARK    7  A    between atoms: S_25  and  C_26
REMARK    8  A    between atoms: C_26  and  C_27
REMARK                            x       y       z     vdW  Elec       q    Type
REMARK                         _______ _______ _______ _____ _____    ______ ____
ROOT
ATOM     12  C   UNL     1      -4.226   1.130  24.680  0.00  0.00    +0.229 C 
ATOM     13  C   UNL     1      -4.117   1.034  23.868  0.00  0.00    +0.188 C 
ATOM     14  O   UNL     1      -4.041   0.227  23.715  0.00  0.00    -0.348 OA
ATOM     15  C   UNL     1      -4.103  -0.176  24.431  0.00  0.00    +0.171 C 
ATOM     16  C   UNL     1      -4.095  -0.923  24.781  0.00  0.00    +0.168 C 
ATOM     17  C   UNL     1      -4.204  -0.827  25.593  0.00  0.00    +0.169 C 
ATOM     18  O   UNL     1      -4.280  -0.021  25.746  0.00  0.00    -0.348 OA
ATOM     19  C   UNL     1      -4.218   0.382  25.028  0.00  0.00    +0.187 C 
ENDROOT
BRANCH  16  20
ATOM     20  N   UNL     1      -3.994  -1.641  24.386  0.00  0.00    -0.205 N 
ATOM     21  N   UNL     1      -4.566  -2.033  23.939  0.00  0.00    -0.042 NA
ATOM     22  N   UNL     1      -4.230  -2.727  23.646  0.00  0.00    -0.022 NA
ATOM     23  N   UNL     1      -3.450  -2.764  23.912  0.00  0.00    -0.101 NA
ATOM     24  C   UNL     1      -3.305  -2.093  24.370  0.00  0.00    +0.211 A 
BRANCH  24  25
ATOM     25  S   UNL     1      -2.593  -1.906  24.745  0.00  0.00    -0.066 S 
BRANCH  25  26
ATOM     26  C   UNL     1      -1.887  -2.239  24.478  0.00  0.00    +0.129 C 
BRANCH  26  27
ATOM     27  C   UNL     1      -1.170  -1.863  24.633  0.00  0.00    +0.134 A 
ATOM     28  C   UNL     1      -0.701  -1.969  25.305  0.00  0.00    +0.037 A 
ATOM     29  C   UNL     1      -0.037  -1.485  25.230  0.00  0.00    +0.043 A 
ATOM     30  C   UNL     1      -0.094  -1.080  24.515  0.00  0.00    +0.179 A 
ATOM     31  O   UNL     1      -0.794  -1.314  24.145  0.00  0.00    -0.454 OA
ENDBRANCH  26  27
ENDBRANCH  25  26
ENDBRANCH  24  25
ENDBRANCH  16  20
BRANCH  12  11
ATOM     11  O   UNL     1      -4.327   1.848  25.074  0.00  0.00    -0.432 OA
BRANCH  11   9
ATOM      8  N   UNL     1      -3.249   2.671  25.525  0.00  0.00    -0.142 NA
ATOM      9  C   UNL     1      -3.798   2.468  24.945  0.00  0.00    +0.425 C 
ATOM     10  O   UNL     1      -3.819   2.884  24.232  0.00  0.00    -0.224 OA
BRANCH   8   7
ATOM      4  C   UNL     1      -1.664   4.531  25.136  0.00  0.00    +0.035 A 
ATOM      5  C   UNL     1      -2.403   4.682  25.471  0.00  0.00    +0.004 A 
ATOM      6  C   UNL     1      -2.931   4.062  25.600  0.00  0.00    +0.017 A 
ATOM      7  C   UNL     1      -2.721   3.291  25.396  0.00  0.00    +0.077 A 
ATOM     32  C   UNL     1      -1.982   3.140  25.061  0.00  0.00    +0.017 A 
ATOM     33  C   UNL     1      -1.453   3.760  24.931  0.00  0.00    +0.004 A 
BRANCH   4   2
ATOM      1  C   UNL     1      -0.365   4.992  24.757  0.00  0.00    +0.077 C 
ATOM      2  C   UNL     1      -1.136   5.152  25.007  0.00  0.00    +0.173 C 
ATOM      3  O   UNL     1      -1.377   5.931  25.126  0.00  0.00    -0.291 OA
ENDBRANCH   4   2
ENDBRANCH   8   7
ENDBRANCH  11   9
ENDBRANCH  12  11
TORSDOF 8
ENDMDL
MODEL 4
REMARK VINA RESULT:      -8.7      1.984      5.272
REMARK  Name = 
REMARK  8 active torsions:
REMARK  status: ('A' for Active; 'I' for Inactive)
REMARK    1  A    between atoms: C_2  and  C_4
REMARK    2  A    between atoms: C_7  and  N_8
REMARK    3  A    between atoms: C_9  and  O_11
REMARK    4  A    between atoms: O_11  and  C_12
REMARK    5  A    between atoms: C_16  and  N_20
REMARK    6  A    between atoms: C_24  and  S_25
REMARK    7  A    between atoms: S_25  and  C_26
REMARK    8  A    between atoms: C_26  and  C_27
REMARK                            x       y       z     vdW  Elec       q    Type
REMARK                         _______ _______ _______ _____ _____    ______ ____
ROOT
ATOM     12  C   UNL     1      -0.223   0.517  24.503  0.00  0.00    +0.229 C 
ATOM     13  C   UNL     1      -0.388   0.309  23.722  0.00  0.00    +0.188 C 
ATOM     14  O   UNL     1      -0.839  -0.381  23.732  0.00  0.00    -0.348 OA
ATOM     15  C   UNL     1      -0.953  -0.601  24.518  0.00  0.00    +0.171 C 
ATOM     16  C   UNL     1      -1.302  -1.162  25.011  0.00  0.00    +0.168 C 
ATOM     17  C   UNL     1      -1.137  -0.955  25.792  0.00  0.00    +0.169 C 
ATOM     18  O   UNL     1      -0.686  -0.265  25.782  0.00  0.00    -0.348 OA
ATOM     19  C   UNL     1      -0.572  -0.045  24.995  0.00  0.00    +0.187 C 
ENDROOT
BRANCH  16  20
ATOM     20  N   UNL     1      -1.740  -1.818  24.765  0.00  0.00    -0.205 N 
ATOM     21  N   UNL     1      -1.434  -2.511  24.438  0.00  0.00    -0.042 NA
ATOM     22  N   UNL     1      -2.065  -3.016  24.274  0.00  0.00    -0.022 NA
ATOM     23  N   UNL     1      -2.761  -2.635  24.500  0.00  0.00    -0.101 NA
ATOM     24  C   UNL     1      -2.560  -1.895  24.803  0.00  0.00    +0.211 A 
BRANCH  24  25
ATOM     25  S   UNL     1      -3.087  -1.330  25.093  0.00  0.00    -0.066 S 
BRANCH  25  26
ATOM     26  C   UNL     1      -3.830  -1.241  24.744  0.00  0.00    +0.129 C 
BRANCH  26  27
ATOM     27  C   UNL     1      -4.238  -0.528  24.820  0.00  0.00    +0.134 A 
ATOM     28  C   UNL     1      -4.501  -0.052  24.199  0.00  0.00    +0.037 A 
ATOM     29  C   UNL     1      -4.880   0.604  24.525  0.00  0.00    +0.043 A 
ATOM     30  C   UNL     1      -4.851   0.535  25.346  0.00  0.00    +0.179 A 
ATOM     31  O   UNL     1      -4.453  -0.165  25.528  0.00  0.00    -0.454 OA
ENDBRANCH  26  27
ENDBRANCH  25  26
ENDBRANCH  24  25
ENDBRANCH  16  20
BRANCH  12  11
ATOM     11  O   UNL     1       0.214   1.172  24.749  0.00  0.00    -0.432 OA
BRANCH  11   9
ATOM      8  N   UNL     1      -0.252   2.376  25.361  0.00  0.00    -0.142 NA
ATOM      9  C   UNL     1      -0.105   1.930  24.683  0.00  0.00    +0.425 C 
ATOM     10  O   UNL     1      -0.277   2.241  23.938  0.00  0.00    -0.224 OA
BRANCH   8   7
ATOM      4  C   UNL     1      -1.209   4.650  25.165  0.00  0.00    +0.035 A 
ATOM      5  C   UNL     1      -0.451   4.495  24.877  0.00  0.00    +0.004 A 
ATOM      6  C   UNL     1      -0.132   3.737  24.943  0.00  0.00    +0.017 A 
ATOM      7  C   UNL     1      -0.571   3.134  25.296  0.00  0.00    +0.077 A 
ATOM     32  C   UNL     1      -1.328   3.289  25.582  0.00  0.00    +0.017 A 
ATOM     33  C   UNL     1      -1.647   4.047  25.517  0.00  0.00    +0.004 A 
BRANCH   4   2
ATOM      1  C   UNL     1      -2.325   5.536  25.267  0.00  0.00    +0.077 C 
ATOM      2  C   UNL     1      -1.527   5.408  25.099  0.00  0.00    +0.173 C 
ATOM      3  O   UNL     1      -1.049   6.038  24.866  0.00  0.00    -0.291 OA
ENDBRANCH   4   2
ENDBRANCH   8   7
ENDBRANCH  11   9
ENDBRANCH  12  11
TORSDOF 8
ENDMDL
MODEL 5
REMARK VINA RESULT:      -8.3      1.615      5.031
REMARK  Name = 
REMARK  8 active torsions:
REMARK  status: ('A' for Active; 'I' for Inactive)
REMARK    1  A    between atoms: C_2  and  C_4
REMARK    2  A    between atoms: C_7  and  N_8
REMARK    3  A    between atoms: C_9  and  O_11
REMARK    4  A    between atoms: O_11  and  C_12
REMARK    5  A    between atoms: C_16  and  N_20
REMARK    6  A    between atoms: C_24  and  S_25
REMARK    7  A    between atoms: S_25  and  C_26
REMARK    8  A    between atoms: C_26  and  C_27
REMARK                            x       y       z     vdW  Elec       q    Type
REMARK                         _______ _______ _______ _____ _____    ______ ____
ROOT
ATOM     12  C   UNL     1      -1.021   2.428  24.634  0.00  0.00    +0.229 C 
ATOM     13  C   UNL     1      -0.538   2.227  25.272  0.00  0.00    +0.188 C 
ATOM     14  O   UNL     1      -0.216   1.483  25.122  0.00  0.00    -0.348 OA
ATOM     15  C   UNL     1      -0.500   1.224  24.393  0.00  0.00    +0.171 C 
ATOM     16  C   UNL     1      -0.478   0.604  23.849  0.00  0.00    +0.168 C 
ATOM     17  C   UNL     1      -0.961   0.805  23.211  0.00  0.00    +0.169 C 
ATOM     18  O   UNL     1      -1.283   1.549  23.361  0.00  0.00    -0.348 OA
ATOM     19  C   UNL     1      -0.998   1.808  24.091  0.00  0.00    +0.187 C 
ENDROOT
BRANCH  16  20
ATOM     20  N   UNL     1      -0.046  -0.095  23.929  0.00  0.00    -0.205 N 
ATOM     21  N   UNL     1       0.758  -0.191  23.769  0.00  0.00    -0.042 NA
ATOM     22  N   UNL     1       0.957  -0.976  23.924  0.00  0.00    -0.022 NA
ATOM     23  N   UNL     1       0.277  -1.366  24.179  0.00  0.00    -0.101 NA
ATOM     24  C   UNL     1      -0.343  -0.822  24.181  0.00  0.00    +0.211 A 
BRANCH  24  25
ATOM     25  S   UNL     1      -1.124  -0.978  24.399  0.00  0.00    -0.066 S 
BRANCH  25  26
ATOM     26  C   UNL     1      -1.344  -1.739  24.629  0.00  0.00    +0.129 C 
BRANCH  26  27
ATOM     27  C   UNL     1      -2.133  -1.904  24.805  0.00  0.00    +0.134 A 
ATOM     28  C   UNL     1      -2.597  -2.487  24.449  0.00  0.00    +0.037 A 
ATOM     29  C   UNL     1      -3.347  -2.458  24.791  0.00  0.00    +0.043 A 
ATOM     30  C   UNL     1      -3.348  -1.860  25.358  0.00  0.00    +0.179 A 
ATOM     31  O   UNL     1      -2.597  -1.517  25.366  0.00  0.00    -0.454 OA
ENDBRANCH  26  27
ENDBRANCH  25  26
ENDBRANCH  24  25
ENDBRANCH  16  20
BRANCH  12  11
ATOM     11  O   UNL     1      -1.452   3.127  24.555  0.00  0.00    -0.432 OA
BRANCH  11   9
ATOM      8  N   UNL     1      -2.865   3.271  24.394  0.00  0.00    -0.142 NA
ATOM      9  C   UNL     1      -2.207   3.187  24.884  0.00  0.00    +0.425 C 
ATOM     10  O   UNL     1      -2.301   3.163  25.703  0.00  0.00    -0.224 OA
BRANCH   8   7
ATOM      4  C   UNL     1      -5.128   3.450  25.381  0.00  0.00    +0.035 A 
ATOM      5  C   UNL     1      -4.904   2.762  24.983  0.00  0.00    +0.004 A 
ATOM      6  C   UNL     1      -4.150   2.703  24.654  0.00  0.00    +0.017 A 
ATOM      7  C   UNL     1      -3.619   3.331  24.723  0.00  0.00    +0.077 A 
ATOM     32  C   UNL     1      -3.843   4.018  25.121  0.00  0.00    +0.017 A 
ATOM     33  C   UNL     1      -4.597   4.078  25.450  0.00  0.00    +0.004 A 
BRANCH   4   2
ATOM      1  C   UNL     1      -6.283   2.827  25.946  0.00  0.00    +0.077 C 
ATOM      2  C   UNL     1      -5.882   3.509  25.710  0.00  0.00    +0.173 C 
ATOM      3  O   UNL     1      -6.235   4.249  25.803  0.00  0.00    -0.291 OA
ENDBRANCH   4   2
ENDBRANCH   8   7
ENDBRANCH  11   9
ENDBRANCH  12  11
TORSDOF 8
ENDMDL
MODEL 6
REMARK VINA RESULT:      -8.2      3.235      5.143
REMARK  Name = 
REMARK  8 active torsions:
REMARK  status: ('A' for Active; 'I' for Inactive)
REMARK    1  A    between atoms: C_2  and  C_4
REMARK    2  A    between atoms: C_7  and  N_8
REMARK    3  A    between atoms: C_9  and  O_11
REMARK    4  A    between atoms: O_11  and  C_12
REMARK    5  A    between atoms: C_16  and  N_20
REMARK    6  A    between atoms: C_24  and  S_25
REMARK    7  A    between atoms: S_25  and  C_26
REMARK    8  A    between atoms: C_26  and  C_27
REMARK                            x       y       z     vdW  Elec       q    Type
REMARK                         _______ _______ _______ _____ _____    ______ ____
ROOT
ATOM     12  C   UNL     1       0.123   0.720  23.487  0.00  0.00    +0.229 C 
ATOM     13  C   UNL     1       0.222   0.672  24.304  0.00  0.00    +0.188 C 
ATOM     14  O   UNL     1      -0.471   0.940  24.661  0.00  0.00    -0.348 OA
ATOM     15  C   UNL     1      -0.999   1.154  24.065  0.00  0.00    +0.171 C 
ATOM     16  C   UNL     1      -1.753   1.453  23.916  0.00  0.00    +0.168 C 
ATOM     17  C   UNL     1      -1.853   1.501  23.099  0.00  0.00    +0.169 C 
ATOM     18  O   UNL     1      -1.160   1.232  22.742  0.00  0.00    -0.348 OA
ATOM     19  C   UNL     1      -0.632   1.018  23.339  0.00  0.00    +0.187 C 
ENDROOT
BRANCH  16  20
ATOM     20  N   UNL     1      -2.311   1.665  24.486  0.00  0.00    -0.205 N 
ATOM     21  N   UNL     1      -2.310   2.361  24.931  0.00  0.00    -0.042 NA
ATOM     22  N   UNL     1      -2.966   2.345  25.431  0.00  0.00    -0.022 NA
ATOM     23  N   UNL     1      -3.372   1.641  25.295  0.00  0.00    -0.101 NA
ATOM     24  C   UNL     1      -2.968   1.221  24.711  0.00  0.00    +0.211 A 
BRANCH  24  25
ATOM     25  S   UNL     1      -3.183   0.485  24.407  0.00  0.00    -0.066 S 
BRANCH  25  26
ATOM     26  C   UNL     1      -3.746   0.024  24.798  0.00  0.00    +0.129 C 
BRANCH  26  27
ATOM     27  C   UNL     1      -3.867  -0.759  24.570  0.00  0.00    +0.134 A 
ATOM     28  C   UNL     1      -3.635  -1.428  24.993  0.00  0.00    +0.037 A 
ATOM     29  C   UNL     1      -3.867  -2.094  24.564  0.00  0.00    +0.043 A 
ATOM     30  C   UNL     1      -4.242  -1.837  23.877  0.00  0.00    +0.179 A 
ATOM     31  O   UNL     1      -4.243  -1.011  23.881  0.00  0.00    -0.454 OA
ENDBRANCH  26  27
ENDBRANCH  25  26
ENDBRANCH  24  25
ENDBRANCH  16  20
BRANCH  12  11
ATOM     11  O   UNL     1       0.681   0.507  22.917  0.00  0.00    -0.432 OA
BRANCH  11   9
ATOM      8  N   UNL     1       2.024   0.104  22.644  0.00  0.00    -0.142 NA
ATOM      9  C   UNL     1       1.485   0.534  23.096  0.00  0.00    +0.425 C 
ATOM     10  O   UNL     1       1.751   0.992  23.730  0.00  0.00    -0.224 OA
BRANCH   8   7
ATOM      4  C   UNL     1       4.438   0.183  23.184  0.00  0.00    +0.035 A 
ATOM      5  C   UNL     1       3.991  -0.479  23.391  0.00  0.00    +0.004 A 
ATOM      6  C   UNL     1       3.186  -0.505  23.211  0.00  0.00    +0.017 A 
ATOM      7  C   UNL     1       2.829   0.130  22.824  0.00  0.00    +0.077 A 
ATOM     32  C   UNL     1       3.276   0.791  22.617  0.00  0.00    +0.017 A 
ATOM     33  C   UNL     1       4.081   0.818  22.797  0.00  0.00    +0.004 A 
BRANCH   4   2
ATOM      1  C   UNL     1       5.491   0.476  24.104  0.00  0.00    +0.077 C 
ATOM      2  C   UNL     1       5.243   0.209  23.364  0.00  0.00    +0.173 C 
ATOM      3  O   UNL     1       5.799  -0.032  22.805  0.00  0.00    -0.291 OA
ENDBRANCH   4   2
ENDBRANCH   8   7
ENDBRANCH  11   9
ENDBRANCH  12  11
TORSDOF 8
ENDMDL
MODEL 7
REMARK VINA RESULT:      -8.2      3.123      4.881
REMARK  Name = 
REMARK  8 active torsions:
REMARK  status: ('A' for Active; 'I' for Inactive)
REMARK    1  A    between atoms: C_2  and  C_4
REMARK    2  A    between atoms: C_7  and  N_8
REMARK    3  A    between atoms: C_9  and  O_11
REMARK    4  A    between atoms: O_11  and  C_12
REMARK    5  A    between atoms: C_16  and  N_20
REMARK    6  A    between atoms: C_24  and  S_25
REMARK    7  A    between atoms: S_25  and  C_26
REMARK    8  A    between atoms: C_26  and  C_27
REMARK                            x       y       z     vdW  Elec       q    Type
REMARK                         _______ _______ _______ _____ _____    ______ ____
ROOT
ATOM     12  C   UNL     1       0.019   0.268  23.376  0.00  0.00    +0.229 C 
ATOM     13  C   UNL     1      -0.014  -0.070  24.128  0.00  0.00    +0.188 C 
ATOM     14  O   UNL     1      -0.705   0.193  24.494  0.00  0.00    -0.348 OA
ATOM     15  C   UNL     1      -1.098   0.693  23.970  0.00  0.00    +0.171 C 
ATOM     16  C   UNL     1      -1.768   1.164  23.871  0.00  0.00    +0.168 C 
ATOM     17  C   UNL     1      -1.734   1.502  23.119  0.00  0.00    +0.169 C 
ATOM     18  O   UNL     1      -1.043   1.239  22.753  0.00  0.00    -0.348 OA
ATOM     19  C   UNL     1      -0.650   0.739  23.278  0.00  0.00    +0.187 C 
ENDROOT
BRANCH  16  20
ATOM     20  N   UNL     1      -2.367   1.278  24.427  0.00  0.00    -0.205 N 
ATOM     21  N   UNL     1      -2.923   0.716  24.663  0.00  0.00    -0.042 NA
ATOM     22  N   UNL     1      -3.414   1.065  25.227  0.00  0.00    -0.022 NA
ATOM     23  N   UNL     1      -3.162   1.842  25.339  0.00  0.00    -0.101 NA
ATOM     24  C   UNL     1      -2.514   1.974  24.845  0.00  0.00    +0.211 A 
BRANCH  24  25
ATOM     25  S   UNL     1      -2.090   2.678  24.780  0.00  0.00    -0.066 S 
BRANCH  25  26
ATOM     26  C   UNL     1      -2.247   3.304  25.294  0.00  0.00    +0.129 C 
BRANCH  26  27
ATOM     27  C   UNL     1      -1.835   4.015  25.217  0.00  0.00    +0.134 A 
ATOM     28  C   UNL     1      -2.159   4.772  25.272  0.00  0.00    +0.037 A 
ATOM     29  C   UNL     1      -1.551   5.317  25.160  0.00  0.00    +0.043 A 
ATOM     30  C   UNL     1      -0.851   4.899  25.037  0.00  0.00    +0.179 A 
ATOM     31  O   UNL     1      -1.027   4.093  25.072  0.00  0.00    -0.454 OA
ENDBRANCH  26  27
ENDBRANCH  25  26
ENDBRANCH  24  25
ENDBRANCH  16  20
BRANCH  12  11
ATOM     11  O   UNL     1       0.618   0.154  22.820  0.00  0.00    -0.432 OA
BRANCH  11   9
ATOM      8  N   UNL     1       2.009  -0.059  22.569  0.00  0.00    -0.142 NA
ATOM      9  C   UNL     1       1.408   0.257  23.036  0.00  0.00    +0.425 C 
ATOM     10  O   UNL     1       1.595   0.678  23.721  0.00  0.00    -0.224 OA
BRANCH   8   7
ATOM      4  C   UNL     1       4.377   0.250  23.217  0.00  0.00    +0.035 A 
ATOM      5  C   UNL     1       3.990  -0.457  23.394  0.00  0.00    +0.004 A 
ATOM      6  C   UNL     1       3.200  -0.560  23.177  0.00  0.00    +0.017 A 
ATOM      7  C   UNL     1       2.798   0.044  22.785  0.00  0.00    +0.077 A 
ATOM     32  C   UNL     1       3.185   0.750  22.609  0.00  0.00    +0.017 A 
ATOM     33  C   UNL     1       3.975   0.854  22.825  0.00  0.00    +0.004 A 
BRANCH   4   2
ATOM      1  C   UNL     1       5.743  -0.163  23.147  0.00  0.00    +0.077 C 
ATOM      2  C   UNL     1       5.166   0.353  23.434  0.00  0.00    +0.173 C 
ATOM      3  O   UNL     1       5.380   0.970  23.937  0.00  0.00    -0.291 OA
ENDBRANCH   4   2
ENDBRANCH   8   7
ENDBRANCH  11   9
ENDBRANCH  12  11
TORSDOF 8
ENDMDL
MODEL 8
REMARK VINA RESULT:      -8.2      2.143      3.421
REMARK  Name = 
REMARK  8 active torsions:
REMARK  status: ('A' for Active; 'I' for Inactive)
REMARK    1  A    between atoms: C_2  and  C_4
REMARK    2  A    between atoms: C_7  and  N_8
REMARK    3  A    between atoms: C_9  and  O_11
REMARK    4  A    between atoms: O_11  and  C_12
REMARK    5  A    between atoms: C_16  and  N_20
REMARK    6  A    between atoms: C_24  and  S_25
REMARK    7  A    between atoms: S_25  and  C_26
REMARK    8  A    between atoms: C_26  and  C_27
REMARK                            x       y       z     vdW  Elec       q    Type
REMARK                         _______ _______ _______ _____ _____    ______ ____
ROOT
ATOM     12  C   UNL     1      -4.757   0.549  24.870  0.00  0.00    +0.229 C 
ATOM     13  C   UNL     1      -5.069   0.637  25.628  0.00  0.00    +0.188 C 
ATOM     14  O   UNL     1      -5.140   1.444  25.782  0.00  0.00    -0.348 OA
ATOM     15  C   UNL     1      -4.872   1.855  25.119  0.00  0.00    +0.171 C 
ATOM     16  C   UNL     1      -4.750   2.607  24.803  0.00  0.00    +0.168 C 
ATOM     17  C   UNL     1      -4.438   2.519  24.045  0.00  0.00    +0.169 C 
ATOM     18  O   UNL     1      -4.367   1.712  23.891  0.00  0.00    -0.348 OA
ATOM     19  C   UNL     1      -4.635   1.301  24.555  0.00  0.00    +0.187 C 
ENDROOT
BRANCH  16  20
ATOM     20  N   UNL     1      -4.912   3.323  25.181  0.00  0.00    -0.205 N 
ATOM     21  N   UNL     1      -5.658   3.598  25.401  0.00  0.00    -0.042 NA
ATOM     22  N   UNL     1      -5.563   4.334  25.761  0.00  0.00    -0.022 NA
ATOM     23  N   UNL     1      -4.759   4.514  25.763  0.00  0.00    -0.101 NA
ATOM     24  C   UNL     1      -4.356   3.889  25.405  0.00  0.00    +0.211 A 
BRANCH  24  25
ATOM     25  S   UNL     1      -3.540   3.840  25.291  0.00  0.00    -0.066 S 
BRANCH  25  26
ATOM     26  C   UNL     1      -3.036   4.358  25.690  0.00  0.00    +0.129 C 
BRANCH  26  27
ATOM     27  C   UNL     1      -2.228   4.355  25.524  0.00  0.00    +0.134 A 
ATOM     28  C   UNL     1      -1.803   4.969  25.171  0.00  0.00    +0.037 A 
ATOM     29  C   UNL     1      -1.015   4.731  25.111  0.00  0.00    +0.043 A 
ATOM     30  C   UNL     1      -0.953   3.972  25.426  0.00  0.00    +0.179 A 
ATOM     31  O   UNL     1      -1.702   3.739  25.682  0.00  0.00    -0.454 OA
ENDBRANCH  26  27
ENDBRANCH  25  26
ENDBRANCH  24  25
ENDBRANCH  16  20
BRANCH  12  11
ATOM     11  O   UNL     1      -4.595  -0.167  24.492  0.00  0.00    -0.432 OA
BRANCH  11   9
ATOM      8  N   UNL     1      -3.323  -0.737  24.178  0.00  0.00    -0.142 NA
ATOM      9  C   UNL     1      -3.936  -0.611  24.714  0.00  0.00    +0.425 C 
ATOM     10  O   UNL     1      -3.892  -0.931  25.474  0.00  0.00    -0.224 OA
BRANCH   8   7
ATOM      4  C   UNL     1      -1.346  -2.069  24.846  0.00  0.00    +0.035 A 
ATOM      5  C   UNL     1      -1.305  -1.245  24.837  0.00  0.00    +0.004 A 
ATOM      6  C   UNL     1      -1.963  -0.801  24.614  0.00  0.00    +0.017 A 
ATOM      7  C   UNL     1      -2.664  -1.181  24.401  0.00  0.00    +0.077 A 
ATOM     32  C   UNL     1      -2.705  -2.005  24.410  0.00  0.00    +0.017 A 
ATOM     33  C   UNL     1      -2.047  -2.449  24.632  0.00  0.00    +0.004 A 
BRANCH   4   2
ATOM      1  C   UNL     1       0.003  -2.132  25.311  0.00  0.00    +0.077 C 
ATOM      2  C   UNL     1      -0.687  -2.513  25.068  0.00  0.00    +0.173 C 
ATOM      3  O   UNL     1      -0.718  -3.337  25.048  0.00  0.00    -0.291 OA
ENDBRANCH   4   2
ENDBRANCH   8   7
ENDBRANCH  11   9
ENDBRANCH  12  11
TORSDOF 8
ENDMDL
MODEL 9
REMARK VINA RESULT:      -7.9      2.315      3.775
REMARK  Name = 
REMARK  8 active torsions:
REMARK  status: ('A' for Active; 'I' for Inactive)
REMARK    1  A    between atoms: C_2  and  C_4
REMARK    2  A    between atoms: C_7  and  N_8
REMARK    3  A    between atoms: C_9  and  O_11
REMARK    4  A    between atoms: O_11  and  C_12
REMARK    5  A    between atoms: C_16  and  N_20
REMARK    6  A    between atoms: C_24  and  S_25
REMARK    7  A    between atoms: S_25  and  C_26
REMARK    8  A    between atoms: C_26  and  C_27
REMARK                            x       y       z     vdW  Elec       q    Type
REMARK                         _______ _______ _______ _____ _____    ______ ____
ROOT
ATOM     12  C   UNL     1      -1.254   1.066  24.424  0.00  0.00    +0.229 C 
ATOM     13  C   UNL     1      -1.107   1.083  25.235  0.00  0.00    +0.188 C 
ATOM     14  O   UNL     1      -1.489   1.742  25.550  0.00  0.00    -0.348 OA
ATOM     15  C   UNL     1      -1.873   2.133  24.934  0.00  0.00    +0.171 C 
ATOM     16  C   UNL     1      -2.347   2.782  24.746  0.00  0.00    +0.168 C 
ATOM     17  C   UNL     1      -2.494   2.765  23.935  0.00  0.00    +0.169 C 
ATOM     18  O   UNL     1      -2.112   2.105  23.620  0.00  0.00    -0.348 OA
ATOM     19  C   UNL     1      -1.728   1.715  24.238  0.00  0.00    +0.187 C 
ENDROOT
BRANCH  16  20
ATOM     20  N   UNL     1      -2.624   3.349  25.277  0.00  0.00    -0.205 N 
ATOM     21  N   UNL     1      -2.164   3.904  25.680  0.00  0.00    -0.042 NA
ATOM     22  N   UNL     1      -2.666   4.358  26.151  0.00  0.00    -0.022 NA
ATOM     23  N   UNL     1      -3.436   4.085  26.040  0.00  0.00    -0.101 NA
ATOM     24  C   UNL     1      -3.410   3.461  25.500  0.00  0.00    +0.211 A 
BRANCH  24  25
ATOM     25  S   UNL     1      -4.058   3.026  25.231  0.00  0.00    -0.066 S 
BRANCH  25  26
ATOM     26  C   UNL     1      -4.795   3.119  25.589  0.00  0.00    +0.129 C 
BRANCH  26  27
ATOM     27  C   UNL     1      -5.397   2.575  25.440  0.00  0.00    +0.134 A 
ATOM     28  C   UNL     1      -5.806   2.137  26.008  0.00  0.00    +0.037 A 
ATOM     29  C   UNL     1      -6.357   1.664  25.616  0.00  0.00    +0.043 A 
ATOM     30  C   UNL     1      -6.289   1.809  24.808  0.00  0.00    +0.179 A 
ATOM     31  O   UNL     1      -5.696   2.372  24.699  0.00  0.00    -0.454 OA
ENDBRANCH  26  27
ENDBRANCH  25  26
ENDBRANCH  24  25
ENDBRANCH  16  20
BRANCH  12  11
ATOM     11  O   UNL     1      -0.977   0.499  23.892  0.00  0.00    -0.432 OA
BRANCH  11   9
ATOM      8  N   UNL     1       0.223   0.639  23.129  0.00  0.00    -0.142 NA
ATOM      9  C   UNL     1      -0.166   0.375  23.807  0.00  0.00    +0.425 C 
ATOM     10  O   UNL     1       0.257  -0.012  24.401  0.00  0.00    -0.224 OA
BRANCH   8   7
ATOM      4  C   UNL     1       2.656   0.267  22.871  0.00  0.00    +0.035 A 
ATOM      5  C   UNL     1       2.120  -0.269  22.545  0.00  0.00    +0.004 A 
ATOM      6  C   UNL     1       1.309  -0.144  22.631  0.00  0.00    +0.017 A 
ATOM      7  C   UNL     1       1.034   0.515  23.043  0.00  0.00    +0.077 A 
ATOM     32  C   UNL     1       1.570   1.050  23.369  0.00  0.00    +0.017 A 
ATOM     33  C   UNL     1       2.381   0.927  23.283  0.00  0.00    +0.004 A 
BRANCH   4   2
ATOM      1  C   UNL     1       3.936   0.717  22.421  0.00  0.00    +0.077 C 
ATOM      2  C   UNL     1       3.467   0.143  22.785  0.00  0.00    +0.173 C 
ATOM      3  O   UNL     1       3.810  -0.554  23.062  0.00  0.00    -0.291 OA
ENDBRANCH   4   2
ENDBRANCH   8   7
ENDBRANCH  11   9
ENDBRANCH  12  11
TORSDOF 8
ENDMDL
MODEL 10
REMARK VINA RESULT:      -7.5      2.405      4.103
REMARK  Name = 
REMARK  8 active torsions:
REMARK  status: ('A' for Active; 'I' for Inactive)
REMARK    1  A    between atoms: C_2  and  C_4
REMARK    2  A    between atoms: C_7  and  N_8
REMARK    3  A    between atoms: C_9  and  O_11
REMARK    4  A    between atoms: O_11  and  C_12
REMARK    5  A    between atoms: C_16  and  N_20
REMARK    6  A    between atoms: C_24  and  S_25
REMARK    7  A    between atoms: S_25  and  C_26
REMARK    8  A    between atoms: C_26  and  C_27
REMARK                            x       y       z     vdW  Elec       q    Type
REMARK                         _______ _______ _______ _____ _____    ______ ____
ROOT
ATOM     12  C   UNL     1      -1.885   0.194  24.450  0.00  0.00    +0.229 C 
ATOM     13  C   UNL     1      -1.901   0.225  25.274  0.00  0.00    +0.188 C 
ATOM     14  O   UNL     1      -2.460   0.790  25.496  0.00  0.00    -0.348 OA
ATOM     15  C   UNL     1      -2.789   1.107  24.811  0.00  0.00    +0.171 C 
ATOM     16  C   UNL     1      -3.338   1.652  24.523  0.00  0.00    +0.168 C 
ATOM     17  C   UNL     1      -3.322   1.621  23.699  0.00  0.00    +0.169 C 
ATOM     18  O   UNL     1      -2.763   1.056  23.477  0.00  0.00    -0.348 OA
ATOM     19  C   UNL     1      -2.434   0.739  24.164  0.00  0.00    +0.187 C 
ENDROOT
BRANCH  16  20
ATOM     20  N   UNL     1      -3.819   2.142  24.981  0.00  0.00    -0.205 N 
ATOM     21  N   UNL     1      -4.549   1.938  25.308  0.00  0.00    -0.042 NA
ATOM     22  N   UNL     1      -4.835   2.592  25.721  0.00  0.00    -0.022 NA
ATOM     23  N   UNL     1      -4.283   3.200  25.648  0.00  0.00    -0.101 NA
ATOM     24  C   UNL     1      -3.655   2.922  25.191  0.00  0.00    +0.211 A 
BRANCH  24  25
ATOM     25  S   UNL     1      -2.981   3.350  24.981  0.00  0.00    -0.066 S 
BRANCH  25  26
ATOM     26  C   UNL     1      -2.734   3.985  25.447  0.00  0.00    +0.129 C 
BRANCH  26  27
ATOM     27  C   UNL     1      -2.027   4.373  25.273  0.00  0.00    +0.134 A 
ATOM     28  C   UNL     1      -1.946   5.172  25.084  0.00  0.00    +0.037 A 
ATOM     29  C   UNL     1      -1.146   5.322  24.951  0.00  0.00    +0.043 A 
ATOM     30  C   UNL     1      -0.732   4.617  25.059  0.00  0.00    +0.179 A 
ATOM     31  O   UNL     1      -1.277   4.030  25.258  0.00  0.00    -0.454 OA
ENDBRANCH  26  27
ENDBRANCH  25  26
ENDBRANCH  24  25
ENDBRANCH  16  20
BRANCH  12  11
ATOM     11  O   UNL     1      -1.404  -0.296  23.992  0.00  0.00    -0.432 OA
BRANCH  11   9
ATOM      8  N   UNL     1      -0.276   0.126  23.223  0.00  0.00    -0.142 NA
ATOM      9  C   UNL     1      -0.595  -0.143  23.934  0.00  0.00    +0.425 C 
ATOM     10  O   UNL     1      -0.105  -0.260  24.588  0.00  0.00    -0.224 OA
BRANCH   8   7
ATOM      4  C   UNL     1       2.150   0.586  23.048  0.00  0.00    +0.035 A 
ATOM      5  C   UNL     1       1.649   1.139  23.400  0.00  0.00    +0.004 A 
ATOM      6  C   UNL     1       0.841   0.986  23.458  0.00  0.00    +0.017 A 
ATOM      7  C   UNL     1       0.532   0.279  23.164  0.00  0.00    +0.077 A 
ATOM     32  C   UNL     1       1.033  -0.273  22.812  0.00  0.00    +0.017 A 
ATOM     33  C   UNL     1       1.841  -0.121  22.754  0.00  0.00    +0.004 A 
BRANCH   4   2
ATOM      1  C   UNL     1       3.439   0.249  22.532  0.00  0.00    +0.077 C 
ATOM      2  C   UNL     1       2.958   0.740  22.990  0.00  0.00    +0.173 C 
ATOM      3  O   UNL     1       3.286   1.383  23.389  0.00  0.00    -0.291 OA
ENDBRANCH   4   2
ENDBRANCH   8   7
ENDBRANCH  11   9
ENDBRANCH  12  11
TORSDOF 8
ENDMDL
