REMARK  Name = 
REMARK  3 active torsions:
REMARK  status: ('A' for Active; 'I' for Inactive)
REMARK    1  A    between atoms: S_2  and  C_3
REMARK    2  A    between atoms: C_3  and  C_4
REMARK    3  A    between atoms: C_13  and  C_20
REMARK                            x       y       z     vdW  Elec       q    Type
REMARK                         _______ _______ _______ _____ _____    ______ ____
ROOT
ATOM      4  C   UNL     1       0.125  -2.547   0.000  0.00  0.00    +0.237 C 
ATOM      5  O   UNL     1       0.176  -3.370   0.000  0.00  0.00    -0.274 OA
ATOM      6  N   UNL     1       0.813  -2.091   0.000  0.00  0.00    -0.278 N 
ATOM      7  C   UNL     1       1.629  -1.912   0.000  0.00  0.00    +0.095 C 
ATOM      8  C   UNL     1       1.582  -0.925   0.000  0.00  0.00    +0.043 C 
ATOM      9  C   UNL     1       1.713  -0.121   0.000  0.00  0.00    +0.011 C 
ATOM     10  C   UNL     1       1.163  -0.557   0.000  0.00  0.00    +0.058 C 
ATOM     11  C   UNL     1       1.225  -1.510   0.000  0.00  0.00    +0.099 C 
ATOM     12  C   UNL     1       0.244  -0.558   0.000  0.00  0.00    +0.042 A 
ATOM     13  C   UNL     1      -0.397  -0.039   0.000  0.00  0.00    +0.018 A 
ATOM     14  C   UNL     1      -1.167  -0.335   0.000  0.00  0.00    +0.006 A 
ATOM     15  C   UNL     1      -1.296  -1.150   0.000  0.00  0.00    +0.061 A 
ATOM     16  C   UNL     1      -0.655  -1.669   0.000  0.00  0.00    +0.261 A 
ATOM     17  O   UNL     1      -1.238  -2.252   0.000  0.00  0.00    -0.267 OA
ATOM     18  N   UNL     1       0.115  -1.373   0.000  0.00  0.00    -0.299 N 
ATOM     19  C   UNL     1       0.622  -0.936   0.000  0.00  0.00    +0.110 C 
ENDROOT
BRANCH  13  20
ATOM     20  C   UNL     1      -0.268   0.776   0.000  0.00  0.00    +0.031 A 
ATOM     21  C   UNL     1      -0.851   1.359   0.000  0.00  0.00    +0.007 A 
ATOM     22  C   UNL     1      -0.477   2.094   0.000  0.00  0.00    +0.007 A 
ATOM     23  C   UNL     1       0.338   1.965   0.000  0.00  0.00    +0.035 A 
ATOM     24  S   UNL     1       0.467   1.151   0.000  0.00  0.00    -0.086 S 
ENDBRANCH  13  20
BRANCH   4   3
ATOM      3  C   UNL     1      -0.614  -2.179   0.000  0.00  0.00    +0.143 C 
BRANCH   3   2
ATOM      1  C   UNL     1      -1.251  -3.458   0.000  0.00  0.00    +0.070 C 
ATOM      2  S   UNL     1      -1.301  -2.635   0.000  0.00  0.00    -0.130 S 
ENDBRANCH   3   2
ENDBRANCH   4   3
TORSDOF 3
