MODEL 1
REMARK VINA RESULT:     -12.3      0.000      0.000
REMARK  Name = 
REMARK  4 active torsions:
REMARK  status: ('A' for Active; 'I' for Inactive)
REMARK    1  A    between atoms: C_2  and  C_4
REMARK    2  A    between atoms: C_7  and  N_8
REMARK    3  A    between atoms: N_11  and  C_12
REMARK    4  A    between atoms: N_24  and  C_25
REMARK                            x       y       z     vdW  Elec       q    Type
REMARK                         _______ _______ _______ _____ _____    ______ ____
ROOT
ATOM     12  C   UNL     1      -3.863   1.766  23.963  0.00  0.00    +0.131 A 
ATOM     13  C   UNL     1      -4.597   1.675  24.328  0.00  0.00    +0.023 A 
ATOM     14  C   UNL     1      -4.822   2.186  24.936  0.00  0.00    +0.014 A 
ATOM     15  C   UNL     1      -4.312   2.788  25.178  0.00  0.00    +0.041 A 
ATOM     16  C   UNL     1      -4.259   3.479  25.781  0.00  0.00    +0.058 C 
ATOM     17  C   UNL     1      -4.624   3.792  26.293  0.00  0.00    +0.011 C 
ATOM     18  C   UNL     1      -3.900   3.879  25.930  0.00  0.00    +0.043 C 
ATOM     19  C   UNL     1      -2.999   4.141  25.620  0.00  0.00    +0.097 C 
ATOM     20  N   UNL     1      -2.884   3.569  25.023  0.00  0.00    -0.262 N 
ATOM     21  C   UNL     1      -3.389   3.745  25.494  0.00  0.00    +0.101 C 
ATOM     22  C   UNL     1      -2.509   3.156  24.414  0.00  0.00    +0.323 C 
ATOM     23  O   UNL     1      -2.887   2.516  24.056  0.00  0.00    -0.251 OA
ATOM     24  N   UNL     1      -1.757   3.384  24.164  0.00  0.00    -0.190 NA
ATOM     31  C   UNL     1      -3.946   3.159  25.296  0.00  0.00    +0.110 C 
ATOM     32  N   UNL     1      -3.578   2.878  24.812  0.00  0.00    -0.298 N 
ATOM     33  C   UNL     1      -3.353   2.367  24.205  0.00  0.00    +0.276 A 
ATOM     34  O   UNL     1      -2.706   2.256  23.706  0.00  0.00    -0.266 OA
ENDROOT
BRANCH  24  25
ATOM     25  C   UNL     1      -1.379   4.024  24.521  0.00  0.00    +0.097 C 
ATOM     26  C   UNL     1      -1.518   4.790  24.249  0.00  0.00    +0.022 C 
ATOM     27  C   UNL     1      -1.141   5.430  24.606  0.00  0.00    +0.002 C 
ATOM     28  C   UNL     1      -0.623   5.305  25.237  0.00  0.00    +0.000 C 
ATOM     29  C   UNL     1      -0.484   4.539  25.509  0.00  0.00    +0.002 C 
ATOM     30  C   UNL     1      -0.861   3.899  25.152  0.00  0.00    +0.022 C 
ENDBRANCH  24  25
BRANCH  12  11
ATOM      8  N   UNL     1      -3.743   0.145  24.250  0.00  0.00    -0.161 NA
ATOM      9  C   UNL     1      -3.579   0.445  23.499  0.00  0.00    +0.348 C 
ATOM     10  O   UNL     1      -3.355  -0.067  22.890  0.00  0.00    -0.248 OA
ATOM     11  N   UNL     1      -3.639   1.255  23.356  0.00  0.00    -0.156 NA
BRANCH   8   7
ATOM      4  C   UNL     1      -3.560  -2.285  24.679  0.00  0.00    +0.035 A 
ATOM      5  C   UNL     1      -3.021  -1.764  25.024  0.00  0.00    +0.004 A 
ATOM      6  C   UNL     1      -3.082  -0.954  24.880  0.00  0.00    +0.017 A 
ATOM      7  C   UNL     1      -3.682  -0.665  24.393  0.00  0.00    +0.075 A 
ATOM     35  C   UNL     1      -4.221  -1.187  24.049  0.00  0.00    +0.017 A 
ATOM     36  C   UNL     1      -4.160  -1.997  24.192  0.00  0.00    +0.004 A 
BRANCH   4   2
ATOM      1  C   UNL     1      -3.530  -3.629  24.194  0.00  0.00    +0.077 C 
ATOM      2  C   UNL     1      -3.500  -3.095  24.823  0.00  0.00    +0.173 C 
ATOM      3  O   UNL     1      -3.408  -3.372  25.595  0.00  0.00    -0.291 OA
ENDBRANCH   4   2
ENDBRANCH   8   7
ENDBRANCH  12  11
TORSDOF 4
ENDMDL
MODEL 2
REMARK VINA RESULT:     -12.1      2.886      4.775
REMARK  Name = 
REMARK  4 active torsions:
REMARK  status: ('A' for Active; 'I' for Inactive)
REMARK    1  A    between atoms: C_2  and  C_4
REMARK    2  A    between atoms: C_7  and  N_8
REMARK    3  A    between atoms: N_11  and  C_12
REMARK    4  A    between atoms: N_24  and  C_25
REMARK                            x       y       z     vdW  Elec       q    Type
REMARK                         _______ _______ _______ _____ _____    ______ ____
ROOT
ATOM     12  C   UNL     1      -1.441   0.740  25.038  0.00  0.00    +0.131 A 
ATOM     13  C   UNL     1      -1.156  -0.032  25.099  0.00  0.00    +0.023 A 
ATOM     14  C   UNL     1      -1.683  -0.661  25.182  0.00  0.00    +0.014 A 
ATOM     15  C   UNL     1      -2.495  -0.517  25.205  0.00  0.00    +0.041 A 
ATOM     16  C   UNL     1      -3.296  -0.961  25.283  0.00  0.00    +0.058 C 
ATOM     17  C   UNL     1      -3.563  -1.606  25.356  0.00  0.00    +0.011 C 
ATOM     18  C   UNL     1      -3.841  -0.842  25.296  0.00  0.00    +0.043 C 
ATOM     19  C   UNL     1      -4.363  -0.005  25.240  0.00  0.00    +0.097 C 
ATOM     20  N   UNL     1      -3.738   0.544  25.160  0.00  0.00    -0.262 N 
ATOM     21  C   UNL     1      -3.815  -0.161  25.230  0.00  0.00    +0.101 C 
ATOM     22  C   UNL     1      -3.360   1.273  25.073  0.00  0.00    +0.323 C 
ATOM     23  O   UNL     1      -2.537   1.308  25.033  0.00  0.00    -0.251 OA
ATOM     24  N   UNL     1      -3.806   1.965  25.027  0.00  0.00    -0.190 NA
ATOM     31  C   UNL     1      -3.009  -0.370  25.214  0.00  0.00    +0.110 C 
ATOM     32  N   UNL     1      -2.780   0.255  25.144  0.00  0.00    -0.298 N 
ATOM     33  C   UNL     1      -2.252   0.884  25.061  0.00  0.00    +0.276 A 
ATOM     34  O   UNL     1      -2.284   1.704  24.984  0.00  0.00    -0.266 OA
ENDROOT
BRANCH  24  25
ATOM     25  C   UNL     1      -4.629   1.930  25.068  0.00  0.00    +0.097 C 
ATOM     26  C   UNL     1      -5.010   2.006  25.795  0.00  0.00    +0.022 C 
ATOM     27  C   UNL     1      -5.832   1.971  25.836  0.00  0.00    +0.002 C 
ATOM     28  C   UNL     1      -6.276   1.860  25.149  0.00  0.00    +0.000 C 
ATOM     29  C   UNL     1      -5.894   1.784  24.421  0.00  0.00    +0.002 C 
ATOM     30  C   UNL     1      -5.072   1.819  24.380  0.00  0.00    +0.022 C 
ENDBRANCH  24  25
BRANCH  12  11
ATOM      8  N   UNL     1      -0.085   0.562  24.113  0.00  0.00    -0.161 NA
ATOM      9  C   UNL     1      -0.235   1.280  24.492  0.00  0.00    +0.348 C 
ATOM     10  O   UNL     1       0.293   1.909  24.409  0.00  0.00    -0.248 OA
ATOM     11  N   UNL     1      -0.913   1.368  24.954  0.00  0.00    -0.156 NA
BRANCH   8   7
ATOM      4  C   UNL     1       1.947   0.297  22.726  0.00  0.00    +0.035 A 
ATOM      5  C   UNL     1       1.308  -0.214  22.623  0.00  0.00    +0.004 A 
ATOM      6  C   UNL     1       0.631  -0.126  23.086  0.00  0.00    +0.017 A 
ATOM      7  C   UNL     1       0.593   0.474  23.651  0.00  0.00    +0.075 A 
ATOM     35  C   UNL     1       1.232   0.986  23.753  0.00  0.00    +0.017 A 
ATOM     36  C   UNL     1       1.909   0.897  23.291  0.00  0.00    +0.004 A 
BRANCH   4   2
ATOM      1  C   UNL     1       3.362   0.415  22.570  0.00  0.00    +0.077 C 
ATOM      2  C   UNL     1       2.624   0.209  22.264  0.00  0.00    +0.173 C 
ATOM      3  O   UNL     1       2.564  -0.086  21.495  0.00  0.00    -0.291 OA
ENDBRANCH   4   2
ENDBRANCH   8   7
ENDBRANCH  12  11
TORSDOF 4
ENDMDL
MODEL 3
REMARK VINA RESULT:     -11.8      2.870      4.295
REMARK  Name = 
REMARK  4 active torsions:
REMARK  status: ('A' for Active; 'I' for Inactive)
REMARK    1  A    between atoms: C_2  and  C_4
REMARK    2  A    between atoms: C_7  and  N_8
REMARK    3  A    between atoms: N_11  and  C_12
REMARK    4  A    between atoms: N_24  and  C_25
REMARK                            x       y       z     vdW  Elec       q    Type
REMARK                         _______ _______ _______ _____ _____    ______ ____
ROOT
ATOM     12  C   UNL     1      -1.235   1.408  25.252  0.00  0.00    +0.131 A 
ATOM     13  C   UNL     1      -0.656   1.989  25.341  0.00  0.00    +0.023 A 
ATOM     14  C   UNL     1      -0.875   2.782  25.409  0.00  0.00    +0.014 A 
ATOM     15  C   UNL     1      -1.672   2.993  25.388  0.00  0.00    +0.041 A 
ATOM     16  C   UNL     1      -2.215   3.733  25.433  0.00  0.00    +0.058 C 
ATOM     17  C   UNL     1      -2.191   4.430  25.505  0.00  0.00    +0.011 C 
ATOM     18  C   UNL     1      -2.759   3.854  25.416  0.00  0.00    +0.043 C 
ATOM     19  C   UNL     1      -3.581   3.313  25.318  0.00  0.00    +0.097 C 
ATOM     20  N   UNL     1      -3.241   2.552  25.259  0.00  0.00    -0.262 N 
ATOM     21  C   UNL     1      -3.018   3.224  25.339  0.00  0.00    +0.101 C 
ATOM     22  C   UNL     1      -3.200   1.732  25.179  0.00  0.00    +0.323 C 
ATOM     23  O   UNL     1      -2.466   1.353  25.180  0.00  0.00    -0.251 OA
ATOM     24  N   UNL     1      -3.892   1.290  25.097  0.00  0.00    -0.190 NA
ATOM     31  C   UNL     1      -2.199   3.076  25.368  0.00  0.00    +0.110 C 
ATOM     32  N   UNL     1      -2.250   2.412  25.298  0.00  0.00    -0.298 N 
ATOM     33  C   UNL     1      -2.032   1.619  25.230  0.00  0.00    +0.276 A 
ATOM     34  O   UNL     1      -2.401   0.888  25.136  0.00  0.00    -0.266 OA
ENDROOT
BRANCH  24  25
ATOM     25  C   UNL     1      -4.625   1.668  25.096  0.00  0.00    +0.097 C 
ATOM     26  C   UNL     1      -5.043   1.759  25.800  0.00  0.00    +0.022 C 
ATOM     27  C   UNL     1      -5.776   2.136  25.800  0.00  0.00    +0.002 C 
ATOM     28  C   UNL     1      -6.092   2.424  25.093  0.00  0.00    +0.000 C 
ATOM     29  C   UNL     1      -5.673   2.333  24.389  0.00  0.00    +0.002 C 
ATOM     30  C   UNL     1      -4.940   1.956  24.389  0.00  0.00    +0.022 C 
ENDBRANCH  24  25
BRANCH  12  11
ATOM      8  N   UNL     1      -0.004   0.976  24.241  0.00  0.00    -0.161 NA
ATOM      9  C   UNL     1      -0.400   0.400  24.679  0.00  0.00    +0.348 C 
ATOM     10  O   UNL     1      -0.181  -0.394  24.611  0.00  0.00    -0.248 OA
ATOM     11  N   UNL     1      -1.016   0.616  25.184  0.00  0.00    -0.156 NA
BRANCH   8   7
ATOM      4  C   UNL     1       1.844   0.326  22.728  0.00  0.00    +0.035 A 
ATOM      5  C   UNL     1       1.980   0.867  23.336  0.00  0.00    +0.004 A 
ATOM      6  C   UNL     1       1.364   1.083  23.840  0.00  0.00    +0.017 A 
ATOM      7  C   UNL     1       0.612   0.759  23.736  0.00  0.00    +0.075 A 
ATOM     35  C   UNL     1       0.476   0.219  23.128  0.00  0.00    +0.017 A 
ATOM     36  C   UNL     1       1.092   0.002  22.624  0.00  0.00    +0.004 A 
BRANCH   4   2
ATOM      1  C   UNL     1       3.242   0.234  22.452  0.00  0.00    +0.077 C 
ATOM      2  C   UNL     1       2.459   0.110  22.223  0.00  0.00    +0.173 C 
ATOM      3  O   UNL     1       2.292  -0.231  21.491  0.00  0.00    -0.291 OA
ENDBRANCH   4   2
ENDBRANCH   8   7
ENDBRANCH  12  11
TORSDOF 4
ENDMDL
MODEL 4
REMARK VINA RESULT:     -10.9      4.259      5.901
REMARK  Name = 
REMARK  4 active torsions:
REMARK  status: ('A' for Active; 'I' for Inactive)
REMARK    1  A    between atoms: C_2  and  C_4
REMARK    2  A    between atoms: C_7  and  N_8
REMARK    3  A    between atoms: N_11  and  C_12
REMARK    4  A    between atoms: N_24  and  C_25
REMARK                            x       y       z     vdW  Elec       q    Type
REMARK                         _______ _______ _______ _____ _____    ______ ____
ROOT
ATOM     12  C   UNL     1       0.469   0.716  23.443  0.00  0.00    +0.131 A 
ATOM     13  C   UNL     1       0.843   1.421  23.654  0.00  0.00    +0.023 A 
ATOM     14  C   UNL     1       0.538   1.882  24.266  0.00  0.00    +0.014 A 
ATOM     15  C   UNL     1      -0.140   1.639  24.668  0.00  0.00    +0.041 A 
ATOM     16  C   UNL     1      -0.699   1.901  25.349  0.00  0.00    +0.058 C 
ATOM     17  C   UNL     1      -0.792   2.415  25.818  0.00  0.00    +0.011 C 
ATOM     18  C   UNL     1      -1.158   1.718  25.607  0.00  0.00    +0.043 C 
ATOM     19  C   UNL     1      -1.734   0.922  25.503  0.00  0.00    +0.097 C 
ATOM     20  N   UNL     1      -1.337   0.543  24.873  0.00  0.00    -0.262 N 
ATOM     21  C   UNL     1      -1.265   1.137  25.260  0.00  0.00    +0.101 C 
ATOM     22  C   UNL     1      -1.171  -0.026  24.299  0.00  0.00    +0.323 C 
ATOM     23  O   UNL     1      -0.517   0.066  23.803  0.00  0.00    -0.251 OA
ATOM     24  N   UNL     1      -1.658  -0.686  24.220  0.00  0.00    -0.190 NA
ATOM     31  C   UNL     1      -0.580   1.436  24.894  0.00  0.00    +0.110 C 
ATOM     32  N   UNL     1      -0.513   0.934  24.457  0.00  0.00    -0.298 N 
ATOM     33  C   UNL     1      -0.209   0.472  23.845  0.00  0.00    +0.276 A 
ATOM     34  O   UNL     1      -0.389  -0.237  23.464  0.00  0.00    -0.266 OA
ENDROOT
BRANCH  24  25
ATOM     25  C   UNL     1      -2.312  -0.778  24.715  0.00  0.00    +0.097 C 
ATOM     26  C   UNL     1      -3.045  -0.476  24.491  0.00  0.00    +0.022 C 
ATOM     27  C   UNL     1      -3.699  -0.567  24.985  0.00  0.00    +0.002 C 
ATOM     28  C   UNL     1      -3.619  -0.962  25.705  0.00  0.00    +0.000 C 
ATOM     29  C   UNL     1      -2.886  -1.265  25.929  0.00  0.00    +0.002 C 
ATOM     30  C   UNL     1      -2.232  -1.174  25.436  0.00  0.00    +0.022 C 
ENDBRANCH  24  25
BRANCH  12  11
ATOM      8  N   UNL     1       2.099   0.494  23.310  0.00  0.00    -0.161 NA
ATOM      9  C   UNL     1       1.589   0.144  22.765  0.00  0.00    +0.348 C 
ATOM     10  O   UNL     1       1.894  -0.318  22.151  0.00  0.00    -0.248 OA
ATOM     11  N   UNL     1       0.774   0.255  22.831  0.00  0.00    -0.156 NA
BRANCH   8   7
ATOM      4  C   UNL     1       4.543   0.160  23.109  0.00  0.00    +0.035 A 
ATOM      5  C   UNL     1       4.072  -0.432  23.438  0.00  0.00    +0.004 A 
ATOM      6  C   UNL     1       3.257  -0.320  23.505  0.00  0.00    +0.017 A 
ATOM      7  C   UNL     1       2.914   0.383  23.243  0.00  0.00    +0.075 A 
ATOM     35  C   UNL     1       3.386   0.974  22.913  0.00  0.00    +0.017 A 
ATOM     36  C   UNL     1       4.200   0.863  22.846  0.00  0.00    +0.004 A 
BRANCH   4   2
ATOM      1  C   UNL     1       5.829   0.040  23.718  0.00  0.00    +0.077 C 
ATOM      2  C   UNL     1       5.357   0.048  23.042  0.00  0.00    +0.173 C 
ATOM      3  O   UNL     1       5.700  -0.056  22.298  0.00  0.00    -0.291 OA
ENDBRANCH   4   2
ENDBRANCH   8   7
ENDBRANCH  12  11
TORSDOF 4
ENDMDL
MODEL 5
REMARK VINA RESULT:     -10.2      1.688      6.038
REMARK  Name = 
REMARK  4 active torsions:
REMARK  status: ('A' for Active; 'I' for Inactive)
REMARK    1  A    between atoms: C_2  and  C_4
REMARK    2  A    between atoms: C_7  and  N_8
REMARK    3  A    between atoms: N_11  and  C_12
REMARK    4  A    between atoms: N_24  and  C_25
REMARK                            x       y       z     vdW  Elec       q    Type
REMARK                         _______ _______ _______ _____ _____    ______ ____
ROOT
ATOM     12  C   UNL     1      -2.301   0.892  25.319  0.00  0.00    +0.131 A 
ATOM     13  C   UNL     1      -1.506   1.069  25.454  0.00  0.00    +0.023 A 
ATOM     14  C   UNL     1      -0.934   0.480  25.380  0.00  0.00    +0.014 A 
ATOM     15  C   UNL     1      -1.156  -0.286  25.170  0.00  0.00    +0.041 A 
ATOM     16  C   UNL     1      -0.794  -1.117  25.013  0.00  0.00    +0.058 C 
ATOM     17  C   UNL     1      -0.180  -1.457  25.003  0.00  0.00    +0.011 C 
ATOM     18  C   UNL     1      -0.965  -1.628  24.870  0.00  0.00    +0.043 C 
ATOM     19  C   UNL     1      -1.848  -2.025  24.672  0.00  0.00    +0.097 C 
ATOM     20  N   UNL     1      -2.332  -1.352  24.776  0.00  0.00    -0.262 N 
ATOM     21  C   UNL     1      -1.639  -1.516  24.818  0.00  0.00    +0.101 C 
ATOM     22  C   UNL     1      -3.018  -0.895  24.806  0.00  0.00    +0.323 C 
ATOM     23  O   UNL     1      -2.972  -0.095  25.003  0.00  0.00    -0.251 OA
ATOM     24  N   UNL     1      -3.749  -1.237  24.638  0.00  0.00    -0.190 NA
ATOM     31  C   UNL     1      -1.352  -0.764  25.032  0.00  0.00    +0.110 C 
ATOM     32  N   UNL     1      -1.950  -0.463  25.035  0.00  0.00    -0.298 N 
ATOM     33  C   UNL     1      -2.523   0.126  25.109  0.00  0.00    +0.276 A 
ATOM     34  O   UNL     1      -3.340   0.199  25.031  0.00  0.00    -0.266 OA
ENDROOT
BRANCH  24  25
ATOM     25  C   UNL     1      -3.795  -2.037  24.441  0.00  0.00    +0.097 C 
ATOM     26  C   UNL     1      -3.883  -2.263  23.653  0.00  0.00    +0.022 C 
ATOM     27  C   UNL     1      -3.929  -3.061  23.455  0.00  0.00    +0.002 C 
ATOM     28  C   UNL     1      -3.888  -3.636  24.046  0.00  0.00    +0.000 C 
ATOM     29  C   UNL     1      -3.800  -3.410  24.834  0.00  0.00    +0.002 C 
ATOM     30  C   UNL     1      -3.754  -2.611  25.032  0.00  0.00    +0.022 C 
ENDBRANCH  24  25
BRANCH  12  11
ATOM      8  N   UNL     1      -1.875   2.479  25.165  0.00  0.00    -0.161 NA
ATOM      9  C   UNL     1      -2.660   2.275  25.317  0.00  0.00    +0.348 C 
ATOM     10  O   UNL     1      -3.232   2.865  25.392  0.00  0.00    -0.248 OA
ATOM     11  N   UNL     1      -2.872   1.482  25.393  0.00  0.00    -0.156 NA
BRANCH   8   7
ATOM      4  C   UNL     1      -1.238   4.860  24.935  0.00  0.00    +0.035 A 
ATOM      5  C   UNL     1      -0.967   4.305  24.387  0.00  0.00    +0.004 A 
ATOM      6  C   UNL     1      -1.180   3.512  24.464  0.00  0.00    +0.017 A 
ATOM      7  C   UNL     1      -1.662   3.273  25.089  0.00  0.00    +0.075 A 
ATOM     35  C   UNL     1      -1.933   3.827  25.637  0.00  0.00    +0.017 A 
ATOM     36  C   UNL     1      -1.720   4.620  25.560  0.00  0.00    +0.004 A 
BRANCH   4   2
ATOM      1  C   UNL     1      -1.590   6.243  24.969  0.00  0.00    +0.077 C 
ATOM      2  C   UNL     1      -1.025   5.653  24.858  0.00  0.00    +0.173 C 
ATOM      3  O   UNL     1      -0.248   5.855  24.669  0.00  0.00    -0.291 OA
ENDBRANCH   4   2
ENDBRANCH   8   7
ENDBRANCH  12  11
TORSDOF 4
ENDMDL
MODEL 6
REMARK VINA RESULT:     -10.1      1.881      2.915
REMARK  Name = 
REMARK  4 active torsions:
REMARK  status: ('A' for Active; 'I' for Inactive)
REMARK    1  A    between atoms: C_2  and  C_4
REMARK    2  A    between atoms: C_7  and  N_8
REMARK    3  A    between atoms: N_11  and  C_12
REMARK    4  A    between atoms: N_24  and  C_25
REMARK                            x       y       z     vdW  Elec       q    Type
REMARK                         _______ _______ _______ _____ _____    ______ ____
ROOT
ATOM     12  C   UNL     1      -1.323   0.333  25.506  0.00  0.00    +0.131 A 
ATOM     13  C   UNL     1      -0.760  -0.164  25.164  0.00  0.00    +0.023 A 
ATOM     14  C   UNL     1      -0.170   0.151  24.681  0.00  0.00    +0.014 A 
ATOM     15  C   UNL     1      -0.144   0.964  24.539  0.00  0.00    +0.041 A 
ATOM     16  C   UNL     1       0.346   1.593  24.083  0.00  0.00    +0.058 C 
ATOM     17  C   UNL     1       0.904   1.657  23.661  0.00  0.00    +0.011 C 
ATOM     18  C   UNL     1       0.346   2.144  24.000  0.00  0.00    +0.043 C 
ATOM     19  C   UNL     1      -0.227   2.885  24.314  0.00  0.00    +0.097 C 
ATOM     20  N   UNL     1      -0.770   2.455  24.780  0.00  0.00    -0.262 N 
ATOM     21  C   UNL     1      -0.199   2.320  24.377  0.00  0.00    +0.101 C 
ATOM     22  C   UNL     1      -1.413   2.311  25.277  0.00  0.00    +0.323 C 
ATOM     23  O   UNL     1      -1.584   1.540  25.518  0.00  0.00    -0.251 OA
ATOM     24  N   UNL     1      -1.885   2.937  25.532  0.00  0.00    -0.190 NA
ATOM     31  C   UNL     1      -0.172   1.494  24.481  0.00  0.00    +0.110 C 
ATOM     32  N   UNL     1      -0.707   1.461  24.881  0.00  0.00    -0.298 N 
ATOM     33  C   UNL     1      -1.296   1.145  25.365  0.00  0.00    +0.276 A 
ATOM     34  O   UNL     1      -1.941   1.417  25.801  0.00  0.00    -0.266 OA
ENDROOT
BRANCH  24  25
ATOM     25  C   UNL     1      -1.716   3.707  25.291  0.00  0.00    +0.097 C 
ATOM     26  C   UNL     1      -2.112   4.034  24.646  0.00  0.00    +0.022 C 
ATOM     27  C   UNL     1      -1.942   4.804  24.405  0.00  0.00    +0.002 C 
ATOM     28  C   UNL     1      -1.376   5.248  24.809  0.00  0.00    +0.000 C 
ATOM     29  C   UNL     1      -0.980   4.921  25.454  0.00  0.00    +0.002 C 
ATOM     30  C   UNL     1      -1.149   4.151  25.696  0.00  0.00    +0.022 C 
ENDBRANCH  24  25
BRANCH  12  11
ATOM      8  N   UNL     1      -2.374  -0.786  24.901  0.00  0.00    -0.161 NA
ATOM      9  C   UNL     1      -2.438  -0.542  25.687  0.00  0.00    +0.348 C 
ATOM     10  O   UNL     1      -3.027  -0.858  26.171  0.00  0.00    -0.248 OA
ATOM     11  N   UNL     1      -1.912   0.017  25.989  0.00  0.00    -0.156 NA
BRANCH   8   7
ATOM      4  C   UNL     1      -3.952  -2.465  23.997  0.00  0.00    +0.035 A 
ATOM      5  C   UNL     1      -3.277  -2.710  24.402  0.00  0.00    +0.004 A 
ATOM      6  C   UNL     1      -2.751  -2.150  24.703  0.00  0.00    +0.017 A 
ATOM      7  C   UNL     1      -2.901  -1.345  24.599  0.00  0.00    +0.075 A 
ATOM     35  C   UNL     1      -3.576  -1.100  24.194  0.00  0.00    +0.017 A 
ATOM     36  C   UNL     1      -4.102  -1.660  23.893  0.00  0.00    +0.004 A 
BRANCH   4   2
ATOM      1  C   UNL     1      -4.241  -3.810  23.614  0.00  0.00    +0.077 C 
ATOM      2  C   UNL     1      -4.478  -3.024  23.695  0.00  0.00    +0.173 C 
ATOM      3  O   UNL     1      -5.240  -2.798  23.476  0.00  0.00    -0.291 OA
ENDBRANCH   4   2
ENDBRANCH   8   7
ENDBRANCH  12  11
TORSDOF 4
ENDMDL
MODEL 7
REMARK VINA RESULT:     -10.1      2.797      4.780
REMARK  Name = 
REMARK  4 active torsions:
REMARK  status: ('A' for Active; 'I' for Inactive)
REMARK    1  A    between atoms: C_2  and  C_4
REMARK    2  A    between atoms: C_7  and  N_8
REMARK    3  A    between atoms: N_11  and  C_12
REMARK    4  A    between atoms: N_24  and  C_25
REMARK                            x       y       z     vdW  Elec       q    Type
REMARK                         _______ _______ _______ _____ _____    ______ ____
ROOT
ATOM     12  C   UNL     1      -2.287   0.758  23.785  0.00  0.00    +0.131 A 
ATOM     13  C   UNL     1      -2.731   0.321  24.326  0.00  0.00    +0.023 A 
ATOM     14  C   UNL     1      -2.372  -0.280  24.763  0.00  0.00    +0.014 A 
ATOM     15  C   UNL     1      -1.570  -0.444  24.659  0.00  0.00    +0.041 A 
ATOM     16  C   UNL     1      -0.911  -1.006  24.965  0.00  0.00    +0.058 C 
ATOM     17  C   UNL     1      -0.803  -1.534  25.415  0.00  0.00    +0.011 C 
ATOM     18  C   UNL     1      -0.368  -1.100  24.880  0.00  0.00    +0.043 C 
ATOM     19  C   UNL     1       0.315  -0.694  24.292  0.00  0.00    +0.097 C 
ATOM     20  N   UNL     1      -0.153  -0.116  23.911  0.00  0.00    -0.262 N 
ATOM     21  C   UNL     1      -0.240  -0.624  24.403  0.00  0.00    +0.101 C 
ATOM     22  C   UNL     1      -0.348   0.505  23.404  0.00  0.00    +0.323 C 
ATOM     23  O   UNL     1      -1.121   0.795  23.383  0.00  0.00    -0.251 OA
ATOM     24  N   UNL     1       0.230   0.836  22.918  0.00  0.00    -0.190 NA
ATOM     31  C   UNL     1      -1.050  -0.508  24.554  0.00  0.00    +0.110 C 
ATOM     32  N   UNL     1      -1.127  -0.006  24.118  0.00  0.00    -0.298 N 
ATOM     33  C   UNL     1      -1.485   0.595  23.681  0.00  0.00    +0.276 A 
ATOM     34  O   UNL     1      -1.271   1.147  23.108  0.00  0.00    -0.266 OA
ENDROOT
BRANCH  24  25
ATOM     25  C   UNL     1       1.002   0.547  22.938  0.00  0.00    +0.097 C 
ATOM     26  C   UNL     1       1.216  -0.093  22.465  0.00  0.00    +0.022 C 
ATOM     27  C   UNL     1       1.987  -0.383  22.484  0.00  0.00    +0.002 C 
ATOM     28  C   UNL     1       2.547  -0.031  22.979  0.00  0.00    +0.000 C 
ATOM     29  C   UNL     1       2.334   0.609  23.453  0.00  0.00    +0.002 C 
ATOM     30  C   UNL     1       1.562   0.899  23.433  0.00  0.00    +0.022 C 
ENDBRANCH  24  25
BRANCH  12  11
ATOM      8  N   UNL     1      -3.459   1.692  24.475  0.00  0.00    -0.161 NA
ATOM      9  C   UNL     1      -3.232   1.826  23.693  0.00  0.00    +0.348 C 
ATOM     10  O   UNL     1      -3.591   2.427  23.256  0.00  0.00    -0.248 OA
ATOM     11  N   UNL     1      -2.646   1.359  23.349  0.00  0.00    -0.156 NA
BRANCH   8   7
ATOM      4  C   UNL     1      -5.219   3.094  25.508  0.00  0.00    +0.035 A 
ATOM      5  C   UNL     1      -5.419   2.377  25.152  0.00  0.00    +0.004 A 
ATOM      6  C   UNL     1      -4.832   1.910  24.808  0.00  0.00    +0.017 A 
ATOM      7  C   UNL     1      -4.046   2.160  24.820  0.00  0.00    +0.075 A 
ATOM     35  C   UNL     1      -3.846   2.877  25.176  0.00  0.00    +0.017 A 
ATOM     36  C   UNL     1      -4.433   3.344  25.520  0.00  0.00    +0.004 A 
BRANCH   4   2
ATOM      1  C   UNL     1      -5.897   4.346  25.617  0.00  0.00    +0.077 C 
ATOM      2  C   UNL     1      -5.805   3.561  25.852  0.00  0.00    +0.173 C 
ATOM      3  O   UNL     1      -6.300   3.242  26.430  0.00  0.00    -0.291 OA
ENDBRANCH   4   2
ENDBRANCH   8   7
ENDBRANCH  12  11
TORSDOF 4
ENDMDL
MODEL 8
REMARK VINA RESULT:     -10.0      2.398      4.153
REMARK  Name = 
REMARK  4 active torsions:
REMARK  status: ('A' for Active; 'I' for Inactive)
REMARK    1  A    between atoms: C_2  and  C_4
REMARK    2  A    between atoms: C_7  and  N_8
REMARK    3  A    between atoms: N_11  and  C_12
REMARK    4  A    between atoms: N_24  and  C_25
REMARK                            x       y       z     vdW  Elec       q    Type
REMARK                         _______ _______ _______ _____ _____    ______ ____
ROOT
ATOM     12  C   UNL     1      -2.024   3.195  24.441  0.00  0.00    +0.131 A 
ATOM     13  C   UNL     1      -1.957   3.693  25.095  0.00  0.00    +0.023 A 
ATOM     14  C   UNL     1      -1.336   3.591  25.629  0.00  0.00    +0.014 A 
ATOM     15  C   UNL     1      -0.782   2.992  25.507  0.00  0.00    +0.041 A 
ATOM     16  C   UNL     1      -0.024   2.635  25.883  0.00  0.00    +0.058 C 
ATOM     17  C   UNL     1       0.409   2.713  26.430  0.00  0.00    +0.011 C 
ATOM     18  C   UNL     1       0.340   2.224  25.783  0.00  0.00    +0.043 C 
ATOM     19  C   UNL     1       0.426   1.542  25.073  0.00  0.00    +0.097 C 
ATOM     20  N   UNL     1      -0.239   1.739  24.607  0.00  0.00    -0.262 N 
ATOM     21  C   UNL     1       0.073   1.969  25.205  0.00  0.00    +0.101 C 
ATOM     22  C   UNL     1      -0.785   1.701  23.989  0.00  0.00    +0.323 C 
ATOM     23  O   UNL     1      -1.413   2.237  23.959  0.00  0.00    -0.251 OA
ATOM     24  N   UNL     1      -0.704   1.128  23.402  0.00  0.00    -0.190 NA
ATOM     31  C   UNL     1      -0.452   2.591  25.382  0.00  0.00    +0.110 C 
ATOM     32  N   UNL     1      -0.849   2.495  24.852  0.00  0.00    -0.298 N 
ATOM     33  C   UNL     1      -1.471   2.596  24.319  0.00  0.00    +0.276 A 
ATOM     34  O   UNL     1      -1.744   2.247  23.624  0.00  0.00    -0.266 OA
ENDROOT
BRANCH  24  25
ATOM     25  C   UNL     1      -0.077   0.592  23.432  0.00  0.00    +0.097 C 
ATOM     26  C   UNL     1       0.638   0.774  23.064  0.00  0.00    +0.022 C 
ATOM     27  C   UNL     1       1.265   0.240  23.093  0.00  0.00    +0.002 C 
ATOM     28  C   UNL     1       1.177  -0.478  23.491  0.00  0.00    +0.000 C 
ATOM     29  C   UNL     1       0.461  -0.660  23.859  0.00  0.00    +0.002 C 
ATOM     30  C   UNL     1      -0.165  -0.126  23.830  0.00  0.00    +0.022 C 
ENDBRANCH  24  25
BRANCH  12  11
ATOM      8  N   UNL     1      -3.559   2.767  24.871  0.00  0.00    -0.161 NA
ATOM      9  C   UNL     1      -3.413   3.083  24.123  0.00  0.00    +0.348 C 
ATOM     10  O   UNL     1      -4.035   3.186  23.589  0.00  0.00    -0.248 OA
ATOM     11  N   UNL     1      -2.646   3.297  23.908  0.00  0.00    -0.156 NA
BRANCH   8   7
ATOM      4  C   UNL     1      -5.861   2.125  25.514  0.00  0.00    +0.035 A 
ATOM      5  C   UNL     1      -5.350   1.562  25.194  0.00  0.00    +0.004 A 
ATOM      6  C   UNL     1      -4.583   1.776  24.980  0.00  0.00    +0.017 A 
ATOM      7  C   UNL     1      -4.327   2.554  25.086  0.00  0.00    +0.075 A 
ATOM     35  C   UNL     1      -4.838   3.117  25.405  0.00  0.00    +0.017 A 
ATOM     36  C   UNL     1      -5.605   2.903  25.619  0.00  0.00    +0.004 A 
BRANCH   4   2
ATOM      1  C   UNL     1      -6.820   1.803  26.523  0.00  0.00    +0.077 C 
ATOM      2  C   UNL     1      -6.629   1.911  25.728  0.00  0.00    +0.173 C 
ATOM      3  O   UNL     1      -7.205   1.805  25.147  0.00  0.00    -0.291 OA
ENDBRANCH   4   2
ENDBRANCH   8   7
ENDBRANCH  12  11
TORSDOF 4
ENDMDL
