MODEL 1
REMARK VINA RESULT:     -13.0      0.000      0.000
REMARK  Name = 
REMARK  7 active torsions:
REMARK  status: ('A' for Active; 'I' for Inactive)
REMARK    1  A    between atoms: N_2  and  C_4
REMARK    2  A    between atoms: C_8  and  O_9
REMARK    3  A    between atoms: O_9  and  C_10
REMARK    4  A    between atoms: N_14  and  C_15
REMARK    5  A    between atoms: C_19  and  N_23
REMARK    6  A    between atoms: N_26  and  C_27
REMARK    7  A    between atoms: C_29  and  C_33
REMARK                            x       y       z     vdW  Elec       q    Type
REMARK                         _______ _______ _______ _____ _____    ______ ____
ROOT
ATOM     15  C   UNL     1      -0.662   1.068  24.911  0.00  0.00    +0.170 C 
ATOM     16  C   UNL     1      -0.511   1.185  25.714  0.00  0.00    +0.169 C 
ATOM     17  O   UNL     1      -0.870   1.893  25.940  0.00  0.00    -0.350 OA
ATOM     18  C   UNL     1      -1.242   2.213  25.278  0.00  0.00    +0.167 C 
ATOM     19  C   UNL     1      -1.694   2.848  25.007  0.00  0.00    +0.156 C 
ATOM     20  C   UNL     1      -1.845   2.732  24.205  0.00  0.00    +0.166 C 
ATOM     21  O   UNL     1      -1.486   2.024  23.979  0.00  0.00    -0.350 OA
ATOM     22  C   UNL     1      -1.114   1.704  24.642  0.00  0.00    +0.169 C 
ENDROOT
BRANCH  15  14
ATOM     10  C   UNL     1      -0.678  -0.348  24.519  0.00  0.00    +0.343 A 
ATOM     11  N   UNL     1      -0.273  -0.804  23.962  0.00  0.00    -0.071 NA
ATOM     12  N   UNL     1       0.248  -0.309  23.558  0.00  0.00    -0.020 NA
ATOM     13  N   UNL     1       0.166   0.453  23.864  0.00  0.00    -0.040 NA
ATOM     14  N   UNL     1      -0.406   0.428  24.458  0.00  0.00    -0.180 N 
BRANCH  10   9
ATOM      9  O   UNL     1      -1.253  -0.621  25.044  0.00  0.00    -0.421 OA
BRANCH   9   8
ATOM      4  C   UNL     1      -3.007  -1.754  24.410  0.00  0.00    +0.051 A 
ATOM      5  C   UNL     1      -2.705  -2.522  24.407  0.00  0.00    +0.015 A 
ATOM      6  C   UNL     1      -1.918  -2.656  24.617  0.00  0.00    +0.004 A 
ATOM      7  C   UNL     1      -1.434  -2.022  24.829  0.00  0.00    +0.038 A 
ATOM      8  C   UNL     1      -1.736  -1.255  24.832  0.00  0.00    +0.150 A 
ATOM     37  C   UNL     1      -2.523  -1.121  24.622  0.00  0.00    +0.052 A 
BRANCH   4   2
ATOM      1  C   UNL     1      -4.232  -2.218  23.837  0.00  0.00    +0.112 C 
ATOM      2  N   UNL     1      -3.794  -1.620  24.200  0.00  0.00    -0.304 N 
ATOM      3  C   UNL     1      -4.142  -0.888  24.352  0.00  0.00    +0.112 C 
ENDBRANCH   4   2
ENDBRANCH   9   8
ENDBRANCH  10   9
ENDBRANCH  15  14
BRANCH  19  23
ATOM     23  N   UNL     1      -1.950   3.489  25.461  0.00  0.00    -0.184 NA
ATOM     24  C   UNL     1      -2.757   3.621  25.569  0.00  0.00    +0.344 C 
ATOM     25  O   UNL     1      -3.013   4.262  26.022  0.00  0.00    -0.249 OA
ATOM     26  N   UNL     1      -3.308   3.114  25.224  0.00  0.00    -0.161 NA
BRANCH  26  27
ATOM     27  C   UNL     1      -4.115   3.247  25.332  0.00  0.00    +0.075 A 
ATOM     28  C   UNL     1      -4.605   2.630  25.576  0.00  0.00    +0.021 A 
ATOM     29  C   UNL     1      -5.412   2.762  25.684  0.00  0.00    +0.073 A 
ATOM     30  C   UNL     1      -5.729   3.512  25.547  0.00  0.00    +0.004 A 
ATOM     31  C   UNL     1      -5.239   4.130  25.303  0.00  0.00    +0.001 A 
ATOM     32  C   UNL     1      -4.431   3.996  25.195  0.00  0.00    +0.017 A 
BRANCH  29  33
ATOM     33  C   UNL     1      -5.903   2.146  25.928  0.00  0.00    +0.419 C 
ATOM     34  F   UNL     1      -6.394   1.530  26.173  0.00  0.00    -0.166 F 
ATOM     35  F   UNL     1      -5.939   1.866  25.152  0.00  0.00    -0.166 F 
ATOM     36  F   UNL     1      -5.868   2.425  26.703  0.00  0.00    -0.166 F 
ENDBRANCH  29  33
ENDBRANCH  26  27
ENDBRANCH  19  23
TORSDOF 7
ENDMDL
MODEL 2
REMARK VINA RESULT:     -13.0      1.704      4.665
REMARK  Name = 
REMARK  7 active torsions:
REMARK  status: ('A' for Active; 'I' for Inactive)
REMARK    1  A    between atoms: N_2  and  C_4
REMARK    2  A    between atoms: C_8  and  O_9
REMARK    3  A    between atoms: O_9  and  C_10
REMARK    4  A    between atoms: N_14  and  C_15
REMARK    5  A    between atoms: C_19  and  N_23
REMARK    6  A    between atoms: N_26  and  C_27
REMARK    7  A    between atoms: C_29  and  C_33
REMARK                            x       y       z     vdW  Elec       q    Type
REMARK                         _______ _______ _______ _____ _____    ______ ____
ROOT
ATOM     15  C   UNL     1      -0.588   2.349  25.061  0.00  0.00    +0.170 C 
ATOM     16  C   UNL     1      -0.219   2.030  25.726  0.00  0.00    +0.169 C 
ATOM     17  O   UNL     1      -0.163   1.215  25.620  0.00  0.00    -0.350 OA
ATOM     18  C   UNL     1      -0.497   1.028  24.890  0.00  0.00    +0.167 C 
ATOM     19  C   UNL     1      -0.668   0.409  24.372  0.00  0.00    +0.156 C 
ATOM     20  C   UNL     1      -1.037   0.728  23.706  0.00  0.00    +0.166 C 
ATOM     21  O   UNL     1      -1.093   1.544  23.812  0.00  0.00    -0.350 OA
ATOM     22  C   UNL     1      -0.759   1.730  24.544  0.00  0.00    +0.169 C 
ENDROOT
BRANCH  15  14
ATOM     10  C   UNL     1      -1.367   3.575  25.285  0.00  0.00    +0.343 A 
ATOM     11  N   UNL     1      -1.331   4.350  25.003  0.00  0.00    -0.071 NA
ATOM     12  N   UNL     1      -0.696   4.400  24.477  0.00  0.00    -0.020 NA
ATOM     13  N   UNL     1      -0.341   3.656  24.435  0.00  0.00    -0.040 NA
ATOM     14  N   UNL     1      -0.756   3.147  24.934  0.00  0.00    -0.180 N 
BRANCH  10   9
ATOM      9  O   UNL     1      -1.918   3.281  25.824  0.00  0.00    -0.421 OA
BRANCH   9   8
ATOM      4  C   UNL     1      -4.063   3.413  25.444  0.00  0.00    +0.051 A 
ATOM      5  C   UNL     1      -4.242   4.133  25.804  0.00  0.00    +0.015 A 
ATOM      6  C   UNL     1      -3.646   4.569  26.172  0.00  0.00    +0.004 A 
ATOM      7  C   UNL     1      -2.872   4.285  26.178  0.00  0.00    +0.038 A 
ATOM      8  C   UNL     1      -2.693   3.565  25.818  0.00  0.00    +0.150 A 
ATOM     37  C   UNL     1      -3.289   3.129  25.450  0.00  0.00    +0.052 A 
BRANCH   4   2
ATOM      1  C   UNL     1      -5.363   2.819  25.478  0.00  0.00    +0.112 C 
ATOM      2  N   UNL     1      -4.660   2.976  25.076  0.00  0.00    -0.304 N 
ATOM      3  C   UNL     1      -4.553   2.699  24.307  0.00  0.00    +0.112 C 
ENDBRANCH   4   2
ENDBRANCH   9   8
ENDBRANCH  10   9
ENDBRANCH  15  14
BRANCH  19  23
ATOM     23  N   UNL     1      -0.501  -0.389  24.498  0.00  0.00    -0.184 NA
ATOM     24  C   UNL     1      -1.110  -0.915  24.676  0.00  0.00    +0.344 C 
ATOM     25  O   UNL     1      -0.942  -1.714  24.802  0.00  0.00    -0.249 OA
ATOM     26  N   UNL     1      -1.888  -0.645  24.727  0.00  0.00    -0.161 NA
BRANCH  26  27
ATOM     27  C   UNL     1      -2.498  -1.171  24.905  0.00  0.00    +0.075 A 
ATOM     28  C   UNL     1      -2.983  -1.458  24.302  0.00  0.00    +0.021 A 
ATOM     29  C   UNL     1      -3.593  -1.984  24.480  0.00  0.00    +0.073 A 
ATOM     30  C   UNL     1      -3.717  -2.224  25.259  0.00  0.00    +0.004 A 
ATOM     31  C   UNL     1      -3.231  -1.938  25.862  0.00  0.00    +0.001 A 
ATOM     32  C   UNL     1      -2.621  -1.411  25.684  0.00  0.00    +0.017 A 
BRANCH  29  33
ATOM     33  C   UNL     1      -4.079  -2.271  23.878  0.00  0.00    +0.419 C 
ATOM     34  F   UNL     1      -4.564  -2.559  23.276  0.00  0.00    -0.166 F 
ATOM     35  F   UNL     1      -4.472  -1.546  23.848  0.00  0.00    -0.166 F 
ATOM     36  F   UNL     1      -3.687  -2.997  23.907  0.00  0.00    -0.166 F 
ENDBRANCH  29  33
ENDBRANCH  26  27
ENDBRANCH  19  23
TORSDOF 7
ENDMDL
MODEL 3
REMARK VINA RESULT:     -12.1      2.128      3.523
REMARK  Name = 
REMARK  7 active torsions:
REMARK  status: ('A' for Active; 'I' for Inactive)
REMARK    1  A    between atoms: N_2  and  C_4
REMARK    2  A    between atoms: C_8  and  O_9
REMARK    3  A    between atoms: O_9  and  C_10
REMARK    4  A    between atoms: N_14  and  C_15
REMARK    5  A    between atoms: C_19  and  N_23
REMARK    6  A    between atoms: N_26  and  C_27
REMARK    7  A    between atoms: C_29  and  C_33
REMARK                            x       y       z     vdW  Elec       q    Type
REMARK                         _______ _______ _______ _____ _____    ______ ____
ROOT
ATOM     15  C   UNL     1      -4.212  -0.054  24.683  0.00  0.00    +0.170 C 
ATOM     16  C   UNL     1      -4.653   0.067  25.369  0.00  0.00    +0.169 C 
ATOM     17  O   UNL     1      -4.851   0.867  25.407  0.00  0.00    -0.350 OA
ATOM     18  C   UNL     1      -4.532   1.241  24.745  0.00  0.00    +0.167 C 
ATOM     19  C   UNL     1      -4.457   1.965  24.358  0.00  0.00    +0.156 C 
ATOM     20  C   UNL     1      -4.016   1.844  23.671  0.00  0.00    +0.166 C 
ATOM     21  O   UNL     1      -3.819   1.045  23.633  0.00  0.00    -0.350 OA
ATOM     22  C   UNL     1      -4.138   0.671  24.297  0.00  0.00    +0.169 C 
ENDROOT
BRANCH  15  14
ATOM     10  C   UNL     1      -3.169  -1.089  24.641  0.00  0.00    +0.343 A 
ATOM     11  N   UNL     1      -3.083  -1.815  24.259  0.00  0.00    -0.071 NA
ATOM     12  N   UNL     1      -3.761  -1.949  23.809  0.00  0.00    -0.020 NA
ATOM     13  N   UNL     1      -4.267  -1.306  23.913  0.00  0.00    -0.040 NA
ATOM     14  N   UNL     1      -3.901  -0.774  24.427  0.00  0.00    -0.180 N 
BRANCH  10   9
ATOM      9  O   UNL     1      -2.620  -0.739  25.148  0.00  0.00    -0.421 OA
BRANCH   9   8
ATOM      4  C   UNL     1      -0.551  -0.528  24.487  0.00  0.00    +0.051 A 
ATOM      5  C   UNL     1      -0.204  -1.184  24.848  0.00  0.00    +0.015 A 
ATOM      6  C   UNL     1      -0.662  -1.692  25.309  0.00  0.00    +0.004 A 
ATOM      7  C   UNL     1      -1.468  -1.543  25.408  0.00  0.00    +0.038 A 
ATOM      8  C   UNL     1      -1.815  -0.888  25.048  0.00  0.00    +0.150 A 
ATOM     37  C   UNL     1      -1.356  -0.380  24.587  0.00  0.00    +0.052 A 
BRANCH   4   2
ATOM      1  C   UNL     1       0.389  -0.325  23.430  0.00  0.00    +0.112 C 
ATOM      2  N   UNL     1      -0.092  -0.019  24.026  0.00  0.00    -0.304 N 
ATOM      3  C   UNL     1      -0.115   0.794  24.162  0.00  0.00    +0.112 C 
ENDBRANCH   4   2
ENDBRANCH   9   8
ENDBRANCH  10   9
ENDBRANCH  15  14
BRANCH  19  23
ATOM     23  N   UNL     1      -4.768   2.686  24.613  0.00  0.00    -0.184 NA
ATOM     24  C   UNL     1      -4.273   3.253  24.951  0.00  0.00    +0.344 C 
ATOM     25  O   UNL     1      -4.585   3.973  25.206  0.00  0.00    -0.249 OA
ATOM     26  N   UNL     1      -3.467   3.100  25.033  0.00  0.00    -0.161 NA
BRANCH  26  27
ATOM     27  C   UNL     1      -2.971   3.667  25.371  0.00  0.00    +0.075 A 
ATOM     28  C   UNL     1      -2.314   3.940  24.954  0.00  0.00    +0.021 A 
ATOM     29  C   UNL     1      -1.819   4.507  25.292  0.00  0.00    +0.073 A 
ATOM     30  C   UNL     1      -1.981   4.801  26.046  0.00  0.00    +0.004 A 
ATOM     31  C   UNL     1      -2.639   4.528  26.462  0.00  0.00    +0.001 A 
ATOM     32  C   UNL     1      -3.134   3.960  26.124  0.00  0.00    +0.017 A 
BRANCH  29  33
ATOM     33  C   UNL     1      -1.161   4.781  24.876  0.00  0.00    +0.419 C 
ATOM     34  F   UNL     1      -0.503   5.056  24.460  0.00  0.00    -0.166 F 
ATOM     35  F   UNL     1      -0.782   4.058  24.998  0.00  0.00    -0.166 F 
ATOM     36  F   UNL     1      -1.539   5.504  24.753  0.00  0.00    -0.166 F 
ENDBRANCH  29  33
ENDBRANCH  26  27
ENDBRANCH  19  23
TORSDOF 7
ENDMDL
MODEL 4
REMARK VINA RESULT:     -11.8      2.502      5.592
REMARK  Name = 
REMARK  7 active torsions:
REMARK  status: ('A' for Active; 'I' for Inactive)
REMARK    1  A    between atoms: N_2  and  C_4
REMARK    2  A    between atoms: C_8  and  O_9
REMARK    3  A    between atoms: O_9  and  C_10
REMARK    4  A    between atoms: N_14  and  C_15
REMARK    5  A    between atoms: C_19  and  N_23
REMARK    6  A    between atoms: N_26  and  C_27
REMARK    7  A    between atoms: C_29  and  C_33
REMARK                            x       y       z     vdW  Elec       q    Type
REMARK                         _______ _______ _______ _____ _____    ______ ____
ROOT
ATOM     15  C   UNL     1      -4.241   2.428  24.717  0.00  0.00    +0.170 C 
ATOM     16  C   UNL     1      -4.317   2.405  23.897  0.00  0.00    +0.169 C 
ATOM     17  O   UNL     1      -4.443   1.621  23.675  0.00  0.00    -0.350 OA
ATOM     18  C   UNL     1      -4.445   1.159  24.357  0.00  0.00    +0.167 C 
ATOM     19  C   UNL     1      -4.524   0.389  24.643  0.00  0.00    +0.156 C 
ATOM     20  C   UNL     1      -4.447   0.412  25.464  0.00  0.00    +0.166 C 
ATOM     21  O   UNL     1      -4.321   1.196  25.686  0.00  0.00    -0.350 OA
ATOM     22  C   UNL     1      -4.320   1.658  25.002  0.00  0.00    +0.169 C 
ENDROOT
BRANCH  15  14
ATOM     10  C   UNL     1      -3.448   3.594  25.132  0.00  0.00    +0.343 A 
ATOM     11  N   UNL     1      -3.545   4.200  25.684  0.00  0.00    -0.071 NA
ATOM     12  N   UNL     1      -4.267   4.082  26.067  0.00  0.00    -0.020 NA
ATOM     13  N   UNL     1      -4.615   3.404  25.751  0.00  0.00    -0.040 NA
ATOM     14  N   UNL     1      -4.109   3.103  25.174  0.00  0.00    -0.180 N 
BRANCH  10   9
ATOM      9  O   UNL     1      -2.802   3.497  24.627  0.00  0.00    -0.421 OA
BRANCH   9   8
ATOM      4  C   UNL     1      -0.761   3.311  25.374  0.00  0.00    +0.051 A 
ATOM      5  C   UNL     1      -0.529   4.102  25.397  0.00  0.00    +0.015 A 
ATOM      6  C   UNL     1      -1.056   4.693  25.163  0.00  0.00    +0.004 A 
ATOM      7  C   UNL     1      -1.814   4.490  24.906  0.00  0.00    +0.038 A 
ATOM      8  C   UNL     1      -2.045   3.699  24.884  0.00  0.00    +0.150 A 
ATOM     37  C   UNL     1      -1.518   3.109  25.118  0.00  0.00    +0.052 A 
BRANCH   4   2
ATOM      1  C   UNL     1       0.145   2.257  25.040  0.00  0.00    +0.112 C 
ATOM      2  N   UNL     1      -0.233   2.720  25.608  0.00  0.00    -0.304 N 
ATOM      3  C   UNL     1      -0.086   2.593  26.409  0.00  0.00    +0.112 C 
ENDBRANCH   4   2
ENDBRANCH   9   8
ENDBRANCH  10   9
ENDBRANCH  15  14
BRANCH  19  23
ATOM     23  N   UNL     1      -4.656  -0.286  24.187  0.00  0.00    -0.184 NA
ATOM     24  C   UNL     1      -4.099  -0.894  24.179  0.00  0.00    +0.344 C 
ATOM     25  O   UNL     1      -4.231  -1.569  23.723  0.00  0.00    -0.249 OA
ATOM     26  N   UNL     1      -3.409  -0.828  24.627  0.00  0.00    -0.161 NA
BRANCH  26  27
ATOM     27  C   UNL     1      -2.852  -1.436  24.620  0.00  0.00    +0.075 A 
ATOM     28  C   UNL     1      -2.048  -1.259  24.673  0.00  0.00    +0.021 A 
ATOM     29  C   UNL     1      -1.490  -1.867  24.665  0.00  0.00    +0.073 A 
ATOM     30  C   UNL     1      -1.737  -2.653  24.604  0.00  0.00    +0.004 A 
ATOM     31  C   UNL     1      -2.541  -2.830  24.551  0.00  0.00    +0.001 A 
ATOM     32  C   UNL     1      -3.099  -2.220  24.559  0.00  0.00    +0.017 A 
BRANCH  29  33
ATOM     33  C   UNL     1      -0.686  -1.691  24.718  0.00  0.00    +0.419 C 
ATOM     34  F   UNL     1       0.118  -1.515  24.770  0.00  0.00    -0.166 F 
ATOM     35  F   UNL     1      -0.691  -1.904  25.515  0.00  0.00    -0.166 F 
ATOM     36  F   UNL     1      -0.680  -1.478  23.921  0.00  0.00    -0.166 F 
ENDBRANCH  29  33
ENDBRANCH  26  27
ENDBRANCH  19  23
TORSDOF 7
ENDMDL
MODEL 5
REMARK VINA RESULT:     -11.5      1.752      2.763
REMARK  Name = 
REMARK  7 active torsions:
REMARK  status: ('A' for Active; 'I' for Inactive)
REMARK    1  A    between atoms: N_2  and  C_4
REMARK    2  A    between atoms: C_8  and  O_9
REMARK    3  A    between atoms: O_9  and  C_10
REMARK    4  A    between atoms: N_14  and  C_15
REMARK    5  A    between atoms: C_19  and  N_23
REMARK    6  A    between atoms: N_26  and  C_27
REMARK    7  A    between atoms: C_29  and  C_33
REMARK                            x       y       z     vdW  Elec       q    Type
REMARK                         _______ _______ _______ _____ _____    ______ ____
ROOT
ATOM     15  C   UNL     1      -1.046  -0.604  25.233  0.00  0.00    +0.170 C 
ATOM     16  C   UNL     1      -0.933  -0.550  26.048  0.00  0.00    +0.169 C 
ATOM     17  O   UNL     1      -0.560   0.168  26.206  0.00  0.00    -0.350 OA
ATOM     18  C   UNL     1      -0.443   0.558  25.489  0.00  0.00    +0.167 C 
ATOM     19  C   UNL     1      -0.140   1.243  25.143  0.00  0.00    +0.156 C 
ATOM     20  C   UNL     1      -0.253   1.189  24.328  0.00  0.00    +0.166 C 
ATOM     21  O   UNL     1      -0.626   0.470  24.170  0.00  0.00    -0.350 OA
ATOM     22  C   UNL     1      -0.743   0.080  24.888  0.00  0.00    +0.169 C 
ENDROOT
BRANCH  15  14
ATOM     10  C   UNL     1      -2.197  -1.444  24.870  0.00  0.00    +0.343 A 
ATOM     11  N   UNL     1      -2.309  -2.103  24.386  0.00  0.00    -0.071 NA
ATOM     12  N   UNL     1      -1.581  -2.299  24.050  0.00  0.00    -0.020 NA
ATOM     13  N   UNL     1      -1.020  -1.762  24.326  0.00  0.00    -0.040 NA
ATOM     14  N   UNL     1      -1.401  -1.233  24.833  0.00  0.00    -0.180 N 
BRANCH  10   9
ATOM      9  O   UNL     1      -2.779  -1.063  25.314  0.00  0.00    -0.421 OA
BRANCH   9   8
ATOM      4  C   UNL     1      -4.430   0.183  24.619  0.00  0.00    +0.051 A 
ATOM      5  C   UNL     1      -4.901  -0.378  24.238  0.00  0.00    +0.015 A 
ATOM      6  C   UNL     1      -4.664  -1.168  24.216  0.00  0.00    +0.004 A 
ATOM      7  C   UNL     1      -3.956  -1.396  24.574  0.00  0.00    +0.038 A 
ATOM      8  C   UNL     1      -3.487  -0.835  24.955  0.00  0.00    +0.150 A 
ATOM     37  C   UNL     1      -3.724  -0.046  24.978  0.00  0.00    +0.052 A 
BRANCH   4   2
ATOM      1  C   UNL     1      -4.387   1.505  24.076  0.00  0.00    +0.112 C 
ATOM      2  N   UNL     1      -4.668   0.974  24.642  0.00  0.00    -0.304 N 
ATOM      3  C   UNL     1      -5.185   1.232  25.230  0.00  0.00    +0.112 C 
ENDBRANCH   4   2
ENDBRANCH   9   8
ENDBRANCH  10   9
ENDBRANCH  15  14
BRANCH  19  23
ATOM     23  N   UNL     1       0.215   1.872  25.543  0.00  0.00    -0.184 NA
ATOM     24  C   UNL     1      -0.170   2.600  25.589  0.00  0.00    +0.344 C 
ATOM     25  O   UNL     1       0.184   3.229  25.989  0.00  0.00    -0.249 OA
ATOM     26  N   UNL     1      -0.909   2.700  25.236  0.00  0.00    -0.161 NA
BRANCH  26  27
ATOM     27  C   UNL     1      -1.294   3.428  25.283  0.00  0.00    +0.075 A 
ATOM     28  C   UNL     1      -2.035   3.481  25.642  0.00  0.00    +0.021 A 
ATOM     29  C   UNL     1      -2.420   4.209  25.689  0.00  0.00    +0.073 A 
ATOM     30  C   UNL     1      -2.063   4.885  25.376  0.00  0.00    +0.004 A 
ATOM     31  C   UNL     1      -1.322   4.832  25.017  0.00  0.00    +0.001 A 
ATOM     32  C   UNL     1      -0.938   4.103  24.970  0.00  0.00    +0.017 A 
BRANCH  29  33
ATOM     33  C   UNL     1      -3.160   4.263  26.047  0.00  0.00    +0.419 C 
ATOM     34  F   UNL     1      -3.902   4.316  26.406  0.00  0.00    -0.166 F 
ATOM     35  F   UNL     1      -2.802   4.261  26.790  0.00  0.00    -0.166 F 
ATOM     36  F   UNL     1      -3.520   4.264  25.305  0.00  0.00    -0.166 F 
ENDBRANCH  29  33
ENDBRANCH  26  27
ENDBRANCH  19  23
TORSDOF 7
ENDMDL
