REMARK  Name = 
REMARK  7 active torsions:
REMARK  status: ('A' for Active; 'I' for Inactive)
REMARK    1  A    between atoms: C_2  and  C_4
REMARK    2  A    between atoms: C_7  and  N_8
REMARK    3  A    between atoms: N_11  and  C_12
REMARK    4  A    between atoms: C_14  and  C_20
REMARK    5  A    between atoms: N_22  and  C_23
REMARK    6  A    between atoms: C_23  and  C_24
REMARK    7  A    between atoms: C_24  and  C_25
REMARK                            x       y       z     vdW  Elec       q    Type
REMARK                         _______ _______ _______ _____ _____    ______ ____
ROOT
ATOM     12  C   UNL     1      -2.143   2.888   0.000  0.00  0.00    +0.152 C 
ATOM     13  C   UNL     1      -1.429   2.475   0.000  0.00  0.00    -0.002 C 
ATOM     14  C   UNL     1      -1.429   1.650   0.000  0.00  0.00    +0.033 C 
ATOM     15  C   UNL     1      -2.143   1.238   0.000  0.00  0.00    +0.066 C 
ATOM     16  C   UNL     1      -2.858   1.650   0.000  0.00  0.00    +0.189 C 
ATOM     17  O   UNL     1      -3.572   1.238   0.000  0.00  0.00    -0.220 OA
ATOM     18  C   UNL     1      -2.858   2.475   0.000  0.00  0.00    +0.206 C 
ATOM     19  O   UNL     1      -3.572   2.888   0.000  0.00  0.00    -0.218 OA
ENDROOT
BRANCH  12  11
ATOM      8  N   UNL     1      -2.858   4.950   0.000  0.00  0.00    -0.161 NA
ATOM      9  C   UNL     1      -2.858   4.125   0.000  0.00  0.00    +0.344 C 
ATOM     10  O   UNL     1      -3.572   3.712   0.000  0.00  0.00    -0.249 OA
ATOM     11  N   UNL     1      -2.143   3.712   0.000  0.00  0.00    -0.181 NA
BRANCH   8   7
ATOM      4  C   UNL     1      -5.001   6.188   0.000  0.00  0.00    +0.035 A 
ATOM      5  C   UNL     1      -4.287   6.600   0.000  0.00  0.00    +0.004 A 
ATOM      6  C   UNL     1      -3.572   6.188   0.000  0.00  0.00    +0.017 A 
ATOM      7  C   UNL     1      -3.572   5.362   0.000  0.00  0.00    +0.075 A 
ATOM     28  C   UNL     1      -4.287   4.950   0.000  0.00  0.00    +0.017 A 
ATOM     29  C   UNL     1      -5.001   5.362   0.000  0.00  0.00    +0.004 A 
BRANCH   4   2
ATOM      1  C   UNL     1      -6.430   6.188   0.000  0.00  0.00    +0.077 C 
ATOM      2  C   UNL     1      -5.716   6.600   0.000  0.00  0.00    +0.173 C 
ATOM      3  O   UNL     1      -5.716   7.425   0.000  0.00  0.00    -0.291 OA
ENDBRANCH   4   2
ENDBRANCH   8   7
ENDBRANCH  12  11
BRANCH  14  20
ATOM     20  C   UNL     1      -0.715   1.238   0.000  0.00  0.00    +0.261 C 
ATOM     21  O   UNL     1      -0.715   0.412   0.000  0.00  0.00    -0.269 OA
ATOM     22  N   UNL     1       0.000   1.650   0.000  0.00  0.00    -0.201 NA
BRANCH  22  23
ATOM     23  C   UNL     1       0.715   1.238   0.000  0.00  0.00    +0.125 C 
BRANCH  23  24
ATOM     24  C   UNL     1       1.429   1.650   0.000  0.00  0.00    +0.112 C 
BRANCH  24  25
ATOM     25  C   UNL     1       2.143   1.238   0.000  0.00  0.00    +0.263 C 
ATOM     26  N   UNL     1       2.858   1.650   0.000  0.00  0.00    -0.088 NA
ATOM     27  O   UNL     1       2.143   0.412   0.000  0.00  0.00    -0.272 OA
ENDBRANCH  24  25
ENDBRANCH  23  24
ENDBRANCH  22  23
ENDBRANCH  14  20
TORSDOF 7
