REMARK  Name = 
REMARK  8 active torsions:
REMARK  status: ('A' for Active; 'I' for Inactive)
REMARK    1  A    between atoms: N_2  and  C_3
REMARK    2  A    between atoms: N_2  and  C_22
REMARK    3  A    between atoms: C_3  and  C_4
REMARK    4  A    between atoms: C_4  and  C_5
REMARK    5  A    between atoms: C_10  and  C_11
REMARK    6  A    between atoms: C_11  and  C_12
REMARK    7  A    between atoms: C_15  and  C_17
REMARK    8  A    between atoms: C_17  and  C_18
REMARK                            x       y       z     vdW  Elec       q    Type
REMARK                         _______ _______ _______ _____ _____    ______ ____
ROOT
ATOM      5  C   UNL     1      -2.143  -1.238   0.000  0.00  0.00    +0.022 C 
ATOM      6  C   UNL     1      -1.429  -1.650   0.000  0.00  0.00    +0.093 C 
ATOM      7  N   UNL     1      -1.429  -2.475   0.000  0.00  0.00    -0.280 N 
ATOM      8  C   UNL     1      -2.143  -2.888   0.000  0.00  0.00    +0.093 C 
ATOM      9  C   UNL     1      -2.858  -2.475   0.000  0.00  0.00    +0.022 C 
ATOM     10  C   UNL     1      -2.858  -1.650   0.000  0.00  0.00    +0.015 C 
ATOM     15  C   UNL     1      -0.715  -2.888   0.000  0.00  0.00    +0.226 C 
ATOM     16  O   UNL     1       0.000  -2.475   0.000  0.00  0.00    -0.275 OA
ENDROOT
BRANCH   5   4
ATOM      4  C   UNL     1      -2.143  -0.412   0.000  0.00  0.00    +0.023 C 
BRANCH   4   3
ATOM      3  C   UNL     1      -1.429   0.000   0.000  0.00  0.00    +0.091 C 
BRANCH   3   2
ATOM      1  C   UNL     1      -0.715   1.238   0.000  0.00  0.00    +0.112 C 
ATOM      2  N   UNL     1      -1.429   0.825   0.000  0.00  0.00    -0.306 N 
BRANCH   2  22
ATOM     22  C   UNL     1      -2.143   1.238   0.000  0.00  0.00    +0.048 A 
ATOM     23  C   UNL     1      -2.858   0.825   0.000  0.00  0.00    +0.015 A 
ATOM     24  C   UNL     1      -3.572   1.238   0.000  0.00  0.00    +0.001 A 
ATOM     25  C   UNL     1      -3.572   2.062   0.000  0.00  0.00    +0.000 A 
ATOM     26  C   UNL     1      -2.858   2.475   0.000  0.00  0.00    +0.001 A 
ATOM     27  C   UNL     1      -2.143   2.062   0.000  0.00  0.00    +0.015 A 
ENDBRANCH   2  22
ENDBRANCH   3   2
ENDBRANCH   4   3
ENDBRANCH   5   4
BRANCH  10  11
ATOM     11  C   UNL     1      -3.572  -1.238   0.000  0.00  0.00    +0.114 C 
BRANCH  11  12
ATOM     12  C   UNL     1      -4.287  -1.650   0.000  0.00  0.00    +0.365 C 
ATOM     13  O   UNL     1      -4.287  -2.475   0.000  0.00  0.00    -0.246 OA
ATOM     14  O   UNL     1      -5.001  -1.238   0.000  0.00  0.00    -0.246 OA
ENDBRANCH  11  12
ENDBRANCH  10  11
BRANCH  15  17
ATOM     17  C   UNL     1      -0.715  -3.712   0.000  0.00  0.00    +0.085 C 
BRANCH  17  18
ATOM     18  C   UNL     1       0.000  -4.125   0.000  0.00  0.00    +0.009 C 
ATOM     19  C   UNL     1       0.715  -4.537   0.000  0.00  0.00    +0.000 C 
ATOM     20  C   UNL     1       0.412  -3.410   0.000  0.00  0.00    +0.000 C 
ATOM     21  C   UNL     1      -0.412  -4.840   0.000  0.00  0.00    +0.000 C 
ENDBRANCH  17  18
ENDBRANCH  15  17
TORSDOF 8
