REMARK  Name = 
REMARK  8 active torsions:
REMARK  status: ('A' for Active; 'I' for Inactive)
REMARK    1  A    between atoms: O_2  and  C_3
REMARK    2  A    between atoms: C_6  and  C_7
REMARK    3  A    between atoms: C_7  and  C_8
REMARK    4  A    between atoms: C_8  and  N_9
REMARK    5  A    between atoms: C_8  and  C_32
REMARK    6  A    between atoms: C_10  and  C_12
REMARK    7  A    between atoms: C_19  and  N_21
REMARK    8  A    between atoms: N_24  and  C_25
REMARK                            x       y       z     vdW  Elec       q    Type
REMARK                         _______ _______ _______ _____ _____    ______ ____
ROOT
ATOM     12  C   UNL     1      -3.106  -5.532   0.000  0.00  0.00    +0.200 C 
ATOM     13  O   UNL     1      -3.388  -4.757   0.000  0.00  0.00    -0.216 OA
ATOM     14  C   UNL     1      -2.576  -6.164   0.000  0.00  0.00    +0.075 C 
ATOM     15  C   UNL     1      -2.858  -6.939   0.000  0.00  0.00    +0.187 C 
ATOM     16  O   UNL     1      -2.328  -7.572   0.000  0.00  0.00    -0.220 OA
ATOM     17  C   UNL     1      -3.670  -7.083   0.000  0.00  0.00    +0.202 C 
ATOM     18  O   UNL     1      -3.953  -7.858   0.000  0.00  0.00    -0.219 OA
ATOM     19  C   UNL     1      -4.201  -6.451   0.000  0.00  0.00    +0.133 C 
ATOM     20  C   UNL     1      -3.918  -5.676   0.000  0.00  0.00    +0.064 C 
ENDROOT
BRANCH  19  21
ATOM     21  N   UNL     1      -5.013  -6.594   0.000  0.00  0.00    -0.186 NA
ATOM     22  C   UNL     1      -5.543  -5.962   0.000  0.00  0.00    +0.344 C 
ATOM     23  O   UNL     1      -5.261  -5.187   0.000  0.00  0.00    -0.249 OA
ATOM     24  N   UNL     1      -6.356  -6.105   0.000  0.00  0.00    -0.161 NA
BRANCH  24  25
ATOM     25  C   UNL     1      -6.638  -6.880   0.000  0.00  0.00    +0.075 A 
ATOM     26  C   UNL     1      -6.108  -7.513   0.000  0.00  0.00    +0.016 A 
ATOM     27  C   UNL     1      -6.390  -8.288   0.000  0.00  0.00    -0.003 A 
ATOM     28  C   UNL     1      -7.202  -8.431   0.000  0.00  0.00    -0.022 A 
ATOM     29  C   UNL     1      -7.484  -9.206   0.000  0.00  0.00    +0.031 C 
ATOM     30  C   UNL     1      -7.733  -7.799   0.000  0.00  0.00    -0.003 A 
ATOM     31  C   UNL     1      -7.450  -7.024   0.000  0.00  0.00    +0.016 A 
ENDBRANCH  24  25
ENDBRANCH  19  21
BRANCH  12  10
ATOM      9  N   UNL     1      -2.392  -4.295   0.000  0.00  0.00    -0.195 NA
ATOM     10  C   UNL     1      -2.392  -5.120   0.000  0.00  0.00    +0.269 C 
ATOM     11  O   UNL     1      -1.677  -5.532   0.000  0.00  0.00    -0.271 OA
BRANCH   9   8
ATOM      8  C   UNL     1      -1.677  -3.882   0.000  0.00  0.00    +0.179 C 
BRANCH   8  32
ATOM     32  C   UNL     1      -0.963  -4.295   0.000  0.00  0.00    +0.281 C 
ATOM     33  N   UNL     1      -0.963  -5.120   0.000  0.00  0.00    -0.086 NA
ATOM     34  O   UNL     1      -0.248  -3.882   0.000  0.00  0.00    -0.270 OA
ENDBRANCH   8  32
BRANCH   8   7
ATOM      7  C   UNL     1      -1.677  -3.057   0.000  0.00  0.00    +0.057 C 
BRANCH   7   6
ATOM      3  C   UNL     1       0.466  -1.820   0.000  0.00  0.00    +0.139 A 
ATOM      4  C   UNL     1       0.466  -2.645   0.000  0.00  0.00    +0.037 A 
ATOM      5  C   UNL     1      -0.248  -3.057   0.000  0.00  0.00    -0.001 A 
ATOM      6  C   UNL     1      -0.963  -2.645   0.000  0.00  0.00    -0.020 A 
ATOM     35  C   UNL     1      -0.963  -1.820   0.000  0.00  0.00    -0.001 A 
ATOM     36  C   UNL     1      -0.248  -1.407   0.000  0.00  0.00    +0.037 A 
BRANCH   3   2
ATOM      1  C   UNL     1       1.181  -0.582   0.000  0.00  0.00    +0.252 C 
ATOM      2  O   UNL     1       1.181  -1.407   0.000  0.00  0.00    -0.471 OA
ENDBRANCH   3   2
ENDBRANCH   7   6
ENDBRANCH   8   7
ENDBRANCH   9   8
ENDBRANCH  12  10
TORSDOF 8
