MODEL 1
REMARK VINA RESULT:     -11.8      0.000      0.000
REMARK  Name = 
REMARK  6 active torsions:
REMARK  status: ('A' for Active; 'I' for Inactive)
REMARK    1  A    between atoms: C_2  and  C_4
REMARK    2  A    between atoms: C_2  and  C_8
REMARK    3  A    between atoms: C_4  and  C_5
REMARK    4  A    between atoms: C_8  and  C_9
REMARK    5  A    between atoms: C_16  and  C_17
REMARK    6  A    between atoms: C_19  and  C_22
REMARK                            x       y       z     vdW  Elec       q    Type
REMARK                         _______ _______ _______ _____ _____    ______ ____
ROOT
ATOM      9  C   UNL     1      -3.755   0.356  24.692  0.00  0.00    +0.226 C 
ATOM     10  O   UNL     1      -2.973   0.399  24.431  0.00  0.00    -0.275 OA
ATOM     11  N   UNL     1      -4.171   1.047  24.862  0.00  0.00    -0.267 N 
ATOM     12  C   UNL     1      -4.952   1.004  25.123  0.00  0.00    +0.141 C 
ATOM     13  C   UNL     1      -5.369   1.695  25.293  0.00  0.00    +0.094 A 
ATOM     14  C   UNL     1      -5.005   2.429  25.203  0.00  0.00    +0.078 A 
ATOM     15  C   UNL     1      -4.222   2.473  24.942  0.00  0.00    +0.077 C 
ATOM     16  C   UNL     1      -3.806   1.781  24.772  0.00  0.00    +0.161 C 
ATOM     28  N   UNL     1      -5.549   3.012  25.412  0.00  0.00    -0.227 NA
ATOM     29  C   UNL     1      -6.251   2.638  25.631  0.00  0.00    +0.198 A 
ATOM     30  N   UNL     1      -6.139   1.825  25.558  0.00  0.00    -0.225 NA
ENDROOT
BRANCH  16  17
ATOM     17  C   UNL     1      -3.025   1.825  24.512  0.00  0.00    +0.255 A 
ATOM     18  N   UNL     1      -2.359   1.922  24.988  0.00  0.00    -0.189 NA
ATOM     19  C   UNL     1      -1.694   1.937  24.499  0.00  0.00    +0.203 A 
ATOM     20  N   UNL     1      -1.950   1.848  23.720  0.00  0.00    -0.056 NA
ATOM     21  O   UNL     1      -2.773   1.779  23.727  0.00  0.00    -0.335 OA
BRANCH  19  22
ATOM     22  C   UNL     1      -0.912   2.024  24.746  0.00  0.00    +0.042 A 
ATOM     23  C   UNL     1      -0.295   1.782  24.256  0.00  0.00    +0.024 A 
ATOM     24  C   UNL     1       0.488   1.870  24.504  0.00  0.00    +0.099 A 
ATOM     25  N   UNL     1       0.652   2.200  25.242  0.00  0.00    -0.242 NA
ATOM     26  C   UNL     1       0.034   2.442  25.732  0.00  0.00    +0.099 A 
ATOM     27  C   UNL     1      -0.748   2.354  25.485  0.00  0.00    +0.024 A 
ENDBRANCH  19  22
ENDBRANCH  16  17
BRANCH   9   8
ATOM      8  C   UNL     1      -4.119  -0.378  24.782  0.00  0.00    +0.086 C 
BRANCH   8   2
ATOM      1  C   UNL     1      -3.422  -1.079  25.403  0.00  0.00    +0.001 C 
ATOM      2  C   UNL     1      -3.698  -1.071  24.625  0.00  0.00    +0.019 C 
ATOM      3  C   UNL     1      -3.973  -1.062  23.848  0.00  0.00    +0.001 C 
BRANCH   2   4
ATOM      4  C   UNL     1      -3.277  -1.762  24.468  0.00  0.00    +0.115 C 
BRANCH   4   5
ATOM      5  C   UNL     1      -3.628  -2.497  24.601  0.00  0.00    +0.365 C 
ATOM      6  O   UNL     1      -4.065  -2.860  24.002  0.00  0.00    -0.246 OA
ATOM      7  O   UNL     1      -3.541  -2.870  25.332  0.00  0.00    -0.246 OA
ENDBRANCH   4   5
ENDBRANCH   2   4
ENDBRANCH   8   2
ENDBRANCH   9   8
TORSDOF 6
ENDMDL
MODEL 2
REMARK VINA RESULT:     -11.5      1.446      3.879
REMARK  Name = 
REMARK  6 active torsions:
REMARK  status: ('A' for Active; 'I' for Inactive)
REMARK    1  A    between atoms: C_2  and  C_4
REMARK    2  A    between atoms: C_2  and  C_8
REMARK    3  A    between atoms: C_4  and  C_5
REMARK    4  A    between atoms: C_8  and  C_9
REMARK    5  A    between atoms: C_16  and  C_17
REMARK    6  A    between atoms: C_19  and  C_22
REMARK                            x       y       z     vdW  Elec       q    Type
REMARK                         _______ _______ _______ _____ _____    ______ ____
ROOT
ATOM      9  C   UNL     1      -2.566   1.730  24.746  0.00  0.00    +0.226 C 
ATOM     10  O   UNL     1      -2.446   0.980  24.423  0.00  0.00    -0.275 OA
ATOM     11  N   UNL     1      -3.332   2.006  24.875  0.00  0.00    -0.267 N 
ATOM     12  C   UNL     1      -3.452   2.755  25.198  0.00  0.00    +0.141 C 
ATOM     13  C   UNL     1      -4.219   3.031  25.328  0.00  0.00    +0.094 A 
ATOM     14  C   UNL     1      -4.866   2.558  25.134  0.00  0.00    +0.078 A 
ATOM     15  C   UNL     1      -4.746   1.807  24.811  0.00  0.00    +0.077 C 
ATOM     16  C   UNL     1      -3.979   1.532  24.682  0.00  0.00    +0.161 C 
ATOM     28  N   UNL     1      -5.552   2.974  25.323  0.00  0.00    -0.227 NA
ATOM     29  C   UNL     1      -5.330   3.705  25.633  0.00  0.00    +0.198 A 
ATOM     30  N   UNL     1      -4.506   3.740  25.636  0.00  0.00    -0.225 NA
ENDROOT
BRANCH  16  17
ATOM     17  C   UNL     1      -3.861   0.782  24.359  0.00  0.00    +0.255 A 
ATOM     18  N   UNL     1      -3.909   0.066  24.763  0.00  0.00    -0.189 NA
ATOM     19  C   UNL     1      -3.751  -0.542  24.228  0.00  0.00    +0.203 A 
ATOM     20  N   UNL     1      -3.604  -0.201  23.492  0.00  0.00    -0.056 NA
ATOM     21  O   UNL     1      -3.672   0.618  23.572  0.00  0.00    -0.335 OA
BRANCH  19  22
ATOM     22  C   UNL     1      -3.741  -1.349  24.400  0.00  0.00    +0.042 A 
ATOM     23  C   UNL     1      -4.086  -1.886  23.878  0.00  0.00    +0.024 A 
ATOM     24  C   UNL     1      -4.075  -2.693  24.051  0.00  0.00    +0.099 A 
ATOM     25  N   UNL     1      -3.720  -2.962  24.744  0.00  0.00    -0.242 NA
ATOM     26  C   UNL     1      -3.375  -2.425  25.266  0.00  0.00    +0.099 A 
ATOM     27  C   UNL     1      -3.385  -1.618  25.095  0.00  0.00    +0.024 A 
ENDBRANCH  19  22
ENDBRANCH  16  17
BRANCH   9   8
ATOM      8  C   UNL     1      -1.919   2.204  24.939  0.00  0.00    +0.086 C 
BRANCH   8   2
ATOM      1  C   UNL     1      -1.207   1.621  25.658  0.00  0.00    +0.001 C 
ATOM      2  C   UNL     1      -1.154   1.900  24.883  0.00  0.00    +0.019 C 
ATOM      3  C   UNL     1      -1.100   2.178  24.109  0.00  0.00    +0.001 C 
BRANCH   2   4
ATOM      4  C   UNL     1      -0.389   1.597  24.827  0.00  0.00    +0.115 C 
BRANCH   4   5
ATOM      5  C   UNL     1       0.260   2.086  24.969  0.00  0.00    +0.365 C 
ATOM      6  O   UNL     1       0.755   2.306  24.346  0.00  0.00    -0.246 OA
ATOM      7  O   UNL     1       0.415   2.355  25.733  0.00  0.00    -0.246 OA
ENDBRANCH   4   5
ENDBRANCH   2   4
ENDBRANCH   8   2
ENDBRANCH   9   8
TORSDOF 6
ENDMDL
MODEL 3
REMARK VINA RESULT:     -11.2      0.897      3.625
REMARK  Name = 
REMARK  6 active torsions:
REMARK  status: ('A' for Active; 'I' for Inactive)
REMARK    1  A    between atoms: C_2  and  C_4
REMARK    2  A    between atoms: C_2  and  C_8
REMARK    3  A    between atoms: C_4  and  C_5
REMARK    4  A    between atoms: C_8  and  C_9
REMARK    5  A    between atoms: C_16  and  C_17
REMARK    6  A    between atoms: C_19  and  C_22
REMARK                            x       y       z     vdW  Elec       q    Type
REMARK                         _______ _______ _______ _____ _____    ______ ____
ROOT
ATOM      9  C   UNL     1      -2.669   0.146  24.498  0.00  0.00    +0.226 C 
ATOM     10  O   UNL     1      -3.442   0.433  24.461  0.00  0.00    -0.275 OA
ATOM     11  N   UNL     1      -2.032   0.662  24.411  0.00  0.00    -0.267 N 
ATOM     12  C   UNL     1      -1.260   0.374  24.448  0.00  0.00    +0.141 C 
ATOM     13  C   UNL     1      -0.622   0.891  24.362  0.00  0.00    +0.094 A 
ATOM     14  C   UNL     1      -0.757   1.695  24.239  0.00  0.00    +0.078 A 
ATOM     15  C   UNL     1      -1.530   1.983  24.201  0.00  0.00    +0.077 C 
ATOM     16  C   UNL     1      -2.167   1.467  24.288  0.00  0.00    +0.161 C 
ATOM     28  N   UNL     1      -0.025   2.069  24.173  0.00  0.00    -0.227 NA
ATOM     29  C   UNL     1       0.562   1.496  24.256  0.00  0.00    +0.198 A 
ATOM     30  N   UNL     1       0.193   0.768  24.373  0.00  0.00    -0.225 NA
ENDROOT
BRANCH  16  17
ATOM     17  C   UNL     1      -2.938   1.755  24.251  0.00  0.00    +0.255 A 
ATOM     18  N   UNL     1      -3.349   2.125  24.863  0.00  0.00    -0.189 NA
ATOM     19  C   UNL     1      -4.100   2.323  24.585  0.00  0.00    +0.203 A 
ATOM     20  N   UNL     1      -4.154   2.075  23.800  0.00  0.00    -0.056 NA
ATOM     21  O   UNL     1      -3.436   1.724  23.593  0.00  0.00    -0.335 OA
BRANCH  19  22
ATOM     22  C   UNL     1      -4.692   2.702  25.016  0.00  0.00    +0.042 A 
ATOM     23  C   UNL     1      -4.612   3.498  25.215  0.00  0.00    +0.024 A 
ATOM     24  C   UNL     1      -5.205   3.877  25.647  0.00  0.00    +0.099 A 
ATOM     25  N   UNL     1      -5.877   3.459  25.878  0.00  0.00    -0.242 NA
ATOM     26  C   UNL     1      -5.957   2.663  25.679  0.00  0.00    +0.099 A 
ATOM     27  C   UNL     1      -5.365   2.284  25.248  0.00  0.00    +0.024 A 
ENDBRANCH  19  22
ENDBRANCH  16  17
BRANCH   9   8
ATOM      8  C   UNL     1      -2.534  -0.658  24.621  0.00  0.00    +0.086 C 
BRANCH   8   2
ATOM      1  C   UNL     1      -3.145  -1.058  25.533  0.00  0.00    +0.001 C 
ATOM      2  C   UNL     1      -3.172  -1.174  24.716  0.00  0.00    +0.019 C 
ATOM      3  C   UNL     1      -3.199  -1.291  23.900  0.00  0.00    +0.001 C 
BRANCH   2   4
ATOM      4  C   UNL     1      -3.809  -1.689  24.810  0.00  0.00    +0.115 C 
BRANCH   4   5
ATOM      5  C   UNL     1      -3.690  -2.504  24.763  0.00  0.00    +0.365 C 
ATOM      6  O   UNL     1      -3.911  -2.915  24.082  0.00  0.00    -0.246 OA
ATOM      7  O   UNL     1      -3.352  -2.910  25.397  0.00  0.00    -0.246 OA
ENDBRANCH   4   5
ENDBRANCH   2   4
ENDBRANCH   8   2
ENDBRANCH   9   8
TORSDOF 6
ENDMDL
MODEL 4
REMARK VINA RESULT:     -11.0      1.610      4.432
REMARK  Name = 
REMARK  6 active torsions:
REMARK  status: ('A' for Active; 'I' for Inactive)
REMARK    1  A    between atoms: C_2  and  C_4
REMARK    2  A    between atoms: C_2  and  C_8
REMARK    3  A    between atoms: C_4  and  C_5
REMARK    4  A    between atoms: C_8  and  C_9
REMARK    5  A    between atoms: C_16  and  C_17
REMARK    6  A    between atoms: C_19  and  C_22
REMARK                            x       y       z     vdW  Elec       q    Type
REMARK                         _______ _______ _______ _____ _____    ______ ____
ROOT
ATOM      9  C   UNL     1      -2.108   0.615  24.610  0.00  0.00    +0.226 C 
ATOM     10  O   UNL     1      -2.516   1.329  24.540  0.00  0.00    -0.275 OA
ATOM     11  N   UNL     1      -2.520  -0.099  24.590  0.00  0.00    -0.267 N 
ATOM     12  C   UNL     1      -2.112  -0.812  24.660  0.00  0.00    +0.141 C 
ATOM     13  C   UNL     1      -2.524  -1.527  24.641  0.00  0.00    +0.094 A 
ATOM     14  C   UNL     1      -3.344  -1.528  24.551  0.00  0.00    +0.078 A 
ATOM     15  C   UNL     1      -3.753  -0.814  24.482  0.00  0.00    +0.077 C 
ATOM     16  C   UNL     1      -3.340  -0.100  24.501  0.00  0.00    +0.161 C 
ATOM     28  N   UNL     1      -3.599  -2.312  24.552  0.00  0.00    -0.227 NA
ATOM     29  C   UNL     1      -2.938  -2.795  24.641  0.00  0.00    +0.198 A 
ATOM     30  N   UNL     1      -2.273  -2.310  24.696  0.00  0.00    -0.225 NA
ENDROOT
BRANCH  16  17
ATOM     17  C   UNL     1      -3.749   0.613  24.431  0.00  0.00    +0.255 A 
ATOM     18  N   UNL     1      -4.159   0.999  25.033  0.00  0.00    -0.189 NA
ATOM     19  C   UNL     1      -4.483   1.691  24.720  0.00  0.00    +0.203 A 
ATOM     20  N   UNL     1      -4.273   1.732  23.924  0.00  0.00    -0.056 NA
ATOM     21  O   UNL     1      -3.819   1.066  23.745  0.00  0.00    -0.335 OA
BRANCH  19  22
ATOM     22  C   UNL     1      -4.937   2.243  25.132  0.00  0.00    +0.042 A 
ATOM     23  C   UNL     1      -5.619   2.003  25.529  0.00  0.00    +0.024 A 
ATOM     24  C   UNL     1      -6.073   2.556  25.940  0.00  0.00    +0.099 A 
ATOM     25  N   UNL     1      -5.844   3.348  25.955  0.00  0.00    -0.242 NA
ATOM     26  C   UNL     1      -5.162   3.588  25.559  0.00  0.00    +0.099 A 
ATOM     27  C   UNL     1      -4.708   3.036  25.147  0.00  0.00    +0.024 A 
ENDBRANCH  19  22
ENDBRANCH  16  17
BRANCH   9   8
ATOM      8  C   UNL     1      -1.288   0.616  24.699  0.00  0.00    +0.086 C 
BRANCH   8   2
ATOM      1  C   UNL     1      -0.785   1.298  23.895  0.00  0.00    +0.001 C 
ATOM      2  C   UNL     1      -0.876   1.331  24.715  0.00  0.00    +0.019 C 
ATOM      3  C   UNL     1      -0.966   1.365  25.534  0.00  0.00    +0.001 C 
BRANCH   2   4
ATOM      4  C   UNL     1      -0.463   2.045  24.732  0.00  0.00    +0.115 C 
BRANCH   4   5
ATOM      5  C   UNL     1       0.339   2.054  24.924  0.00  0.00    +0.365 C 
ATOM      6  O   UNL     1       0.579   2.262  25.686  0.00  0.00    -0.246 OA
ATOM      7  O   UNL     1       0.902   1.855  24.355  0.00  0.00    -0.246 OA
ENDBRANCH   4   5
ENDBRANCH   2   4
ENDBRANCH   8   2
ENDBRANCH   9   8
TORSDOF 6
ENDMDL
MODEL 5
REMARK VINA RESULT:     -10.8      1.610      4.651
REMARK  Name = 
REMARK  6 active torsions:
REMARK  status: ('A' for Active; 'I' for Inactive)
REMARK    1  A    between atoms: C_2  and  C_4
REMARK    2  A    between atoms: C_2  and  C_8
REMARK    3  A    between atoms: C_4  and  C_5
REMARK    4  A    between atoms: C_8  and  C_9
REMARK    5  A    between atoms: C_16  and  C_17
REMARK    6  A    between atoms: C_19  and  C_22
REMARK                            x       y       z     vdW  Elec       q    Type
REMARK                         _______ _______ _______ _____ _____    ______ ____
ROOT
ATOM      9  C   UNL     1      -3.046   1.727  24.876  0.00  0.00    +0.226 C 
ATOM     10  O   UNL     1      -3.508   1.067  25.056  0.00  0.00    -0.275 OA
ATOM     11  N   UNL     1      -2.233   1.644  24.764  0.00  0.00    -0.267 N 
ATOM     12  C   UNL     1      -1.772   2.303  24.584  0.00  0.00    +0.141 C 
ATOM     13  C   UNL     1      -0.959   2.220  24.472  0.00  0.00    +0.094 A 
ATOM     14  C   UNL     1      -0.607   1.477  24.539  0.00  0.00    +0.078 A 
ATOM     15  C   UNL     1      -1.069   0.817  24.720  0.00  0.00    +0.077 C 
ATOM     16  C   UNL     1      -1.882   0.901  24.832  0.00  0.00    +0.161 C 
ATOM     28  N   UNL     1       0.201   1.564  24.400  0.00  0.00    -0.227 NA
ATOM     29  C   UNL     1       0.349   2.360  24.246  0.00  0.00    +0.198 A 
ATOM     30  N   UNL     1      -0.368   2.765  24.290  0.00  0.00    -0.225 NA
ENDROOT
BRANCH  16  17
ATOM     17  C   UNL     1      -2.342   0.240  25.012  0.00  0.00    +0.255 A 
ATOM     18  N   UNL     1      -2.597  -0.335  24.478  0.00  0.00    -0.189 NA
ATOM     19  C   UNL     1      -3.041  -0.891  24.894  0.00  0.00    +0.203 A 
ATOM     20  N   UNL     1      -3.062  -0.660  25.685  0.00  0.00    -0.056 NA
ATOM     21  O   UNL     1      -2.630   0.040  25.759  0.00  0.00    -0.335 OA
BRANCH  19  22
ATOM     22  C   UNL     1      -3.402  -1.561  24.575  0.00  0.00    +0.042 A 
ATOM     23  C   UNL     1      -4.024  -1.479  24.040  0.00  0.00    +0.024 A 
ATOM     24  C   UNL     1      -4.384  -2.150  23.720  0.00  0.00    +0.099 A 
ATOM     25  N   UNL     1      -4.121  -2.901  23.936  0.00  0.00    -0.242 NA
ATOM     26  C   UNL     1      -3.499  -2.983  24.471  0.00  0.00    +0.099 A 
ATOM     27  C   UNL     1      -3.139  -2.313  24.791  0.00  0.00    +0.024 A 
ENDBRANCH  19  22
ENDBRANCH  16  17
BRANCH   9   8
ATOM      8  C   UNL     1      -3.398   2.470  24.809  0.00  0.00    +0.086 C 
BRANCH   8   2
ATOM      1  C   UNL     1      -4.352   2.423  24.137  0.00  0.00    +0.001 C 
ATOM      2  C   UNL     1      -4.208   2.557  24.939  0.00  0.00    +0.019 C 
ATOM      3  C   UNL     1      -4.066   2.690  25.740  0.00  0.00    +0.001 C 
BRANCH   2   4
ATOM      4  C   UNL     1      -5.018   2.643  25.069  0.00  0.00    +0.115 C 
BRANCH   4   5
ATOM      5  C   UNL     1      -5.305   3.319  25.444  0.00  0.00    +0.365 C 
ATOM      6  O   UNL     1      -5.743   3.251  26.141  0.00  0.00    -0.246 OA
ATOM      7  O   UNL     1      -5.156   4.064  25.124  0.00  0.00    -0.246 OA
ENDBRANCH   4   5
ENDBRANCH   2   4
ENDBRANCH   8   2
ENDBRANCH   9   8
TORSDOF 6
ENDMDL
MODEL 6
REMARK VINA RESULT:     -10.7      1.888      3.878
REMARK  Name = 
REMARK  6 active torsions:
REMARK  status: ('A' for Active; 'I' for Inactive)
REMARK    1  A    between atoms: C_2  and  C_4
REMARK    2  A    between atoms: C_2  and  C_8
REMARK    3  A    between atoms: C_4  and  C_5
REMARK    4  A    between atoms: C_8  and  C_9
REMARK    5  A    between atoms: C_16  and  C_17
REMARK    6  A    between atoms: C_19  and  C_22
REMARK                            x       y       z     vdW  Elec       q    Type
REMARK                         _______ _______ _______ _____ _____    ______ ____
ROOT
ATOM      9  C   UNL     1      -2.889   2.627  24.995  0.00  0.00    +0.226 C 
ATOM     10  O   UNL     1      -2.269   2.140  24.752  0.00  0.00    -0.275 OA
ATOM     11  N   UNL     1      -3.660   2.337  25.011  0.00  0.00    -0.267 N 
ATOM     12  C   UNL     1      -4.279   2.824  25.254  0.00  0.00    +0.141 C 
ATOM     13  C   UNL     1      -5.052   2.534  25.270  0.00  0.00    +0.094 A 
ATOM     14  C   UNL     1      -5.204   1.756  25.043  0.00  0.00    +0.078 A 
ATOM     15  C   UNL     1      -4.585   1.268  24.800  0.00  0.00    +0.077 C 
ATOM     16  C   UNL     1      -3.813   1.559  24.784  0.00  0.00    +0.161 C 
ATOM     28  N   UNL     1      -6.015   1.624  25.115  0.00  0.00    -0.227 NA
ATOM     29  C   UNL     1      -6.364   2.320  25.387  0.00  0.00    +0.198 A 
ATOM     30  N   UNL     1      -5.768   2.882  25.483  0.00  0.00    -0.225 NA
ENDROOT
BRANCH  16  17
ATOM     17  C   UNL     1      -3.194   1.070  24.541  0.00  0.00    +0.255 A 
ATOM     18  N   UNL     1      -2.872   0.444  24.970  0.00  0.00    -0.189 NA
ATOM     19  C   UNL     1      -2.267   0.110  24.519  0.00  0.00    +0.203 A 
ATOM     20  N   UNL     1      -2.216   0.529  23.811  0.00  0.00    -0.056 NA
ATOM     21  O   UNL     1      -2.789   1.123  23.823  0.00  0.00    -0.335 OA
BRANCH  19  22
ATOM     22  C   UNL     1      -1.797  -0.532  24.739  0.00  0.00    +0.042 A 
ATOM     23  C   UNL     1      -1.074  -0.404  25.115  0.00  0.00    +0.024 A 
ATOM     24  C   UNL     1      -0.605  -1.046  25.335  0.00  0.00    +0.099 A 
ATOM     25  N   UNL     1      -0.858  -1.815  25.177  0.00  0.00    -0.242 NA
ATOM     26  C   UNL     1      -1.580  -1.943  24.800  0.00  0.00    +0.099 A 
ATOM     27  C   UNL     1      -2.050  -1.301  24.581  0.00  0.00    +0.024 A 
ENDBRANCH  19  22
ENDBRANCH  16  17
BRANCH   9   8
ATOM      8  C   UNL     1      -2.736   3.405  25.223  0.00  0.00    +0.086 C 
BRANCH   8   2
ATOM      1  C   UNL     1      -1.873   3.475  26.006  0.00  0.00    +0.001 C 
ATOM      2  C   UNL     1      -1.962   3.693  25.215  0.00  0.00    +0.019 C 
ATOM      3  C   UNL     1      -2.051   3.912  24.425  0.00  0.00    +0.001 C 
BRANCH   2   4
ATOM      4  C   UNL     1      -1.190   3.981  25.208  0.00  0.00    +0.115 C 
BRANCH   4   5
ATOM      5  C   UNL     1      -1.048   4.778  25.051  0.00  0.00    +0.365 C 
ATOM      6  O   UNL     1      -0.439   4.996  24.537  0.00  0.00    -0.246 OA
ATOM      7  O   UNL     1      -1.514   5.359  25.406  0.00  0.00    -0.246 OA
ENDBRANCH   4   5
ENDBRANCH   2   4
ENDBRANCH   8   2
ENDBRANCH   9   8
TORSDOF 6
ENDMDL
MODEL 7
REMARK VINA RESULT:     -10.4      2.209      3.990
REMARK  Name = 
REMARK  6 active torsions:
REMARK  status: ('A' for Active; 'I' for Inactive)
REMARK    1  A    between atoms: C_2  and  C_4
REMARK    2  A    between atoms: C_2  and  C_8
REMARK    3  A    between atoms: C_4  and  C_5
REMARK    4  A    between atoms: C_8  and  C_9
REMARK    5  A    between atoms: C_16  and  C_17
REMARK    6  A    between atoms: C_19  and  C_22
REMARK                            x       y       z     vdW  Elec       q    Type
REMARK                         _______ _______ _______ _____ _____    ______ ____
ROOT
ATOM      9  C   UNL     1      -1.307   0.389  24.750  0.00  0.00    +0.226 C 
ATOM     10  O   UNL     1      -1.592   0.982  25.248  0.00  0.00    -0.275 OA
ATOM     11  N   UNL     1      -0.590   0.491  24.355  0.00  0.00    -0.267 N 
ATOM     12  C   UNL     1      -0.305  -0.101  23.858  0.00  0.00    +0.141 C 
ATOM     13  C   UNL     1       0.412   0.000  23.463  0.00  0.00    +0.094 A 
ATOM     14  C   UNL     1       0.845   0.695  23.567  0.00  0.00    +0.078 A 
ATOM     15  C   UNL     1       0.560   1.288  24.065  0.00  0.00    +0.077 C 
ATOM     16  C   UNL     1      -0.157   1.186  24.459  0.00  0.00    +0.161 C 
ATOM     28  N   UNL     1       1.529   0.640  23.109  0.00  0.00    -0.227 NA
ATOM     29  C   UNL     1       1.519  -0.088  22.722  0.00  0.00    +0.198 A 
ATOM     30  N   UNL     1       0.829  -0.483  22.941  0.00  0.00    -0.225 NA
ENDROOT
BRANCH  16  17
ATOM     17  C   UNL     1      -0.441   1.779  24.957  0.00  0.00    +0.255 A 
ATOM     18  N   UNL     1      -0.800   2.482  24.720  0.00  0.00    -0.189 NA
ATOM     19  C   UNL     1      -0.997   2.911  25.397  0.00  0.00    +0.203 A 
ATOM     20  N   UNL     1      -0.760   2.472  26.053  0.00  0.00    -0.056 NA
ATOM     21  O   UNL     1      -0.416   1.772  25.782  0.00  0.00    -0.335 OA
BRANCH  19  22
ATOM     22  C   UNL     1      -1.366   3.648  25.413  0.00  0.00    +0.042 A 
ATOM     23  C   UNL     1      -2.114   3.728  25.752  0.00  0.00    +0.024 A 
ATOM     24  C   UNL     1      -2.483   4.466  25.768  0.00  0.00    +0.099 A 
ATOM     25  N   UNL     1      -2.104   5.123  25.446  0.00  0.00    -0.242 NA
ATOM     26  C   UNL     1      -1.356   5.044  25.106  0.00  0.00    +0.099 A 
ATOM     27  C   UNL     1      -0.987   4.306  25.090  0.00  0.00    +0.024 A 
ENDBRANCH  19  22
ENDBRANCH  16  17
BRANCH   9   8
ATOM      8  C   UNL     1      -1.739  -0.306  24.646  0.00  0.00    +0.086 C 
BRANCH   8   2
ATOM      1  C   UNL     1      -2.836  -0.032  24.352  0.00  0.00    +0.001 C 
ATOM      2  C   UNL     1      -2.478  -0.390  25.005  0.00  0.00    +0.019 C 
ATOM      3  C   UNL     1      -2.121  -0.746  25.657  0.00  0.00    +0.001 C 
BRANCH   2   4
ATOM      4  C   UNL     1      -3.216  -0.473  25.363  0.00  0.00    +0.115 C 
BRANCH   4   5
ATOM      5  C   UNL     1      -3.671  -1.146  25.218  0.00  0.00    +0.365 C 
ATOM      6  O   UNL     1      -4.246  -1.136  24.626  0.00  0.00    -0.246 OA
ATOM      7  O   UNL     1      -3.551  -1.829  25.665  0.00  0.00    -0.246 OA
ENDBRANCH   4   5
ENDBRANCH   2   4
ENDBRANCH   8   2
ENDBRANCH   9   8
TORSDOF 6
ENDMDL
MODEL 8
REMARK VINA RESULT:     -10.3      1.682      3.432
REMARK  Name = 
REMARK  6 active torsions:
REMARK  status: ('A' for Active; 'I' for Inactive)
REMARK    1  A    between atoms: C_2  and  C_4
REMARK    2  A    between atoms: C_2  and  C_8
REMARK    3  A    between atoms: C_4  and  C_5
REMARK    4  A    between atoms: C_8  and  C_9
REMARK    5  A    between atoms: C_16  and  C_17
REMARK    6  A    between atoms: C_19  and  C_22
REMARK                            x       y       z     vdW  Elec       q    Type
REMARK                         _______ _______ _______ _____ _____    ______ ____
ROOT
ATOM      9  C   UNL     1      -3.700   0.394  24.801  0.00  0.00    +0.226 C 
ATOM     10  O   UNL     1      -3.098   0.885  25.078  0.00  0.00    -0.275 OA
ATOM     11  N   UNL     1      -3.544  -0.400  24.640  0.00  0.00    -0.267 N 
ATOM     12  C   UNL     1      -4.146  -0.890  24.363  0.00  0.00    +0.141 C 
ATOM     13  C   UNL     1      -3.990  -1.685  24.201  0.00  0.00    +0.094 A 
ATOM     14  C   UNL     1      -3.231  -1.987  24.318  0.00  0.00    +0.078 A 
ATOM     15  C   UNL     1      -2.629  -1.496  24.595  0.00  0.00    +0.077 C 
ATOM     16  C   UNL     1      -2.785  -0.702  24.756  0.00  0.00    +0.161 C 
ATOM     28  N   UNL     1      -3.241  -2.786  24.113  0.00  0.00    -0.227 NA
ATOM     29  C   UNL     1      -4.006  -2.977  23.870  0.00  0.00    +0.198 A 
ATOM     30  N   UNL     1      -4.468  -2.296  23.925  0.00  0.00    -0.225 NA
ENDROOT
BRANCH  16  17
ATOM     17  C   UNL     1      -2.183  -0.212  25.033  0.00  0.00    +0.255 A 
ATOM     18  N   UNL     1      -1.647   0.209  24.569  0.00  0.00    -0.189 NA
ATOM     19  C   UNL     1      -1.143   0.625  25.074  0.00  0.00    +0.203 A 
ATOM     20  N   UNL     1      -1.368   0.461  25.850  0.00  0.00    -0.056 NA
ATOM     21  O   UNL     1      -2.011  -0.056  25.826  0.00  0.00    -0.335 OA
BRANCH  19  22
ATOM     22  C   UNL     1      -0.523   1.118  24.841  0.00  0.00    +0.042 A 
ATOM     23  C   UNL     1      -0.066   0.923  24.183  0.00  0.00    +0.024 A 
ATOM     24  C   UNL     1       0.554   1.417  23.952  0.00  0.00    +0.099 A 
ATOM     25  N   UNL     1       0.715   2.104  24.378  0.00  0.00    -0.242 NA
ATOM     26  C   UNL     1       0.258   2.298  25.036  0.00  0.00    +0.099 A 
ATOM     27  C   UNL     1      -0.362   1.805  25.268  0.00  0.00    +0.024 A 
ENDBRANCH  19  22
ENDBRANCH  16  17
BRANCH   9   8
ATOM      8  C   UNL     1      -4.458   0.697  24.684  0.00  0.00    +0.086 C 
BRANCH   8   2
ATOM      1  C   UNL     1      -4.375   1.754  24.196  0.00  0.00    +0.001 C 
ATOM      2  C   UNL     1      -4.637   1.466  24.924  0.00  0.00    +0.019 C 
ATOM      3  C   UNL     1      -4.899   1.180  25.651  0.00  0.00    +0.001 C 
BRANCH   2   4
ATOM      4  C   UNL     1      -4.815   2.235  25.163  0.00  0.00    +0.115 C 
BRANCH   4   5
ATOM      5  C   UNL     1      -5.584   2.427  25.394  0.00  0.00    +0.365 C 
ATOM      6  O   UNL     1      -5.717   2.788  26.125  0.00  0.00    -0.246 OA
ATOM      7  O   UNL     1      -6.219   2.258  24.897  0.00  0.00    -0.246 OA
ENDBRANCH   4   5
ENDBRANCH   2   4
ENDBRANCH   8   2
ENDBRANCH   9   8
TORSDOF 6
ENDMDL
MODEL 9
REMARK VINA RESULT:     -10.3      2.211      3.617
REMARK  Name = 
REMARK  6 active torsions:
REMARK  status: ('A' for Active; 'I' for Inactive)
REMARK    1  A    between atoms: C_2  and  C_4
REMARK    2  A    between atoms: C_2  and  C_8
REMARK    3  A    between atoms: C_4  and  C_5
REMARK    4  A    between atoms: C_8  and  C_9
REMARK    5  A    between atoms: C_16  and  C_17
REMARK    6  A    between atoms: C_19  and  C_22
REMARK                            x       y       z     vdW  Elec       q    Type
REMARK                         _______ _______ _______ _____ _____    ______ ____
ROOT
ATOM      9  C   UNL     1      -3.151   2.493  24.728  0.00  0.00    +0.226 C 
ATOM     10  O   UNL     1      -3.032   1.702  24.525  0.00  0.00    -0.275 OA
ATOM     11  N   UNL     1      -2.511   3.010  24.768  0.00  0.00    -0.267 N 
ATOM     12  C   UNL     1      -2.631   3.800  24.971  0.00  0.00    +0.141 C 
ATOM     13  C   UNL     1      -1.990   4.319  25.011  0.00  0.00    +0.094 A 
ATOM     14  C   UNL     1      -1.229   4.046  24.848  0.00  0.00    +0.078 A 
ATOM     15  C   UNL     1      -1.108   3.255  24.645  0.00  0.00    +0.077 C 
ATOM     16  C   UNL     1      -1.749   2.737  24.605  0.00  0.00    +0.161 C 
ATOM     28  N   UNL     1      -0.708   4.679  24.931  0.00  0.00    -0.227 NA
ATOM     29  C   UNL     1      -1.146   5.344  25.145  0.00  0.00    +0.198 A 
ATOM     30  N   UNL     1      -1.939   5.120  25.195  0.00  0.00    -0.225 NA
ENDROOT
BRANCH  16  17
ATOM     17  C   UNL     1      -1.629   1.947  24.402  0.00  0.00    +0.255 A 
ATOM     18  N   UNL     1      -1.345   1.355  24.901  0.00  0.00    -0.189 NA
ATOM     19  C   UNL     1      -1.311   0.652  24.471  0.00  0.00    +0.203 A 
ATOM     20  N   UNL     1      -1.574   0.809  23.706  0.00  0.00    -0.056 NA
ATOM     21  O   UNL     1      -1.770   1.610  23.662  0.00  0.00    -0.335 OA
BRANCH  19  22
ATOM     22  C   UNL     1      -1.059  -0.080  24.757  0.00  0.00    +0.042 A 
ATOM     23  C   UNL     1      -1.371  -0.378  25.460  0.00  0.00    +0.024 A 
ATOM     24  C   UNL     1      -1.118  -1.110  25.746  0.00  0.00    +0.099 A 
ATOM     25  N   UNL     1      -0.554  -1.543  25.328  0.00  0.00    -0.242 NA
ATOM     26  C   UNL     1      -0.243  -1.245  24.625  0.00  0.00    +0.099 A 
ATOM     27  C   UNL     1      -0.495  -0.513  24.339  0.00  0.00    +0.024 A 
ENDBRANCH  19  22
ENDBRANCH  16  17
BRANCH   9   8
ATOM      8  C   UNL     1      -3.913   2.766  24.891  0.00  0.00    +0.086 C 
BRANCH   8   2
ATOM      1  C   UNL     1      -4.707   2.379  24.128  0.00  0.00    +0.001 C 
ATOM      2  C   UNL     1      -4.543   2.234  24.924  0.00  0.00    +0.019 C 
ATOM      3  C   UNL     1      -4.380   2.089  25.719  0.00  0.00    +0.001 C 
BRANCH   2   4
ATOM      4  C   UNL     1      -5.173   1.703  24.957  0.00  0.00    +0.115 C 
BRANCH   4   5
ATOM      5  C   UNL     1      -5.916   1.960  25.208  0.00  0.00    +0.365 C 
ATOM      6  O   UNL     1      -6.553   1.959  24.682  0.00  0.00    -0.246 OA
ATOM      7  O   UNL     1      -6.024   2.217  25.984  0.00  0.00    -0.246 OA
ENDBRANCH   4   5
ENDBRANCH   2   4
ENDBRANCH   8   2
ENDBRANCH   9   8
TORSDOF 6
ENDMDL
