MODEL 1
REMARK VINA RESULT:      -7.0      0.000      0.000
REMARK  Name = 
REMARK  3 active torsions:
REMARK  status: ('A' for Active; 'I' for Inactive)
REMARK    1  A    between atoms: O_2  and  C_3
REMARK    2  A    between atoms: C_3  and  C_5
REMARK    3  A    between atoms: N_10  and  S_11
REMARK                            x       y       z     vdW  Elec       q    Type
REMARK                         _______ _______ _______ _____ _____    ______ ____
ROOT
ATOM      5  C   UNL     1      -3.741   1.514  24.493  0.00  0.00    +0.197 C 
ATOM      6  C   UNL     1      -4.428   1.693  24.912  0.00  0.00    +0.122 C 
ATOM      7  N   UNL     1      -4.687   2.475  24.967  0.00  0.00    -0.276 N 
ATOM      8  C   UNL     1      -4.259   3.077  24.603  0.00  0.00    +0.113 C 
ATOM      9  C   UNL     1      -3.571   2.900  24.183  0.00  0.00    +0.118 C 
ATOM     10  N   UNL     1      -3.312   2.118  24.128  0.00  0.00    -0.147 NA
ATOM     15  C   UNL     1      -5.374   2.652  25.387  0.00  0.00    +0.226 C 
ATOM     16  C   UNL     1      -5.804   2.050  25.752  0.00  0.00    +0.095 C 
ATOM     17  O   UNL     1      -5.633   3.435  25.442  0.00  0.00    -0.275 OA
ENDROOT
BRANCH  10  11
ATOM     11  S   UNL     1      -2.624   1.940  23.708  0.00  0.00    +0.046 S 
ATOM     12  C   UNL     1      -1.937   1.762  23.289  0.00  0.00    +0.196 C 
ATOM     13  O   UNL     1      -3.066   1.869  23.015  0.00  0.00    -0.157 OA
ATOM     14  O   UNL     1      -2.183   2.011  24.402  0.00  0.00    -0.157 OA
ENDBRANCH  10  11
BRANCH   5   3
ATOM      3  C   UNL     1      -3.483   0.734  24.438  0.00  0.00    +0.335 C 
ATOM      4  O   UNL     1      -2.847   0.476  24.896  0.00  0.00    -0.248 OA
BRANCH   3   2
ATOM      1  C   UNL     1      -3.914  -0.591  24.117  0.00  0.00    +0.256 C 
ATOM      2  O   UNL     1      -3.860   0.209  23.923  0.00  0.00    -0.443 OA
ENDBRANCH   3   2
ENDBRANCH   5   3
TORSDOF 3
ENDMDL
MODEL 2
REMARK VINA RESULT:      -7.0      1.637      2.556
REMARK  Name = 
REMARK  3 active torsions:
REMARK  status: ('A' for Active; 'I' for Inactive)
REMARK    1  A    between atoms: O_2  and  C_3
REMARK    2  A    between atoms: C_3  and  C_5
REMARK    3  A    between atoms: N_10  and  S_11
REMARK                            x       y       z     vdW  Elec       q    Type
REMARK                         _______ _______ _______ _____ _____    ______ ____
ROOT
ATOM      5  C   UNL     1      -3.352   2.362  24.837  0.00  0.00    +0.197 C 
ATOM      6  C   UNL     1      -2.643   2.766  24.957  0.00  0.00    +0.122 C 
ATOM      7  N   UNL     1      -2.651   3.539  25.246  0.00  0.00    -0.276 N 
ATOM      8  C   UNL     1      -3.369   3.907  25.416  0.00  0.00    +0.113 C 
ATOM      9  C   UNL     1      -4.079   3.504  25.296  0.00  0.00    +0.118 C 
ATOM     10  N   UNL     1      -4.070   2.731  25.007  0.00  0.00    -0.147 NA
ATOM     15  C   UNL     1      -1.942   3.942  25.365  0.00  0.00    +0.226 C 
ATOM     16  C   UNL     1      -1.224   3.574  25.195  0.00  0.00    +0.095 C 
ATOM     17  O   UNL     1      -1.951   4.716  25.654  0.00  0.00    -0.275 OA
ENDROOT
BRANCH  10  11
ATOM     11  S   UNL     1      -4.780   2.327  24.888  0.00  0.00    +0.046 S 
ATOM     12  C   UNL     1      -5.489   1.923  24.769  0.00  0.00    +0.196 C 
ATOM     13  O   UNL     1      -4.794   2.583  24.104  0.00  0.00    -0.157 OA
ATOM     14  O   UNL     1      -4.766   2.071  25.672  0.00  0.00    -0.157 OA
ENDBRANCH  10  11
BRANCH   5   3
ATOM      3  C   UNL     1      -3.343   1.590  24.548  0.00  0.00    +0.335 C 
ATOM      4  O   UNL     1      -3.530   1.443  23.758  0.00  0.00    -0.248 OA
BRANCH   3   2
ATOM      1  C   UNL     1      -2.756   0.302  24.749  0.00  0.00    +0.256 C 
ATOM      2  O   UNL     1      -3.147   0.964  25.049  0.00  0.00    -0.443 OA
ENDBRANCH   3   2
ENDBRANCH   5   3
TORSDOF 3
ENDMDL
MODEL 3
REMARK VINA RESULT:      -7.0      1.503      2.065
REMARK  Name = 
REMARK  3 active torsions:
REMARK  status: ('A' for Active; 'I' for Inactive)
REMARK    1  A    between atoms: O_2  and  C_3
REMARK    2  A    between atoms: C_3  and  C_5
REMARK    3  A    between atoms: N_10  and  S_11
REMARK                            x       y       z     vdW  Elec       q    Type
REMARK                         _______ _______ _______ _____ _____    ______ ____
ROOT
ATOM      5  C   UNL     1      -3.094   2.793  24.950  0.00  0.00    +0.197 C 
ATOM      6  C   UNL     1      -3.801   2.367  24.934  0.00  0.00    +0.122 C 
ATOM      7  N   UNL     1      -4.474   2.670  25.304  0.00  0.00    -0.276 N 
ATOM      8  C   UNL     1      -4.440   3.398  25.689  0.00  0.00    +0.113 C 
ATOM      9  C   UNL     1      -3.733   3.825  25.705  0.00  0.00    +0.118 C 
ATOM     10  N   UNL     1      -3.061   3.522  25.336  0.00  0.00    -0.147 NA
ATOM     15  C   UNL     1      -5.179   2.245  25.288  0.00  0.00    +0.226 C 
ATOM     16  C   UNL     1      -5.214   1.516  24.902  0.00  0.00    +0.095 C 
ATOM     17  O   UNL     1      -5.853   2.548  25.657  0.00  0.00    -0.275 OA
ENDROOT
BRANCH  10  11
ATOM     11  S   UNL     1      -2.354   3.948  25.352  0.00  0.00    +0.046 S 
ATOM     12  C   UNL     1      -1.648   4.373  25.368  0.00  0.00    +0.196 C 
ATOM     13  O   UNL     1      -2.580   4.349  24.667  0.00  0.00    -0.157 OA
ATOM     14  O   UNL     1      -2.128   3.546  26.036  0.00  0.00    -0.157 OA
ENDBRANCH  10  11
BRANCH   5   3
ATOM      3  C   UNL     1      -2.423   2.490  24.581  0.00  0.00    +0.335 C 
ATOM      4  O   UNL     1      -1.822   2.149  25.032  0.00  0.00    -0.248 OA
BRANCH   3   2
ATOM      1  C   UNL     1      -1.950   1.932  23.352  0.00  0.00    +0.256 C 
ATOM      2  O   UNL     1      -2.350   2.528  23.759  0.00  0.00    -0.443 OA
ENDBRANCH   3   2
ENDBRANCH   5   3
TORSDOF 3
ENDMDL
MODEL 4
REMARK VINA RESULT:      -6.9      1.149      2.622
REMARK  Name = 
REMARK  3 active torsions:
REMARK  status: ('A' for Active; 'I' for Inactive)
REMARK    1  A    between atoms: O_2  and  C_3
REMARK    2  A    between atoms: C_3  and  C_5
REMARK    3  A    between atoms: N_10  and  S_11
REMARK                            x       y       z     vdW  Elec       q    Type
REMARK                         _______ _______ _______ _____ _____    ______ ____
ROOT
ATOM      5  C   UNL     1      -4.177   1.665  24.799  0.00  0.00    +0.197 C 
ATOM      6  C   UNL     1      -4.088   0.848  24.871  0.00  0.00    +0.122 C 
ATOM      7  N   UNL     1      -3.397   0.483  24.607  0.00  0.00    -0.276 N 
ATOM      8  C   UNL     1      -2.794   0.936  24.272  0.00  0.00    +0.113 C 
ATOM      9  C   UNL     1      -2.882   1.753  24.200  0.00  0.00    +0.118 C 
ATOM     10  N   UNL     1      -3.574   2.118  24.464  0.00  0.00    -0.147 NA
ATOM     15  C   UNL     1      -3.308  -0.333  24.679  0.00  0.00    +0.226 C 
ATOM     16  C   UNL     1      -3.911  -0.786  25.014  0.00  0.00    +0.095 C 
ATOM     17  O   UNL     1      -2.616  -0.698  24.415  0.00  0.00    -0.275 OA
ENDROOT
BRANCH  10  11
ATOM     11  S   UNL     1      -3.663   2.935  24.392  0.00  0.00    +0.046 S 
ATOM     12  C   UNL     1      -3.751   3.752  24.321  0.00  0.00    +0.196 C 
ATOM     13  O   UNL     1      -3.979   2.834  23.637  0.00  0.00    -0.157 OA
ATOM     14  O   UNL     1      -3.346   3.035  25.148  0.00  0.00    -0.157 OA
ENDBRANCH  10  11
BRANCH   5   3
ATOM      3  C   UNL     1      -4.868   2.029  25.062  0.00  0.00    +0.335 C 
ATOM      4  O   UNL     1      -4.863   2.469  25.760  0.00  0.00    -0.248 OA
BRANCH   3   2
ATOM      1  C   UNL     1      -6.294   1.934  25.015  0.00  0.00    +0.256 C 
ATOM      2  O   UNL     1      -5.566   1.954  24.627  0.00  0.00    -0.443 OA
ENDBRANCH   3   2
ENDBRANCH   5   3
TORSDOF 3
ENDMDL
MODEL 5
REMARK VINA RESULT:      -6.9      1.567      2.909
REMARK  Name = 
REMARK  3 active torsions:
REMARK  status: ('A' for Active; 'I' for Inactive)
REMARK    1  A    between atoms: O_2  and  C_3
REMARK    2  A    between atoms: C_3  and  C_5
REMARK    3  A    between atoms: N_10  and  S_11
REMARK                            x       y       z     vdW  Elec       q    Type
REMARK                         _______ _______ _______ _____ _____    ______ ____
ROOT
ATOM      5  C   UNL     1      -3.118   2.815  24.663  0.00  0.00    +0.197 C 
ATOM      6  C   UNL     1      -2.684   3.481  24.883  0.00  0.00    +0.122 C 
ATOM      7  N   UNL     1      -1.860   3.460  24.866  0.00  0.00    -0.276 N 
ATOM      8  C   UNL     1      -1.469   2.774  24.629  0.00  0.00    +0.113 C 
ATOM      9  C   UNL     1      -1.902   2.108  24.408  0.00  0.00    +0.118 C 
ATOM     10  N   UNL     1      -2.727   2.128  24.425  0.00  0.00    -0.147 NA
ATOM     15  C   UNL     1      -1.427   4.126  25.086  0.00  0.00    +0.226 C 
ATOM     16  C   UNL     1      -1.817   4.813  25.324  0.00  0.00    +0.095 C 
ATOM     17  O   UNL     1      -0.601   4.106  25.069  0.00  0.00    -0.275 OA
ENDROOT
BRANCH  10  11
ATOM     11  S   UNL     1      -3.161   1.461  24.204  0.00  0.00    +0.046 S 
ATOM     12  C   UNL     1      -3.594   0.795  23.984  0.00  0.00    +0.196 C 
ATOM     13  O   UNL     1      -3.193   1.739  23.428  0.00  0.00    -0.157 OA
ATOM     14  O   UNL     1      -3.128   1.184  24.981  0.00  0.00    -0.157 OA
ENDBRANCH  10  11
BRANCH   5   3
ATOM      3  C   UNL     1      -3.942   2.835  24.680  0.00  0.00    +0.335 C 
ATOM      4  O   UNL     1      -4.368   2.901  23.976  0.00  0.00    -0.248 OA
BRANCH   3   2
ATOM      1  C   UNL     1      -5.059   3.184  25.501  0.00  0.00    +0.256 C 
ATOM      2  O   UNL     1      -4.342   2.789  25.401  0.00  0.00    -0.443 OA
ENDBRANCH   3   2
ENDBRANCH   5   3
TORSDOF 3
ENDMDL
MODEL 6
REMARK VINA RESULT:      -6.8      1.156      2.038
REMARK  Name = 
REMARK  3 active torsions:
REMARK  status: ('A' for Active; 'I' for Inactive)
REMARK    1  A    between atoms: O_2  and  C_3
REMARK    2  A    between atoms: C_3  and  C_5
REMARK    3  A    between atoms: N_10  and  S_11
REMARK                            x       y       z     vdW  Elec       q    Type
REMARK                         _______ _______ _______ _____ _____    ______ ____
ROOT
ATOM      5  C   UNL     1      -3.552   1.237  24.768  0.00  0.00    +0.197 C 
ATOM      6  C   UNL     1      -3.662   2.041  24.912  0.00  0.00    +0.122 C 
ATOM      7  N   UNL     1      -4.416   2.333  25.075  0.00  0.00    -0.276 N 
ATOM      8  C   UNL     1      -5.061   1.819  25.095  0.00  0.00    +0.113 C 
ATOM      9  C   UNL     1      -4.952   1.014  24.951  0.00  0.00    +0.118 C 
ATOM     10  N   UNL     1      -4.198   0.723  24.788  0.00  0.00    -0.147 NA
ATOM     15  C   UNL     1      -4.525   3.137  25.219  0.00  0.00    +0.226 C 
ATOM     16  C   UNL     1      -3.880   3.651  25.199  0.00  0.00    +0.095 C 
ATOM     17  O   UNL     1      -5.281   3.428  25.383  0.00  0.00    -0.275 OA
ENDROOT
BRANCH  10  11
ATOM     11  S   UNL     1      -4.088  -0.083  24.644  0.00  0.00    +0.046 S 
ATOM     12  C   UNL     1      -3.979  -0.888  24.501  0.00  0.00    +0.196 C 
ATOM     13  O   UNL     1      -4.148   0.054  23.833  0.00  0.00    -0.157 OA
ATOM     14  O   UNL     1      -4.029  -0.219  25.456  0.00  0.00    -0.157 OA
ENDBRANCH  10  11
BRANCH   5   3
ATOM      3  C   UNL     1      -2.799   0.946  24.605  0.00  0.00    +0.335 C 
ATOM      4  O   UNL     1      -2.584   0.768  23.829  0.00  0.00    -0.248 OA
BRANCH   3   2
ATOM      1  C   UNL     1      -1.451   0.938  25.082  0.00  0.00    +0.256 C 
ATOM      2  O   UNL     1      -2.258   0.832  25.218  0.00  0.00    -0.443 OA
ENDBRANCH   3   2
ENDBRANCH   5   3
TORSDOF 3
ENDMDL
MODEL 7
REMARK VINA RESULT:      -6.7      1.261      2.696
REMARK  Name = 
REMARK  3 active torsions:
REMARK  status: ('A' for Active; 'I' for Inactive)
REMARK    1  A    between atoms: O_2  and  C_3
REMARK    2  A    between atoms: C_3  and  C_5
REMARK    3  A    between atoms: N_10  and  S_11
REMARK                            x       y       z     vdW  Elec       q    Type
REMARK                         _______ _______ _______ _____ _____    ______ ____
ROOT
ATOM      5  C   UNL     1      -3.138   1.806  24.642  0.00  0.00    +0.197 C 
ATOM      6  C   UNL     1      -3.078   0.984  24.654  0.00  0.00    +0.122 C 
ATOM      7  N   UNL     1      -3.759   0.519  24.666  0.00  0.00    -0.276 N 
ATOM      8  C   UNL     1      -4.502   0.878  24.667  0.00  0.00    +0.113 C 
ATOM      9  C   UNL     1      -4.564   1.701  24.655  0.00  0.00    +0.118 C 
ATOM     10  N   UNL     1      -3.882   2.165  24.642  0.00  0.00    -0.147 NA
ATOM     15  C   UNL     1      -3.698  -0.303  24.678  0.00  0.00    +0.226 C 
ATOM     16  C   UNL     1      -2.955  -0.662  24.678  0.00  0.00    +0.095 C 
ATOM     17  O   UNL     1      -4.381  -0.767  24.691  0.00  0.00    -0.275 OA
ENDROOT
BRANCH  10  11
ATOM     11  S   UNL     1      -3.943   2.988  24.630  0.00  0.00    +0.046 S 
ATOM     12  C   UNL     1      -4.004   3.810  24.619  0.00  0.00    +0.196 C 
ATOM     13  O   UNL     1      -3.924   2.977  23.806  0.00  0.00    -0.157 OA
ATOM     14  O   UNL     1      -3.962   2.998  25.455  0.00  0.00    -0.157 OA
ENDBRANCH  10  11
BRANCH   5   3
ATOM      3  C   UNL     1      -2.457   2.270  24.630  0.00  0.00    +0.335 C 
ATOM      4  O   UNL     1      -2.211   2.623  23.926  0.00  0.00    -0.248 OA
BRANCH   3   2
ATOM      1  C   UNL     1      -1.202   2.477  25.282  0.00  0.00    +0.256 C 
ATOM      2  O   UNL     1      -2.020   2.381  25.322  0.00  0.00    -0.443 OA
ENDBRANCH   3   2
ENDBRANCH   5   3
TORSDOF 3
ENDMDL
