MODEL 1
REMARK VINA RESULT:     -13.1      0.000      0.000
REMARK  Name = 
REMARK  5 active torsions:
REMARK  status: ('A' for Active; 'I' for Inactive)
REMARK    1  A    between atoms: C_5  and  S_8
REMARK    2  A    between atoms: S_8  and  N_11
REMARK    3  A    between atoms: C_16  and  O_18
REMARK    4  A    between atoms: O_18  and  C_19
REMARK    5  A    between atoms: C_22  and  C_25
REMARK                            x       y       z     vdW  Elec       q    Type
REMARK                         _______ _______ _______ _____ _____    ______ ____
ROOT
ATOM     11  N   UNL     1      -3.585   2.680  24.989  0.00  0.00    -0.149 NA
ATOM     12  C   UNL     1      -4.240   2.913  25.435  0.00  0.00    +0.128 C 
ATOM     13  C   UNL     1      -4.960   2.522  25.533  0.00  0.00    +0.161 C 
ATOM     14  O   UNL     1      -5.204   1.803  25.210  0.00  0.00    -0.348 OA
ATOM     15  C   UNL     1      -4.788   1.297  24.709  0.00  0.00    +0.187 C 
ATOM     16  C   UNL     1      -4.025   1.384  24.407  0.00  0.00    +0.215 C 
ATOM     17  C   UNL     1      -3.490   2.000  24.532  0.00  0.00    +0.142 C 
ENDROOT
BRANCH  11   8
ATOM      8  S   UNL     1      -2.941   3.195  25.002  0.00  0.00    +0.063 S 
ATOM      9  O   UNL     1      -3.202   3.540  24.300  0.00  0.00    -0.153 OA
ATOM     10  O   UNL     1      -2.680   2.851  25.705  0.00  0.00    -0.153 OA
BRANCH   8   5
ATOM      1  F   UNL     1      -0.365   5.257  25.056  0.00  0.00    -0.204 F 
ATOM      2  C   UNL     1      -1.009   4.742  25.043  0.00  0.00    +0.140 A 
ATOM      3  C   UNL     1      -1.770   5.028  25.188  0.00  0.00    +0.031 A 
ATOM      4  C   UNL     1      -2.414   4.512  25.174  0.00  0.00    +0.022 A 
ATOM      5  C   UNL     1      -2.297   3.711  25.016  0.00  0.00    +0.122 A 
ATOM      6  C   UNL     1      -1.538   3.425  24.871  0.00  0.00    +0.022 A 
ATOM      7  C   UNL     1      -0.894   3.941  24.884  0.00  0.00    +0.031 A 
ENDBRANCH   8   5
ENDBRANCH  11   8
BRANCH  16  18
ATOM     18  O   UNL     1      -3.763   0.776  23.916  0.00  0.00    -0.460 OA
BRANCH  18  19
ATOM     19  C   UNL     1      -3.706   0.006  24.207  0.00  0.00    +0.225 A 
ATOM     20  C   UNL     1      -4.266  -0.559  23.989  0.00  0.00    +0.058 A 
ATOM     21  C   UNL     1      -4.210  -1.329  24.279  0.00  0.00    +0.010 A 
ATOM     22  C   UNL     1      -3.593  -1.534  24.787  0.00  0.00    +0.091 A 
ATOM     23  C   UNL     1      -3.033  -0.969  25.005  0.00  0.00    +0.106 A 
ATOM     24  N   UNL     1      -3.090  -0.199  24.715  0.00  0.00    -0.210 NA
BRANCH  22  25
ATOM     25  C   UNL     1      -3.537  -2.304  25.078  0.00  0.00    +0.420 C 
ATOM     26  F   UNL     1      -3.480  -3.075  25.370  0.00  0.00    -0.166 F 
ATOM     27  F   UNL     1      -3.481  -2.592  24.307  0.00  0.00    -0.166 F 
ATOM     28  F   UNL     1      -3.593  -2.017  25.849  0.00  0.00    -0.166 F 
ENDBRANCH  22  25
ENDBRANCH  18  19
ENDBRANCH  16  18
TORSDOF 5
ENDMDL
MODEL 2
REMARK VINA RESULT:     -12.8      1.809      2.565
REMARK  Name = 
REMARK  5 active torsions:
REMARK  status: ('A' for Active; 'I' for Inactive)
REMARK    1  A    between atoms: C_5  and  S_8
REMARK    2  A    between atoms: S_8  and  N_11
REMARK    3  A    between atoms: C_16  and  O_18
REMARK    4  A    between atoms: O_18  and  C_19
REMARK    5  A    between atoms: C_22  and  C_25
REMARK                            x       y       z     vdW  Elec       q    Type
REMARK                         _______ _______ _______ _____ _____    ______ ____
ROOT
ATOM     11  N   UNL     1      -0.864   1.442  24.751  0.00  0.00    -0.149 NA
ATOM     12  C   UNL     1      -0.219   1.334  24.247  0.00  0.00    +0.128 C 
ATOM     13  C   UNL     1       0.118   0.627  23.988  0.00  0.00    +0.161 C 
ATOM     14  O   UNL     1      -0.106  -0.147  24.168  0.00  0.00    -0.348 OA
ATOM     15  C   UNL     1      -0.723  -0.404  24.652  0.00  0.00    +0.187 C 
ATOM     16  C   UNL     1      -1.268   0.048  25.075  0.00  0.00    +0.215 C 
ATOM     17  C   UNL     1      -1.331   0.870  25.119  0.00  0.00    +0.142 C 
ENDROOT
BRANCH  11   8
ATOM      8  S   UNL     1      -1.070   2.226  24.907  0.00  0.00    +0.063 S 
ATOM      9  O   UNL     1      -1.451   2.271  24.176  0.00  0.00    -0.153 OA
ATOM     10  O   UNL     1      -0.688   2.181  25.637  0.00  0.00    -0.153 OA
BRANCH   8   5
ATOM      1  F   UNL     1      -1.891   5.361  25.529  0.00  0.00    -0.204 F 
ATOM      2  C   UNL     1      -1.686   4.577  25.373  0.00  0.00    +0.140 A 
ATOM      3  C   UNL     1      -0.970   4.404  25.000  0.00  0.00    +0.031 A 
ATOM      4  C   UNL     1      -0.764   3.620  24.845  0.00  0.00    +0.022 A 
ATOM      5  C   UNL     1      -1.275   3.010  25.062  0.00  0.00    +0.122 A 
ATOM      6  C   UNL     1      -1.990   3.182  25.434  0.00  0.00    +0.022 A 
ATOM      7  C   UNL     1      -2.195   3.966  25.590  0.00  0.00    +0.031 A 
ENDBRANCH   8   5
ENDBRANCH  11   8
BRANCH  16  18
ATOM     18  O   UNL     1      -1.823  -0.377  25.512  0.00  0.00    -0.460 OA
BRANCH  18  19
ATOM     19  C   UNL     1      -2.406  -0.815  25.125  0.00  0.00    +0.225 A 
ATOM     20  C   UNL     1      -3.164  -0.503  25.034  0.00  0.00    +0.058 A 
ATOM     21  C   UNL     1      -3.746  -0.941  24.647  0.00  0.00    +0.010 A 
ATOM     22  C   UNL     1      -3.570  -1.690  24.351  0.00  0.00    +0.091 A 
ATOM     23  C   UNL     1      -2.812  -2.002  24.442  0.00  0.00    +0.106 A 
ATOM     24  N   UNL     1      -2.230  -1.564  24.830  0.00  0.00    -0.210 NA
BRANCH  22  25
ATOM     25  C   UNL     1      -4.152  -2.128  23.964  0.00  0.00    +0.420 C 
ATOM     26  F   UNL     1      -4.735  -2.566  23.576  0.00  0.00    -0.166 F 
ATOM     27  F   UNL     1      -3.970  -2.784  24.430  0.00  0.00    -0.166 F 
ATOM     28  F   UNL     1      -4.336  -1.472  23.498  0.00  0.00    -0.166 F 
ENDBRANCH  22  25
ENDBRANCH  18  19
ENDBRANCH  16  18
TORSDOF 5
ENDMDL
MODEL 3
REMARK VINA RESULT:     -12.6      1.659      4.915
REMARK  Name = 
REMARK  5 active torsions:
REMARK  status: ('A' for Active; 'I' for Inactive)
REMARK    1  A    between atoms: C_5  and  S_8
REMARK    2  A    between atoms: S_8  and  N_11
REMARK    3  A    between atoms: C_16  and  O_18
REMARK    4  A    between atoms: O_18  and  C_19
REMARK    5  A    between atoms: C_22  and  C_25
REMARK                            x       y       z     vdW  Elec       q    Type
REMARK                         _______ _______ _______ _____ _____    ______ ____
ROOT
ATOM     11  N   UNL     1      -3.995   0.640  24.715  0.00  0.00    -0.149 NA
ATOM     12  C   UNL     1      -4.707   0.928  25.018  0.00  0.00    +0.128 C 
ATOM     13  C   UNL     1      -4.927   1.711  25.158  0.00  0.00    +0.161 C 
ATOM     14  O   UNL     1      -4.490   2.399  25.030  0.00  0.00    -0.348 OA
ATOM     15  C   UNL     1      -3.726   2.475  24.731  0.00  0.00    +0.187 C 
ATOM     16  C   UNL     1      -3.208   1.881  24.485  0.00  0.00    +0.215 C 
ATOM     17  C   UNL     1      -3.328   1.064  24.478  0.00  0.00    +0.142 C 
ENDROOT
BRANCH  11   8
ATOM      8  S   UNL     1      -3.943  -0.180  24.640  0.00  0.00    +0.063 S 
ATOM      9  O   UNL     1      -3.948  -0.105  23.818  0.00  0.00    -0.153 OA
ATOM     10  O   UNL     1      -3.939  -0.255  25.461  0.00  0.00    -0.153 OA
BRANCH   8   5
ATOM      1  F   UNL     1      -3.738  -3.460  24.338  0.00  0.00    -0.204 F 
ATOM      2  C   UNL     1      -3.789  -2.640  24.413  0.00  0.00    +0.140 A 
ATOM      3  C   UNL     1      -3.412  -2.258  25.041  0.00  0.00    +0.031 A 
ATOM      4  C   UNL     1      -3.463  -1.438  25.117  0.00  0.00    +0.022 A 
ATOM      5  C   UNL     1      -3.892  -1.000  24.564  0.00  0.00    +0.122 A 
ATOM      6  C   UNL     1      -4.269  -1.380  23.937  0.00  0.00    +0.022 A 
ATOM      7  C   UNL     1      -4.217  -2.200  23.862  0.00  0.00    +0.031 A 
ENDBRANCH   8   5
ENDBRANCH  11   8
BRANCH  16  18
ATOM     18  O   UNL     1      -2.474   2.136  24.209  0.00  0.00    -0.460 OA
BRANCH  18  19
ATOM     19  C   UNL     1      -1.849   2.242  24.737  0.00  0.00    +0.225 A 
ATOM     20  C   UNL     1      -1.758   2.962  25.129  0.00  0.00    +0.058 A 
ATOM     21  C   UNL     1      -1.133   3.068  25.657  0.00  0.00    +0.010 A 
ATOM     22  C   UNL     1      -0.600   2.454  25.793  0.00  0.00    +0.091 A 
ATOM     23  C   UNL     1      -0.690   1.734  25.402  0.00  0.00    +0.106 A 
ATOM     24  N   UNL     1      -1.315   1.628  24.874  0.00  0.00    -0.210 NA
BRANCH  22  25
ATOM     25  C   UNL     1       0.025   2.560  26.322  0.00  0.00    +0.420 C 
ATOM     26  F   UNL     1       0.650   2.666  26.851  0.00  0.00    -0.166 F 
ATOM     27  F   UNL     1       0.564   2.461  25.705  0.00  0.00    -0.166 F 
ATOM     28  F   UNL     1      -0.513   2.659  26.939  0.00  0.00    -0.166 F 
ENDBRANCH  22  25
ENDBRANCH  18  19
ENDBRANCH  16  18
TORSDOF 5
ENDMDL
MODEL 4
REMARK VINA RESULT:     -12.5      1.833      2.651
REMARK  Name = 
REMARK  5 active torsions:
REMARK  status: ('A' for Active; 'I' for Inactive)
REMARK    1  A    between atoms: C_5  and  S_8
REMARK    2  A    between atoms: S_8  and  N_11
REMARK    3  A    between atoms: C_16  and  O_18
REMARK    4  A    between atoms: O_18  and  C_19
REMARK    5  A    between atoms: C_22  and  C_25
REMARK                            x       y       z     vdW  Elec       q    Type
REMARK                         _______ _______ _______ _____ _____    ______ ____
ROOT
ATOM     11  N   UNL     1      -2.730   1.823  24.478  0.00  0.00    -0.149 NA
ATOM     12  C   UNL     1      -2.312   2.122  23.832  0.00  0.00    +0.128 C 
ATOM     13  C   UNL     1      -1.642   1.809  23.465  0.00  0.00    +0.161 C 
ATOM     14  O   UNL     1      -1.226   1.122  23.651  0.00  0.00    -0.348 OA
ATOM     15  C   UNL     1      -1.376   0.577  24.252  0.00  0.00    +0.187 C 
ATOM     16  C   UNL     1      -1.980   0.584  24.815  0.00  0.00    +0.215 C 
ATOM     17  C   UNL     1      -2.583   1.139  24.915  0.00  0.00    +0.142 C 
ENDROOT
BRANCH  11   8
ATOM      8  S   UNL     1      -3.382   2.267  24.718  0.00  0.00    +0.063 S 
ATOM      9  O   UNL     1      -2.947   2.563  25.354  0.00  0.00    -0.153 OA
ATOM     10  O   UNL     1      -3.818   1.972  24.083  0.00  0.00    -0.153 OA
BRANCH   8   5
ATOM      1  F   UNL     1      -5.991   4.045  25.679  0.00  0.00    -0.204 F 
ATOM      2  C   UNL     1      -5.339   3.601  25.439  0.00  0.00    +0.140 A 
ATOM      3  C   UNL     1      -4.598   3.958  25.373  0.00  0.00    +0.031 A 
ATOM      4  C   UNL     1      -3.945   3.514  25.133  0.00  0.00    +0.022 A 
ATOM      5  C   UNL     1      -4.035   2.712  24.959  0.00  0.00    +0.122 A 
ATOM      6  C   UNL     1      -4.775   2.355  25.024  0.00  0.00    +0.022 A 
ATOM      7  C   UNL     1      -5.427   2.800  25.264  0.00  0.00    +0.031 A 
ENDBRANCH   8   5
ENDBRANCH  11   8
BRANCH  16  18
ATOM     18  O   UNL     1      -1.981  -0.046  25.347  0.00  0.00    -0.460 OA
BRANCH  18  19
ATOM     19  C   UNL     1      -2.387  -0.740  25.163  0.00  0.00    +0.225 A 
ATOM     20  C   UNL     1      -3.108  -0.905  25.527  0.00  0.00    +0.058 A 
ATOM     21  C   UNL     1      -3.514  -1.599  25.344  0.00  0.00    +0.010 A 
ATOM     22  C   UNL     1      -3.198  -2.129  24.796  0.00  0.00    +0.091 A 
ATOM     23  C   UNL     1      -2.477  -1.965  24.432  0.00  0.00    +0.106 A 
ATOM     24  N   UNL     1      -2.071  -1.270  24.616  0.00  0.00    -0.210 NA
BRANCH  22  25
ATOM     25  C   UNL     1      -3.604  -2.823  24.612  0.00  0.00    +0.420 C 
ATOM     26  F   UNL     1      -4.010  -3.519  24.429  0.00  0.00    -0.166 F 
ATOM     27  F   UNL     1      -3.797  -2.515  23.872  0.00  0.00    -0.166 F 
ATOM     28  F   UNL     1      -3.411  -3.132  25.353  0.00  0.00    -0.166 F 
ENDBRANCH  22  25
ENDBRANCH  18  19
ENDBRANCH  16  18
TORSDOF 5
ENDMDL
MODEL 5
REMARK VINA RESULT:     -12.2      2.013      5.824
REMARK  Name = 
REMARK  5 active torsions:
REMARK  status: ('A' for Active; 'I' for Inactive)
REMARK    1  A    between atoms: C_5  and  S_8
REMARK    2  A    between atoms: S_8  and  N_11
REMARK    3  A    between atoms: C_16  and  O_18
REMARK    4  A    between atoms: O_18  and  C_19
REMARK    5  A    between atoms: C_22  and  C_25
REMARK                            x       y       z     vdW  Elec       q    Type
REMARK                         _______ _______ _______ _____ _____    ______ ____
ROOT
ATOM     11  N   UNL     1      -1.075  -0.021  24.634  0.00  0.00    -0.149 NA
ATOM     12  C   UNL     1      -0.570  -0.124  23.989  0.00  0.00    +0.128 C 
ATOM     13  C   UNL     1       0.041   0.367  23.731  0.00  0.00    +0.161 C 
ATOM     14  O   UNL     1       0.297   1.082  24.053  0.00  0.00    -0.348 OA
ATOM     15  C   UNL     1       0.007   1.483  24.713  0.00  0.00    +0.187 C 
ATOM     16  C   UNL     1      -0.612   1.267  25.215  0.00  0.00    +0.215 C 
ATOM     17  C   UNL     1      -1.094   0.598  25.179  0.00  0.00    +0.142 C 
ENDROOT
BRANCH  11   8
ATOM      8  S   UNL     1      -1.635  -0.616  24.749  0.00  0.00    +0.063 S 
ATOM      9  O   UNL     1      -2.127  -0.261  24.190  0.00  0.00    -0.153 OA
ATOM     10  O   UNL     1      -1.143  -0.972  25.308  0.00  0.00    -0.153 OA
BRANCH   8   5
ATOM      1  F   UNL     1      -3.874  -2.997  25.207  0.00  0.00    -0.204 F 
ATOM      2  C   UNL     1      -3.314  -2.402  25.093  0.00  0.00    +0.140 A 
ATOM      3  C   UNL     1      -2.606  -2.570  24.702  0.00  0.00    +0.031 A 
ATOM      4  C   UNL     1      -2.047  -1.975  24.588  0.00  0.00    +0.022 A 
ATOM      5  C   UNL     1      -2.195  -1.212  24.864  0.00  0.00    +0.122 A 
ATOM      6  C   UNL     1      -2.901  -1.043  25.253  0.00  0.00    +0.022 A 
ATOM      7  C   UNL     1      -3.461  -1.638  25.368  0.00  0.00    +0.031 A 
ENDBRANCH   8   5
ENDBRANCH  11   8
BRANCH  16  18
ATOM     18  O   UNL     1      -0.771   1.790  25.832  0.00  0.00    -0.460 OA
BRANCH  18  19
ATOM     19  C   UNL     1      -0.954   2.578  25.670  0.00  0.00    +0.225 A 
ATOM     20  C   UNL     1      -0.363   3.153  25.704  0.00  0.00    +0.058 A 
ATOM     21  C   UNL     1      -0.546   3.941  25.542  0.00  0.00    +0.010 A 
ATOM     22  C   UNL     1      -1.318   4.154  25.346  0.00  0.00    +0.091 A 
ATOM     23  C   UNL     1      -1.909   3.579  25.311  0.00  0.00    +0.106 A 
ATOM     24  N   UNL     1      -1.726   2.791  25.474  0.00  0.00    -0.210 NA
BRANCH  22  25
ATOM     25  C   UNL     1      -1.501   4.942  25.183  0.00  0.00    +0.420 C 
ATOM     26  F   UNL     1      -1.683   5.730  25.020  0.00  0.00    -0.166 F 
ATOM     27  F   UNL     1      -2.092   4.924  25.757  0.00  0.00    -0.166 F 
ATOM     28  F   UNL     1      -0.909   4.960  24.609  0.00  0.00    -0.166 F 
ENDBRANCH  22  25
ENDBRANCH  18  19
ENDBRANCH  16  18
TORSDOF 5
ENDMDL
MODEL 6
REMARK VINA RESULT:     -12.1      2.264      5.100
REMARK  Name = 
REMARK  5 active torsions:
REMARK  status: ('A' for Active; 'I' for Inactive)
REMARK    1  A    between atoms: C_5  and  S_8
REMARK    2  A    between atoms: S_8  and  N_11
REMARK    3  A    between atoms: C_16  and  O_18
REMARK    4  A    between atoms: O_18  and  C_19
REMARK    5  A    between atoms: C_22  and  C_25
REMARK                            x       y       z     vdW  Elec       q    Type
REMARK                         _______ _______ _______ _____ _____    ______ ____
ROOT
ATOM     11  N   UNL     1      -2.042   0.217  24.952  0.00  0.00    -0.149 NA
ATOM     12  C   UNL     1      -1.387   0.174  25.453  0.00  0.00    +0.128 C 
ATOM     13  C   UNL     1      -0.891   0.783  25.705  0.00  0.00    +0.161 C 
ATOM     14  O   UNL     1      -0.926   1.586  25.519  0.00  0.00    -0.348 OA
ATOM     15  C   UNL     1      -1.466   1.978  25.034  0.00  0.00    +0.187 C 
ATOM     16  C   UNL     1      -2.105   1.665  24.616  0.00  0.00    +0.215 C 
ATOM     17  C   UNL     1      -2.361   0.881  24.580  0.00  0.00    +0.142 C 
ENDROOT
BRANCH  11   8
ATOM      8  S   UNL     1      -2.428  -0.497  24.804  0.00  0.00    +0.063 S 
ATOM      9  O   UNL     1      -2.824  -0.432  25.525  0.00  0.00    -0.153 OA
ATOM     10  O   UNL     1      -2.032  -0.561  24.083  0.00  0.00    -0.153 OA
BRANCH   8   5
ATOM      1  F   UNL     1      -3.971  -3.353  24.213  0.00  0.00    -0.204 F 
ATOM      2  C   UNL     1      -3.585  -2.639  24.361  0.00  0.00    +0.140 A 
ATOM      3  C   UNL     1      -3.982  -1.924  24.246  0.00  0.00    +0.031 A 
ATOM      4  C   UNL     1      -3.596  -1.210  24.394  0.00  0.00    +0.022 A 
ATOM      5  C   UNL     1      -2.814  -1.211  24.656  0.00  0.00    +0.122 A 
ATOM      6  C   UNL     1      -2.418  -1.924  24.771  0.00  0.00    +0.022 A 
ATOM      7  C   UNL     1      -2.803  -2.638  24.623  0.00  0.00    +0.031 A 
ENDBRANCH   8   5
ENDBRANCH  11   8
BRANCH  16  18
ATOM     18  O   UNL     1      -2.546   2.206  24.176  0.00  0.00    -0.460 OA
BRANCH  18  19
ATOM     19  C   UNL     1      -3.219   2.552  24.504  0.00  0.00    +0.225 A 
ATOM     20  C   UNL     1      -3.963   2.381  24.192  0.00  0.00    +0.058 A 
ATOM     21  C   UNL     1      -4.637   2.728  24.519  0.00  0.00    +0.010 A 
ATOM     22  C   UNL     1      -4.566   3.244  25.158  0.00  0.00    +0.091 A 
ATOM     23  C   UNL     1      -3.821   3.415  25.470  0.00  0.00    +0.106 A 
ATOM     24  N   UNL     1      -3.148   3.069  25.142  0.00  0.00    -0.210 NA
BRANCH  22  25
ATOM     25  C   UNL     1      -5.239   3.591  25.485  0.00  0.00    +0.420 C 
ATOM     26  F   UNL     1      -5.913   3.938  25.813  0.00  0.00    -0.166 F 
ATOM     27  F   UNL     1      -5.390   2.900  25.909  0.00  0.00    -0.166 F 
ATOM     28  F   UNL     1      -5.089   4.283  25.062  0.00  0.00    -0.166 F 
ENDBRANCH  22  25
ENDBRANCH  18  19
ENDBRANCH  16  18
TORSDOF 5
ENDMDL
