MODEL 1
REMARK VINA RESULT:      -8.4      0.000      0.000
REMARK  Name = 
REMARK  10 active torsions:
REMARK  status: ('A' for Active; 'I' for Inactive)
REMARK    1  A    between atoms: O_2  and  C_3
REMARK    2  A    between atoms: C_6  and  S_9
REMARK    3  A    between atoms: S_9  and  N_12
REMARK    4  A    between atoms: N_12  and  C_13
REMARK    5  A    between atoms: C_13  and  C_14
REMARK    6  A    between atoms: C_18  and  C_19
REMARK    7  A    between atoms: C_19  and  C_20
REMARK    8  A    between atoms: N_22  and  C_23
REMARK    9  A    between atoms: C_23  and  C_24
REMARK   10  A    between atoms: C_31  and  C_32
REMARK                            x       y       z     vdW  Elec       q    Type
REMARK                         _______ _______ _______ _____ _____    ______ ____
ROOT
ATOM     14  C   UNL     1      -1.379   1.050  24.365  0.00  0.00    +0.041 C 
ATOM     15  C   UNL     1      -1.502   0.246  24.234  0.00  0.00    -0.033 C 
ATOM     16  C   UNL     1      -0.867  -0.242  24.032  0.00  0.00    -0.048 C 
ATOM     17  C   UNL     1      -0.989  -1.047  23.901  0.00  0.00    +0.026 C 
ATOM     18  C   UNL     1      -0.109   0.077  23.962  0.00  0.00    +0.027 C 
ATOM     30  C   UNL     1       0.014   0.883  24.093  0.00  0.00    +0.005 C 
ATOM     31  C   UNL     1      -0.621   1.369  24.295  0.00  0.00    +0.006 C 
ENDROOT
BRANCH  31  32
ATOM     32  C   UNL     1      -0.497   2.174  24.426  0.00  0.00    +0.000 C 
ATOM     33  C   UNL     1      -0.297   2.442  25.180  0.00  0.00    +0.000 C 
ATOM     34  C   UNL     1      -0.574   2.709  23.804  0.00  0.00    +0.000 C 
ENDBRANCH  31  32
BRANCH  14  13
ATOM     13  C   UNL     1      -2.013   1.537  24.566  0.00  0.00    +0.120 C 
BRANCH  13  12
ATOM     12  N   UNL     1      -2.787   1.259  24.493  0.00  0.00    -0.077 NA
BRANCH  12   9
ATOM      9  S   UNL     1      -3.419   1.730  24.735  0.00  0.00    +0.077 S 
ATOM     10  O   UNL     1      -3.540   1.969  23.955  0.00  0.00    -0.152 OA
ATOM     11  O   UNL     1      -3.299   1.491  25.515  0.00  0.00    -0.152 OA
BRANCH   9   6
ATOM      3  C   UNL     1      -5.318   3.142  25.462  0.00  0.00    +0.139 A 
ATOM      4  C   UNL     1      -4.569   3.475  25.363  0.00  0.00    +0.038 A 
ATOM      5  C   UNL     1      -3.937   3.005  25.121  0.00  0.00    +0.023 A 
ATOM      6  C   UNL     1      -4.052   2.201  24.977  0.00  0.00    +0.124 A 
ATOM      7  C   UNL     1      -4.800   1.867  25.076  0.00  0.00    +0.023 A 
ATOM      8  C   UNL     1      -5.433   2.338  25.318  0.00  0.00    +0.038 A 
BRANCH   3   2
ATOM      1  C   UNL     1      -5.920   4.430  25.602  0.00  0.00    +0.252 C 
ATOM      2  O   UNL     1      -5.950   3.612  25.704  0.00  0.00    -0.471 OA
ENDBRANCH   3   2
ENDBRANCH   9   6
ENDBRANCH  12   9
ENDBRANCH  13  12
ENDBRANCH  14  13
BRANCH  18  19
ATOM     19  C   UNL     1       0.526  -0.410  23.760  0.00  0.00    +0.091 C 
BRANCH  19  20
ATOM     20  C   UNL     1       1.024  -0.200  23.137  0.00  0.00    +0.242 C 
ATOM     21  O   UNL     1       0.716  -0.094  22.379  0.00  0.00    -0.273 OA
ATOM     22  N   UNL     1       1.832  -0.097  23.273  0.00  0.00    -0.200 NA
BRANCH  22  23
ATOM     23  C   UNL     1       2.331   0.113  22.649  0.00  0.00    +0.143 C 
BRANCH  23  24
ATOM     24  C   UNL     1       3.135   0.233  22.788  0.00  0.00    +0.019 A 
ATOM     25  C   UNL     1       3.470   0.975  22.651  0.00  0.00    +0.001 A 
ATOM     26  C   UNL     1       4.274   1.095  22.790  0.00  0.00    +0.020 A 
ATOM     27  C   UNL     1       4.743   0.476  23.065  0.00  0.00    +0.099 A 
ATOM     28  N   UNL     1       4.408  -0.266  23.202  0.00  0.00    -0.243 NA
ATOM     29  C   UNL     1       3.603  -0.386  23.063  0.00  0.00    +0.096 A 
ENDBRANCH  23  24
ENDBRANCH  22  23
ENDBRANCH  19  20
ENDBRANCH  18  19
TORSDOF 10
ENDMDL
MODEL 2
REMARK VINA RESULT:      -8.1      1.670      6.716
REMARK  Name = 
REMARK  10 active torsions:
REMARK  status: ('A' for Active; 'I' for Inactive)
REMARK    1  A    between atoms: O_2  and  C_3
REMARK    2  A    between atoms: C_6  and  S_9
REMARK    3  A    between atoms: S_9  and  N_12
REMARK    4  A    between atoms: N_12  and  C_13
REMARK    5  A    between atoms: C_13  and  C_14
REMARK    6  A    between atoms: C_18  and  C_19
REMARK    7  A    between atoms: C_19  and  C_20
REMARK    8  A    between atoms: N_22  and  C_23
REMARK    9  A    between atoms: C_23  and  C_24
REMARK   10  A    between atoms: C_31  and  C_32
REMARK                            x       y       z     vdW  Elec       q    Type
REMARK                         _______ _______ _______ _____ _____    ______ ____
ROOT
ATOM     14  C   UNL     1      -1.150   0.266  24.213  0.00  0.00    +0.041 C 
ATOM     15  C   UNL     1      -1.376  -0.519  24.324  0.00  0.00    -0.033 C 
ATOM     16  C   UNL     1      -2.119  -0.694  24.639  0.00  0.00    -0.048 C 
ATOM     17  C   UNL     1      -2.346  -1.480  24.751  0.00  0.00    +0.026 C 
ATOM     18  C   UNL     1      -2.635  -0.084  24.842  0.00  0.00    +0.027 C 
ATOM     30  C   UNL     1      -2.408   0.703  24.731  0.00  0.00    +0.005 C 
ATOM     31  C   UNL     1      -1.666   0.877  24.416  0.00  0.00    +0.006 C 
ENDROOT
BRANCH  31  32
ATOM     32  C   UNL     1      -1.440   1.662  24.305  0.00  0.00    +0.000 C 
ATOM     33  C   UNL     1      -1.594   2.037  23.586  0.00  0.00    +0.000 C 
ATOM     34  C   UNL     1      -1.062   2.073  24.912  0.00  0.00    +0.000 C 
ENDBRANCH  31  32
BRANCH  14  13
ATOM     13  C   UNL     1      -0.408   0.441  23.899  0.00  0.00    +0.120 C 
BRANCH  13  12
ATOM     12  N   UNL     1       0.050  -0.158  23.564  0.00  0.00    -0.077 NA
BRANCH  12   9
ATOM      9  S   UNL     1       0.814   0.006  23.300  0.00  0.00    +0.077 S 
ATOM     10  O   UNL     1       0.529   0.101  22.532  0.00  0.00    -0.152 OA
ATOM     11  O   UNL     1       1.100  -0.090  24.068  0.00  0.00    -0.152 OA
BRANCH   9   6
ATOM      3  C   UNL     1       3.108   0.497  22.509  0.00  0.00    +0.139 A 
ATOM      4  C   UNL     1       2.670  -0.107  22.156  0.00  0.00    +0.038 A 
ATOM      5  C   UNL     1       1.906  -0.271  22.419  0.00  0.00    +0.023 A 
ATOM      6  C   UNL     1       1.579   0.169  23.036  0.00  0.00    +0.124 A 
ATOM      7  C   UNL     1       2.016   0.773  23.389  0.00  0.00    +0.023 A 
ATOM      8  C   UNL     1       2.781   0.937  23.125  0.00  0.00    +0.038 A 
BRANCH   3   2
ATOM      1  C   UNL     1       4.513   0.577  22.758  0.00  0.00    +0.252 C 
ATOM      2  O   UNL     1       3.872   0.660  22.245  0.00  0.00    -0.471 OA
ENDBRANCH   3   2
ENDBRANCH   9   6
ENDBRANCH  12   9
ENDBRANCH  13  12
ENDBRANCH  14  13
BRANCH  18  19
ATOM     19  C   UNL     1      -3.378  -0.258  25.157  0.00  0.00    +0.091 C 
BRANCH  19  20
ATOM     20  C   UNL     1      -4.051   0.110  24.853  0.00  0.00    +0.242 C 
ATOM     21  O   UNL     1      -4.379  -0.151  24.143  0.00  0.00    -0.273 OA
ATOM     22  N   UNL     1      -4.394   0.739  25.261  0.00  0.00    -0.200 NA
BRANCH  22  23
ATOM     23  C   UNL     1      -5.068   1.109  24.958  0.00  0.00    +0.143 C 
BRANCH  23  24
ATOM     24  C   UNL     1      -5.295   1.848  25.243  0.00  0.00    +0.019 A 
ATOM     25  C   UNL     1      -5.047   2.534  24.854  0.00  0.00    +0.001 A 
ATOM     26  C   UNL     1      -5.274   3.274  25.139  0.00  0.00    +0.020 A 
ATOM     27  C   UNL     1      -5.749   3.329  25.810  0.00  0.00    +0.099 A 
ATOM     28  N   UNL     1      -5.997   2.645  26.198  0.00  0.00    -0.243 NA
ATOM     29  C   UNL     1      -5.770   1.904  25.914  0.00  0.00    +0.096 A 
ENDBRANCH  23  24
ENDBRANCH  22  23
ENDBRANCH  19  20
ENDBRANCH  18  19
TORSDOF 10
ENDMDL
MODEL 3
REMARK VINA RESULT:      -7.2      3.701      5.583
REMARK  Name = 
REMARK  10 active torsions:
REMARK  status: ('A' for Active; 'I' for Inactive)
REMARK    1  A    between atoms: O_2  and  C_3
REMARK    2  A    between atoms: C_6  and  S_9
REMARK    3  A    between atoms: S_9  and  N_12
REMARK    4  A    between atoms: N_12  and  C_13
REMARK    5  A    between atoms: C_13  and  C_14
REMARK    6  A    between atoms: C_18  and  C_19
REMARK    7  A    between atoms: C_19  and  C_20
REMARK    8  A    between atoms: N_22  and  C_23
REMARK    9  A    between atoms: C_23  and  C_24
REMARK   10  A    between atoms: C_31  and  C_32
REMARK                            x       y       z     vdW  Elec       q    Type
REMARK                         _______ _______ _______ _____ _____    ______ ____
ROOT
ATOM     14  C   UNL     1      -4.249   1.511  24.503  0.00  0.00    +0.041 C 
ATOM     15  C   UNL     1      -4.795   1.736  25.079  0.00  0.00    -0.033 C 
ATOM     16  C   UNL     1      -4.819   2.517  25.342  0.00  0.00    -0.048 C 
ATOM     17  C   UNL     1      -5.365   2.743  25.919  0.00  0.00    +0.026 C 
ATOM     18  C   UNL     1      -4.297   3.074  25.028  0.00  0.00    +0.027 C 
ATOM     30  C   UNL     1      -3.751   2.849  24.451  0.00  0.00    +0.005 C 
ATOM     31  C   UNL     1      -3.728   2.067  24.189  0.00  0.00    +0.006 C 
ENDROOT
BRANCH  31  32
ATOM     32  C   UNL     1      -3.182   1.843  23.613  0.00  0.00    +0.000 C 
ATOM     33  C   UNL     1      -2.444   1.547  23.837  0.00  0.00    +0.000 C 
ATOM     34  C   UNL     1      -3.373   1.914  22.814  0.00  0.00    +0.000 C 
ENDBRANCH  31  32
BRANCH  14  13
ATOM     13  C   UNL     1      -4.225   0.729  24.241  0.00  0.00    +0.120 C 
BRANCH  13  12
ATOM     12  N   UNL     1      -4.558   0.129  24.699  0.00  0.00    -0.077 NA
BRANCH  12   9
ATOM      9  S   UNL     1      -4.301  -0.649  24.609  0.00  0.00    +0.077 S 
ATOM     10  O   UNL     1      -4.670  -0.687  23.873  0.00  0.00    -0.152 OA
ATOM     11  O   UNL     1      -3.931  -0.613  25.346  0.00  0.00    -0.152 OA
BRANCH   9   6
ATOM      3  C   UNL     1      -3.529  -2.986  24.340  0.00  0.00    +0.139 A 
ATOM      4  C   UNL     1      -3.274  -2.538  24.985  0.00  0.00    +0.038 A 
ATOM      5  C   UNL     1      -3.531  -1.760  25.075  0.00  0.00    +0.023 A 
ATOM      6  C   UNL     1      -4.043  -1.429  24.520  0.00  0.00    +0.124 A 
ATOM      7  C   UNL     1      -4.299  -1.875  23.875  0.00  0.00    +0.023 A 
ATOM      8  C   UNL     1      -4.041  -2.654  23.785  0.00  0.00    +0.038 A 
BRANCH   3   2
ATOM      1  C   UNL     1      -2.557  -3.922  23.871  0.00  0.00    +0.252 C 
ATOM      2  O   UNL     1      -3.272  -3.764  24.251  0.00  0.00    -0.471 OA
ENDBRANCH   3   2
ENDBRANCH   9   6
ENDBRANCH  12   9
ENDBRANCH  13  12
ENDBRANCH  14  13
BRANCH  18  19
ATOM     19  C   UNL     1      -4.321   3.857  25.291  0.00  0.00    +0.091 C 
BRANCH  19  20
ATOM     20  C   UNL     1      -3.685   4.169  25.713  0.00  0.00    +0.242 C 
ATOM     21  O   UNL     1      -3.698   4.172  26.538  0.00  0.00    -0.273 OA
ATOM     22  N   UNL     1      -3.035   4.478  25.309  0.00  0.00    -0.200 NA
BRANCH  22  23
ATOM     23  C   UNL     1      -2.398   4.791  25.731  0.00  0.00    +0.143 C 
BRANCH  23  24
ATOM     24  C   UNL     1      -1.669   4.891  25.360  0.00  0.00    +0.019 A 
ATOM     25  C   UNL     1      -1.109   4.284  25.380  0.00  0.00    +0.001 A 
ATOM     26  C   UNL     1      -0.379   4.385  25.009  0.00  0.00    +0.020 A 
ATOM     27  C   UNL     1      -0.208   5.091  24.619  0.00  0.00    +0.099 A 
ATOM     28  N   UNL     1      -0.767   5.697  24.599  0.00  0.00    -0.243 NA
ATOM     29  C   UNL     1      -1.498   5.597  24.970  0.00  0.00    +0.096 A 
ENDBRANCH  23  24
ENDBRANCH  22  23
ENDBRANCH  19  20
ENDBRANCH  18  19
TORSDOF 10
ENDMDL
MODEL 4
REMARK VINA RESULT:      -7.1      1.819      6.931
REMARK  Name = 
REMARK  10 active torsions:
REMARK  status: ('A' for Active; 'I' for Inactive)
REMARK    1  A    between atoms: O_2  and  C_3
REMARK    2  A    between atoms: C_6  and  S_9
REMARK    3  A    between atoms: S_9  and  N_12
REMARK    4  A    between atoms: N_12  and  C_13
REMARK    5  A    between atoms: C_13  and  C_14
REMARK    6  A    between atoms: C_18  and  C_19
REMARK    7  A    between atoms: C_19  and  C_20
REMARK    8  A    between atoms: N_22  and  C_23
REMARK    9  A    between atoms: C_23  and  C_24
REMARK   10  A    between atoms: C_31  and  C_32
REMARK                            x       y       z     vdW  Elec       q    Type
REMARK                         _______ _______ _______ _____ _____    ______ ____
ROOT
ATOM     14  C   UNL     1      -1.380   2.164  24.195  0.00  0.00    +0.041 C 
ATOM     15  C   UNL     1      -1.150   2.603  24.854  0.00  0.00    -0.033 C 
ATOM     16  C   UNL     1      -1.668   3.153  25.185  0.00  0.00    -0.048 C 
ATOM     17  C   UNL     1      -1.439   3.593  25.845  0.00  0.00    +0.026 C 
ATOM     18  C   UNL     1      -2.417   3.265  24.856  0.00  0.00    +0.027 C 
ATOM     30  C   UNL     1      -2.647   2.826  24.196  0.00  0.00    +0.005 C 
ATOM     31  C   UNL     1      -2.128   2.276  23.866  0.00  0.00    +0.006 C 
ENDROOT
BRANCH  31  32
ATOM     32  C   UNL     1      -2.358   1.837  23.206  0.00  0.00    +0.000 C 
ATOM     33  C   UNL     1      -2.717   1.100  23.306  0.00  0.00    +0.000 C 
ATOM     34  C   UNL     1      -2.231   2.134  22.448  0.00  0.00    +0.000 C 
ENDBRANCH  31  32
BRANCH  14  13
ATOM     13  C   UNL     1      -0.862   1.615  23.864  0.00  0.00    +0.120 C 
BRANCH  13  12
ATOM     12  N   UNL     1      -0.188   1.380  24.279  0.00  0.00    -0.077 NA
BRANCH  12   9
ATOM      9  S   UNL     1       0.461   1.074  23.874  0.00  0.00    +0.077 S 
ATOM     10  O   UNL     1       0.106   0.330  23.864  0.00  0.00    -0.152 OA
ATOM     11  O   UNL     1       0.817   1.818  23.882  0.00  0.00    -0.152 OA
BRANCH   9   6
ATOM      3  C   UNL     1       2.411   0.157  22.656  0.00  0.00    +0.139 A 
ATOM      4  C   UNL     1       1.679  -0.220  22.607  0.00  0.00    +0.038 A 
ATOM      5  C   UNL     1       1.030   0.085  23.012  0.00  0.00    +0.023 A 
ATOM      6  C   UNL     1       1.111   0.768  23.467  0.00  0.00    +0.124 A 
ATOM      7  C   UNL     1       1.843   1.146  23.517  0.00  0.00    +0.023 A 
ATOM      8  C   UNL     1       2.493   0.840  23.111  0.00  0.00    +0.038 A 
BRANCH   3   2
ATOM      1  C   UNL     1       3.808   0.185  22.356  0.00  0.00    +0.252 C 
ATOM      2  O   UNL     1       3.061  -0.148  22.250  0.00  0.00    -0.471 OA
ENDBRANCH   3   2
ENDBRANCH   9   6
ENDBRANCH  12   9
ENDBRANCH  13  12
ENDBRANCH  14  13
BRANCH  18  19
ATOM     19  C   UNL     1      -2.935   3.815  25.187  0.00  0.00    +0.091 C 
BRANCH  19  20
ATOM     20  C   UNL     1      -3.734   3.803  24.981  0.00  0.00    +0.242 C 
ATOM     21  O   UNL     1      -3.998   4.226  24.324  0.00  0.00    -0.273 OA
ATOM     22  N   UNL     1      -4.269   3.367  25.434  0.00  0.00    -0.200 NA
BRANCH  22  23
ATOM     23  C   UNL     1      -5.068   3.355  25.229  0.00  0.00    +0.143 C 
BRANCH  23  24
ATOM     24  C   UNL     1      -5.556   2.751  25.508  0.00  0.00    +0.019 A 
ATOM     25  C   UNL     1      -5.830   2.169  24.990  0.00  0.00    +0.001 A 
ATOM     26  C   UNL     1      -6.317   1.566  25.270  0.00  0.00    +0.020 A 
ATOM     27  C   UNL     1      -6.531   1.543  26.065  0.00  0.00    +0.099 A 
ATOM     28  N   UNL     1      -6.257   2.123  26.583  0.00  0.00    -0.243 NA
ATOM     29  C   UNL     1      -5.769   2.728  26.304  0.00  0.00    +0.096 A 
ENDBRANCH  23  24
ENDBRANCH  22  23
ENDBRANCH  19  20
ENDBRANCH  18  19
TORSDOF 10
ENDMDL
MODEL 5
REMARK VINA RESULT:      -7.0      2.636      5.523
REMARK  Name = 
REMARK  10 active torsions:
REMARK  status: ('A' for Active; 'I' for Inactive)
REMARK    1  A    between atoms: O_2  and  C_3
REMARK    2  A    between atoms: C_6  and  S_9
REMARK    3  A    between atoms: S_9  and  N_12
REMARK    4  A    between atoms: N_12  and  C_13
REMARK    5  A    between atoms: C_13  and  C_14
REMARK    6  A    between atoms: C_18  and  C_19
REMARK    7  A    between atoms: C_19  and  C_20
REMARK    8  A    between atoms: N_22  and  C_23
REMARK    9  A    between atoms: C_23  and  C_24
REMARK   10  A    between atoms: C_31  and  C_32
REMARK                            x       y       z     vdW  Elec       q    Type
REMARK                         _______ _______ _______ _____ _____    ______ ____
ROOT
ATOM     14  C   UNL     1      -0.594   0.996  24.994  0.00  0.00    +0.041 C 
ATOM     15  C   UNL     1      -0.505   1.237  25.777  0.00  0.00    -0.033 C 
ATOM     16  C   UNL     1      -0.409   2.036  25.956  0.00  0.00    -0.048 C 
ATOM     17  C   UNL     1      -0.320   2.277  26.740  0.00  0.00    +0.026 C 
ATOM     18  C   UNL     1      -0.401   2.596  25.350  0.00  0.00    +0.027 C 
ATOM     30  C   UNL     1      -0.489   2.356  24.565  0.00  0.00    +0.005 C 
ATOM     31  C   UNL     1      -0.586   1.556  24.387  0.00  0.00    +0.006 C 
ENDROOT
BRANCH  31  32
ATOM     32  C   UNL     1      -0.674   1.316  23.603  0.00  0.00    +0.000 C 
ATOM     33  C   UNL     1      -1.406   1.395  23.228  0.00  0.00    +0.000 C 
ATOM     34  C   UNL     1      -0.034   0.998  23.194  0.00  0.00    +0.000 C 
ENDBRANCH  31  32
BRANCH  14  13
ATOM     13  C   UNL     1      -0.690   0.197  24.816  0.00  0.00    +0.120 C 
BRANCH  13  12
ATOM     12  N   UNL     1      -0.937  -0.330  25.401  0.00  0.00    -0.077 NA
BRANCH  12   9
ATOM      9  S   UNL     1      -1.473  -0.928  25.218  0.00  0.00    +0.077 S 
ATOM     10  O   UNL     1      -0.888  -1.323  24.791  0.00  0.00    -0.152 OA
ATOM     11  O   UNL     1      -2.059  -0.534  25.645  0.00  0.00    -0.152 OA
BRANCH   9   6
ATOM      3  C   UNL     1      -3.085  -2.726  24.669  0.00  0.00    +0.139 A 
ATOM      4  C   UNL     1      -3.336  -2.058  25.084  0.00  0.00    +0.038 A 
ATOM      5  C   UNL     1      -2.800  -1.459  25.266  0.00  0.00    +0.023 A 
ATOM      6  C   UNL     1      -2.011  -1.528  25.035  0.00  0.00    +0.124 A 
ATOM      7  C   UNL     1      -1.758  -2.195  24.621  0.00  0.00    +0.023 A 
ATOM      8  C   UNL     1      -2.296  -2.794  24.438  0.00  0.00    +0.038 A 
BRANCH   3   2
ATOM      1  C   UNL     1      -4.212  -3.193  23.926  0.00  0.00    +0.252 C 
ATOM      2  O   UNL     1      -3.621  -3.325  24.486  0.00  0.00    -0.471 OA
ENDBRANCH   3   2
ENDBRANCH   9   6
ENDBRANCH  12   9
ENDBRANCH  13  12
ENDBRANCH  14  13
BRANCH  18  19
ATOM     19  C   UNL     1      -0.304   3.396  25.528  0.00  0.00    +0.091 C 
BRANCH  19  20
ATOM     20  C   UNL     1      -0.874   3.943  25.290  0.00  0.00    +0.242 C 
ATOM     21  O   UNL     1      -0.671   4.555  24.776  0.00  0.00    -0.273 OA
ATOM     22  N   UNL     1      -1.648   3.876  25.568  0.00  0.00    -0.200 NA
BRANCH  22  23
ATOM     23  C   UNL     1      -2.220   4.423  25.330  0.00  0.00    +0.143 C 
BRANCH  23  24
ATOM     24  C   UNL     1      -3.019   4.222  25.360  0.00  0.00    +0.019 A 
ATOM     25  C   UNL     1      -3.436   4.085  24.661  0.00  0.00    +0.001 A 
ATOM     26  C   UNL     1      -4.236   3.884  24.692  0.00  0.00    +0.020 A 
ATOM     27  C   UNL     1      -4.618   3.821  25.419  0.00  0.00    +0.099 A 
ATOM     28  N   UNL     1      -4.202   3.959  26.118  0.00  0.00    -0.243 NA
ATOM     29  C   UNL     1      -3.401   4.160  26.088  0.00  0.00    +0.096 A 
ENDBRANCH  23  24
ENDBRANCH  22  23
ENDBRANCH  19  20
ENDBRANCH  18  19
TORSDOF 10
ENDMDL
MODEL 6
REMARK VINA RESULT:      -6.9      2.043      6.427
REMARK  Name = 
REMARK  10 active torsions:
REMARK  status: ('A' for Active; 'I' for Inactive)
REMARK    1  A    between atoms: O_2  and  C_3
REMARK    2  A    between atoms: C_6  and  S_9
REMARK    3  A    between atoms: S_9  and  N_12
REMARK    4  A    between atoms: N_12  and  C_13
REMARK    5  A    between atoms: C_13  and  C_14
REMARK    6  A    between atoms: C_18  and  C_19
REMARK    7  A    between atoms: C_19  and  C_20
REMARK    8  A    between atoms: N_22  and  C_23
REMARK    9  A    between atoms: C_23  and  C_24
REMARK   10  A    between atoms: C_31  and  C_32
REMARK                            x       y       z     vdW  Elec       q    Type
REMARK                         _______ _______ _______ _____ _____    ______ ____
ROOT
ATOM     14  C   UNL     1      -0.720   1.122  23.958  0.00  0.00    +0.041 C 
ATOM     15  C   UNL     1      -1.160   1.308  23.286  0.00  0.00    -0.033 C 
ATOM     16  C   UNL     1      -1.975   1.419  23.343  0.00  0.00    -0.048 C 
ATOM     17  C   UNL     1      -2.416   1.605  22.670  0.00  0.00    +0.026 C 
ATOM     18  C   UNL     1      -2.351   1.344  24.073  0.00  0.00    +0.027 C 
ATOM     30  C   UNL     1      -1.911   1.158  24.747  0.00  0.00    +0.005 C 
ATOM     31  C   UNL     1      -1.096   1.047  24.689  0.00  0.00    +0.006 C 
ENDROOT
BRANCH  31  32
ATOM     32  C   UNL     1      -0.657   0.861  25.362  0.00  0.00    +0.000 C 
ATOM     33  C   UNL     1      -0.558   0.073  25.584  0.00  0.00    +0.000 C 
ATOM     34  C   UNL     1      -0.317   1.462  25.811  0.00  0.00    +0.000 C 
ENDBRANCH  31  32
BRANCH  14  13
ATOM     13  C   UNL     1       0.095   1.012  23.900  0.00  0.00    +0.120 C 
BRANCH  13  12
ATOM     12  N   UNL     1       0.451   0.941  23.159  0.00  0.00    -0.077 NA
BRANCH  12   9
ATOM      9  S   UNL     1       1.257   0.776  23.103  0.00  0.00    +0.077 S 
ATOM     10  O   UNL     1       1.432   1.534  23.376  0.00  0.00    -0.152 OA
ATOM     11  O   UNL     1       1.083   0.017  22.829  0.00  0.00    -0.152 OA
BRANCH   9   6
ATOM      3  C   UNL     1       3.676   0.280  22.932  0.00  0.00    +0.139 A 
ATOM      4  C   UNL     1       3.416   1.062  22.970  0.00  0.00    +0.038 A 
ATOM      5  C   UNL     1       2.611   1.228  23.026  0.00  0.00    +0.023 A 
ATOM      6  C   UNL     1       2.064   0.611  23.046  0.00  0.00    +0.124 A 
ATOM      7  C   UNL     1       2.322  -0.172  23.008  0.00  0.00    +0.023 A 
ATOM      8  C   UNL     1       3.129  -0.337  22.951  0.00  0.00    +0.038 A 
BRANCH   3   2
ATOM      1  C   UNL     1       4.999   0.371  23.465  0.00  0.00    +0.252 C 
ATOM      2  O   UNL     1       4.482   0.115  22.875  0.00  0.00    -0.471 OA
ENDBRANCH   3   2
ENDBRANCH   9   6
ENDBRANCH  12   9
ENDBRANCH  13  12
ENDBRANCH  14  13
BRANCH  18  19
ATOM     19  C   UNL     1      -3.167   1.455  24.131  0.00  0.00    +0.091 C 
BRANCH  19  20
ATOM     20  C   UNL     1      -3.629   0.910  24.544  0.00  0.00    +0.242 C 
ATOM     21  O   UNL     1      -3.996   1.131  25.249  0.00  0.00    -0.273 OA
ATOM     22  N   UNL     1      -3.722   0.145  24.252  0.00  0.00    -0.200 NA
BRANCH  22  23
ATOM     23  C   UNL     1      -4.183  -0.401  24.665  0.00  0.00    +0.143 C 
BRANCH  23  24
ATOM     24  C   UNL     1      -4.077  -1.209  24.539  0.00  0.00    +0.019 A 
ATOM     25  C   UNL     1      -3.679  -1.664  25.101  0.00  0.00    +0.001 A 
ATOM     26  C   UNL     1      -3.572  -2.473  24.976  0.00  0.00    +0.020 A 
ATOM     27  C   UNL     1      -3.862  -2.826  24.290  0.00  0.00    +0.099 A 
ATOM     28  N   UNL     1      -4.259  -2.371  23.728  0.00  0.00    -0.243 NA
ATOM     29  C   UNL     1      -4.367  -1.562  23.853  0.00  0.00    +0.096 A 
ENDBRANCH  23  24
ENDBRANCH  22  23
ENDBRANCH  19  20
ENDBRANCH  18  19
TORSDOF 10
ENDMDL
MODEL 7
REMARK VINA RESULT:      -5.7     17.233     19.237
REMARK  Name = 
REMARK  10 active torsions:
REMARK  status: ('A' for Active; 'I' for Inactive)
REMARK    1  A    between atoms: O_2  and  C_3
REMARK    2  A    between atoms: C_6  and  S_9
REMARK    3  A    between atoms: S_9  and  N_12
REMARK    4  A    between atoms: N_12  and  C_13
REMARK    5  A    between atoms: C_13  and  C_14
REMARK    6  A    between atoms: C_18  and  C_19
REMARK    7  A    between atoms: C_19  and  C_20
REMARK    8  A    between atoms: N_22  and  C_23
REMARK    9  A    between atoms: C_23  and  C_24
REMARK   10  A    between atoms: C_31  and  C_32
REMARK                            x       y       z     vdW  Elec       q    Type
REMARK                         _______ _______ _______ _____ _____    ______ ____
ROOT
ATOM     14  C   UNL     1      -6.754  -9.271  10.141  0.00  0.00    +0.041 C 
ATOM     15  C   UNL     1      -7.339  -9.420  10.702  0.00  0.00    -0.033 C 
ATOM     16  C   UNL     1      -8.127  -9.240  10.535  0.00  0.00    -0.048 C 
ATOM     17  C   UNL     1      -8.713  -9.389  11.097  0.00  0.00    +0.026 C 
ATOM     18  C   UNL     1      -8.329  -8.911   9.806  0.00  0.00    +0.027 C 
ATOM     30  C   UNL     1      -7.743  -8.761   9.244  0.00  0.00    +0.005 C 
ATOM     31  C   UNL     1      -6.956  -8.941   9.412  0.00  0.00    +0.006 C 
ENDROOT
BRANCH  31  32
ATOM     32  C   UNL     1      -6.371  -8.792   8.850  0.00  0.00    +0.000 C 
ATOM     33  C   UNL     1      -6.178  -9.369   8.292  0.00  0.00    +0.000 C 
ATOM     34  C   UNL     1      -5.980  -8.067   8.845  0.00  0.00    +0.000 C 
ENDBRANCH  31  32
BRANCH  14  13
ATOM     13  C   UNL     1      -5.967  -9.450  10.308  0.00  0.00    +0.120 C 
BRANCH  13  12
ATOM     12  N   UNL     1      -5.758  -9.741  11.051  0.00  0.00    -0.077 NA
BRANCH  12   9
ATOM      9  S   UNL     1      -4.968  -9.893  11.228  0.00  0.00    +0.077 S 
ATOM     10  O   UNL     1      -5.034 -10.640  10.885  0.00  0.00    -0.152 OA
ATOM     11  O   UNL     1      -4.900  -9.145  11.572  0.00  0.00    -0.152 OA
BRANCH   9   6
ATOM      3  C   UNL     1      -2.593 -10.349  11.760  0.00  0.00    +0.139 A 
ATOM      4  C   UNL     1      -2.792  -9.962  11.059  0.00  0.00    +0.038 A 
ATOM      5  C   UNL     1      -3.583  -9.810  10.881  0.00  0.00    +0.023 A 
ATOM      6  C   UNL     1      -4.176 -10.045  11.405  0.00  0.00    +0.124 A 
ATOM      7  C   UNL     1      -3.977 -10.432  12.106  0.00  0.00    +0.023 A 
ATOM      8  C   UNL     1      -3.185 -10.584  12.283  0.00  0.00    +0.038 A 
BRANCH   3   2
ATOM      1  C   UNL     1      -1.246  -9.893  11.899  0.00  0.00    +0.252 C 
ATOM      2  O   UNL     1      -1.802 -10.501  11.937  0.00  0.00    -0.471 OA
ENDBRANCH   3   2
ENDBRANCH   9   6
ENDBRANCH  12   9
ENDBRANCH  13  12
ENDBRANCH  14  13
BRANCH  18  19
ATOM     19  C   UNL     1      -9.117  -8.730   9.639  0.00  0.00    +0.091 C 
BRANCH  19  20
ATOM     20  C   UNL     1      -9.301  -8.237   9.004  0.00  0.00    +0.242 C 
ATOM     21  O   UNL     1      -9.315  -8.538   8.236  0.00  0.00    -0.273 OA
ATOM     22  N   UNL     1      -9.470  -7.440   9.138  0.00  0.00    -0.200 NA
BRANCH  22  23
ATOM     23  C   UNL     1      -9.654  -6.946   8.503  0.00  0.00    +0.143 C 
BRANCH  23  24
ATOM     24  C   UNL     1      -9.816  -6.148   8.636  0.00  0.00    +0.019 A 
ATOM     25  C   UNL     1      -9.233  -5.580   8.495  0.00  0.00    +0.001 A 
ATOM     26  C   UNL     1      -9.395  -4.782   8.628  0.00  0.00    +0.020 A 
ATOM     27  C   UNL     1     -10.137  -4.552   8.901  0.00  0.00    +0.099 A 
ATOM     28  N   UNL     1     -10.719  -5.119   9.042  0.00  0.00    -0.243 NA
ATOM     29  C   UNL     1     -10.558  -5.917   8.909  0.00  0.00    +0.096 A 
ENDBRANCH  23  24
ENDBRANCH  22  23
ENDBRANCH  19  20
ENDBRANCH  18  19
TORSDOF 10
ENDMDL
MODEL 8
REMARK VINA RESULT:      -5.4     16.562     18.413
REMARK  Name = 
REMARK  10 active torsions:
REMARK  status: ('A' for Active; 'I' for Inactive)
REMARK    1  A    between atoms: O_2  and  C_3
REMARK    2  A    between atoms: C_6  and  S_9
REMARK    3  A    between atoms: S_9  and  N_12
REMARK    4  A    between atoms: N_12  and  C_13
REMARK    5  A    between atoms: C_13  and  C_14
REMARK    6  A    between atoms: C_18  and  C_19
REMARK    7  A    between atoms: C_19  and  C_20
REMARK    8  A    between atoms: N_22  and  C_23
REMARK    9  A    between atoms: C_23  and  C_24
REMARK   10  A    between atoms: C_31  and  C_32
REMARK                            x       y       z     vdW  Elec       q    Type
REMARK                         _______ _______ _______ _____ _____    ______ ____
ROOT
ATOM     14  C   UNL     1      -6.638  -9.292  10.924  0.00  0.00    +0.041 C 
ATOM     15  C   UNL     1      -7.438  -9.488  10.929  0.00  0.00    -0.033 C 
ATOM     16  C   UNL     1      -7.915  -9.296  10.284  0.00  0.00    -0.048 C 
ATOM     17  C   UNL     1      -8.717  -9.491  10.288  0.00  0.00    +0.026 C 
ATOM     18  C   UNL     1      -7.590  -8.908   9.632  0.00  0.00    +0.027 C 
ATOM     30  C   UNL     1      -6.788  -8.711   9.627  0.00  0.00    +0.005 C 
ATOM     31  C   UNL     1      -6.312  -8.904  10.273  0.00  0.00    +0.006 C 
ENDROOT
BRANCH  31  32
ATOM     32  C   UNL     1      -5.511  -8.708  10.267  0.00  0.00    +0.000 C 
ATOM     33  C   UNL     1      -5.262  -7.981  10.571  0.00  0.00    +0.000 C 
ATOM     34  C   UNL     1      -4.959  -9.236   9.958  0.00  0.00    +0.000 C 
ENDBRANCH  31  32
BRANCH  14  13
ATOM     13  C   UNL     1      -6.162  -9.484  11.569  0.00  0.00    +0.120 C 
BRANCH  13  12
ATOM     12  N   UNL     1      -6.493  -9.839  12.236  0.00  0.00    -0.077 NA
BRANCH  12   9
ATOM      9  S   UNL     1      -6.020 -10.019  12.887  0.00  0.00    +0.077 S 
ATOM     10  O   UNL     1      -5.852 -10.758  12.561  0.00  0.00    -0.152 OA
ATOM     11  O   UNL     1      -6.188  -9.280  13.213  0.00  0.00    -0.152 OA
BRANCH   9   6
ATOM      3  C   UNL     1      -4.598 -10.558  14.840  0.00  0.00    +0.139 A 
ATOM      4  C   UNL     1      -5.347 -10.229  14.952  0.00  0.00    +0.038 A 
ATOM      5  C   UNL     1      -5.820 -10.050  14.302  0.00  0.00    +0.023 A 
ATOM      6  C   UNL     1      -5.546 -10.199  13.538  0.00  0.00    +0.124 A 
ATOM      7  C   UNL     1      -4.798 -10.528  13.425  0.00  0.00    +0.023 A 
ATOM      8  C   UNL     1      -4.324 -10.708  14.077  0.00  0.00    +0.038 A 
BRANCH   3   2
ATOM      1  C   UNL     1      -3.305 -10.781  15.406  0.00  0.00    +0.252 C 
ATOM      2  O   UNL     1      -4.125 -10.738  15.491  0.00  0.00    -0.471 OA
ENDBRANCH   3   2
ENDBRANCH   9   6
ENDBRANCH  12   9
ENDBRANCH  13  12
ENDBRANCH  14  13
BRANCH  18  19
ATOM     19  C   UNL     1      -8.066  -8.715   8.986  0.00  0.00    +0.091 C 
BRANCH  19  20
ATOM     20  C   UNL     1      -7.999  -7.974   8.631  0.00  0.00    +0.242 C 
ATOM     21  O   UNL     1      -7.358  -7.807   8.140  0.00  0.00    -0.273 OA
ATOM     22  N   UNL     1      -8.574  -7.398   8.769  0.00  0.00    -0.200 NA
BRANCH  22  23
ATOM     23  C   UNL     1      -8.507  -6.656   8.414  0.00  0.00    +0.143 C 
BRANCH  23  24
ATOM     24  C   UNL     1      -9.087  -6.084   8.544  0.00  0.00    +0.019 A 
ATOM     25  C   UNL     1      -9.845  -6.311   8.778  0.00  0.00    +0.001 A 
ATOM     26  C   UNL     1     -10.425  -5.739   8.908  0.00  0.00    +0.020 A 
ATOM     27  C   UNL     1     -10.248  -4.941   8.804  0.00  0.00    +0.099 A 
ATOM     28  N   UNL     1      -9.491  -4.713   8.570  0.00  0.00    -0.243 NA
ATOM     29  C   UNL     1      -8.910  -5.286   8.440  0.00  0.00    +0.096 A 
ENDBRANCH  23  24
ENDBRANCH  22  23
ENDBRANCH  19  20
ENDBRANCH  18  19
TORSDOF 10
ENDMDL
MODEL 9
REMARK VINA RESULT:      -4.9     14.974     18.218
REMARK  Name = 
REMARK  10 active torsions:
REMARK  status: ('A' for Active; 'I' for Inactive)
REMARK    1  A    between atoms: O_2  and  C_3
REMARK    2  A    between atoms: C_6  and  S_9
REMARK    3  A    between atoms: S_9  and  N_12
REMARK    4  A    between atoms: N_12  and  C_13
REMARK    5  A    between atoms: C_13  and  C_14
REMARK    6  A    between atoms: C_18  and  C_19
REMARK    7  A    between atoms: C_19  and  C_20
REMARK    8  A    between atoms: N_22  and  C_23
REMARK    9  A    between atoms: C_23  and  C_24
REMARK   10  A    between atoms: C_31  and  C_32
REMARK                            x       y       z     vdW  Elec       q    Type
REMARK                         _______ _______ _______ _____ _____    ______ ____
ROOT
ATOM     14  C   UNL     1      12.331  -7.604  31.440  0.00  0.00    +0.041 C 
ATOM     15  C   UNL     1      11.926  -6.944  31.724  0.00  0.00    -0.033 C 
ATOM     16  C   UNL     1      11.260  -7.043  32.202  0.00  0.00    -0.048 C 
ATOM     17  C   UNL     1      10.853  -6.383  32.486  0.00  0.00    +0.026 C 
ATOM     18  C   UNL     1      11.000  -7.801  32.396  0.00  0.00    +0.027 C 
ATOM     30  C   UNL     1      11.406  -8.462  32.112  0.00  0.00    +0.005 C 
ATOM     31  C   UNL     1      12.072  -8.362  31.634  0.00  0.00    +0.006 C 
ENDROOT
BRANCH  31  32
ATOM     32  C   UNL     1      12.477  -9.023  31.351  0.00  0.00    +0.000 C 
ATOM     33  C   UNL     1      13.100  -9.343  31.788  0.00  0.00    +0.000 C 
ATOM     34  C   UNL     1      12.261  -9.362  30.632  0.00  0.00    +0.000 C 
ENDBRANCH  31  32
BRANCH  14  13
ATOM     13  C   UNL     1      12.996  -7.505  30.963  0.00  0.00    +0.120 C 
BRANCH  13  12
ATOM     12  N   UNL     1      13.259  -6.747  30.771  0.00  0.00    -0.077 NA
BRANCH  12   9
ATOM      9  S   UNL     1      13.920  -6.648  30.289  0.00  0.00    +0.077 S 
ATOM     10  O   UNL     1      13.433  -6.632  29.623  0.00  0.00    -0.152 OA
ATOM     11  O   UNL     1      14.408  -6.663  30.954  0.00  0.00    -0.152 OA
BRANCH   9   6
ATOM      3  C   UNL     1      15.906  -6.352  28.841  0.00  0.00    +0.139 A 
ATOM      4  C   UNL     1      15.358  -6.946  28.674  0.00  0.00    +0.038 A 
ATOM      5  C   UNL     1      14.697  -7.045  29.156  0.00  0.00    +0.023 A 
ATOM      6  C   UNL     1      14.582  -6.549  29.806  0.00  0.00    +0.124 A 
ATOM      7  C   UNL     1      15.129  -5.955  29.973  0.00  0.00    +0.023 A 
ATOM      8  C   UNL     1      15.791  -5.856  29.490  0.00  0.00    +0.038 A 
BRANCH   3   2
ATOM      1  C   UNL     1      16.484  -6.250  27.538  0.00  0.00    +0.252 C 
ATOM      2  O   UNL     1      16.567  -6.253  28.359  0.00  0.00    -0.471 OA
ENDBRANCH   3   2
ENDBRANCH   9   6
ENDBRANCH  12   9
ENDBRANCH  13  12
ENDBRANCH  14  13
BRANCH  18  19
ATOM     19  C   UNL     1      10.334  -7.901  32.873  0.00  0.00    +0.091 C 
BRANCH  19  20
ATOM     20  C   UNL     1       9.778  -8.481  32.689  0.00  0.00    +0.242 C 
ATOM     21  O   UNL     1       9.929  -9.271  32.873  0.00  0.00    -0.273 OA
ATOM     22  N   UNL     1       9.071  -8.271  32.321  0.00  0.00    -0.200 NA
BRANCH  22  23
ATOM     23  C   UNL     1       8.514  -8.852  32.136  0.00  0.00    +0.143 C 
BRANCH  23  24
ATOM     24  C   UNL     1       7.799  -8.639  31.784  0.00  0.00    +0.019 A 
ATOM     25  C   UNL     1       7.629  -8.886  31.015  0.00  0.00    +0.001 A 
ATOM     26  C   UNL     1       6.914  -8.674  30.662  0.00  0.00    +0.020 A 
ATOM     27  C   UNL     1       6.370  -8.215  31.078  0.00  0.00    +0.099 A 
ATOM     28  N   UNL     1       6.539  -7.968  31.846  0.00  0.00    -0.243 NA
ATOM     29  C   UNL     1       7.255  -8.180  32.199  0.00  0.00    +0.096 A 
ENDBRANCH  23  24
ENDBRANCH  22  23
ENDBRANCH  19  20
ENDBRANCH  18  19
TORSDOF 10
ENDMDL
MODEL 10
REMARK VINA RESULT:      -4.7     17.280     18.122
REMARK  Name = 
REMARK  10 active torsions:
REMARK  status: ('A' for Active; 'I' for Inactive)
REMARK    1  A    between atoms: O_2  and  C_3
REMARK    2  A    between atoms: C_6  and  S_9
REMARK    3  A    between atoms: S_9  and  N_12
REMARK    4  A    between atoms: N_12  and  C_13
REMARK    5  A    between atoms: C_13  and  C_14
REMARK    6  A    between atoms: C_18  and  C_19
REMARK    7  A    between atoms: C_19  and  C_20
REMARK    8  A    between atoms: N_22  and  C_23
REMARK    9  A    between atoms: C_23  and  C_24
REMARK   10  A    between atoms: C_31  and  C_32
REMARK                            x       y       z     vdW  Elec       q    Type
REMARK                         _______ _______ _______ _____ _____    ______ ____
ROOT
ATOM     14  C   UNL     1      12.998  -6.246  31.626  0.00  0.00    +0.041 C 
ATOM     15  C   UNL     1      12.743  -5.646  32.130  0.00  0.00    -0.033 C 
ATOM     16  C   UNL     1      13.156  -4.932  32.165  0.00  0.00    -0.048 C 
ATOM     17  C   UNL     1      12.902  -4.331  32.670  0.00  0.00    +0.026 C 
ATOM     18  C   UNL     1      13.824  -4.819  31.694  0.00  0.00    +0.027 C 
ATOM     30  C   UNL     1      14.079  -5.420  31.188  0.00  0.00    +0.005 C 
ATOM     31  C   UNL     1      13.665  -6.133  31.155  0.00  0.00    +0.006 C 
ENDROOT
BRANCH  31  32
ATOM     32  C   UNL     1      13.921  -6.733  30.649  0.00  0.00    +0.000 C 
ATOM     33  C   UNL     1      14.445  -7.308  30.925  0.00  0.00    +0.000 C 
ATOM     34  C   UNL     1      13.653  -6.758  29.870  0.00  0.00    +0.000 C 
ENDBRANCH  31  32
BRANCH  14  13
ATOM     13  C   UNL     1      12.585  -6.958  31.591  0.00  0.00    +0.120 C 
BRANCH  13  12
ATOM     12  N   UNL     1      11.890  -7.055  32.026  0.00  0.00    -0.077 NA
BRANCH  12   9
ATOM      9  S   UNL     1      11.500  -7.781  32.024  0.00  0.00    +0.077 S 
ATOM     10  O   UNL     1      11.076  -7.553  31.354  0.00  0.00    -0.152 OA
ATOM     11  O   UNL     1      11.923  -8.011  32.695  0.00  0.00    -0.152 OA
BRANCH   9   6
ATOM      3  C   UNL     1      10.328  -9.962  32.019  0.00  0.00    +0.139 A 
ATOM      4  C   UNL     1       9.942  -9.286  32.293  0.00  0.00    +0.038 A 
ATOM      5  C   UNL     1      10.332  -8.560  32.295  0.00  0.00    +0.023 A 
ATOM      6  C   UNL     1      11.109  -8.509  32.023  0.00  0.00    +0.124 A 
ATOM      7  C   UNL     1      11.496  -9.184  31.749  0.00  0.00    +0.023 A 
ATOM      8  C   UNL     1      11.105  -9.911  31.748  0.00  0.00    +0.038 A 
BRANCH   3   2
ATOM      1  C   UNL     1       9.237 -10.780  31.592  0.00  0.00    +0.252 C 
ATOM      2  O   UNL     1       9.938 -10.688  32.018  0.00  0.00    -0.471 OA
ENDBRANCH   3   2
ENDBRANCH   9   6
ENDBRANCH  12   9
ENDBRANCH  13  12
ENDBRANCH  14  13
BRANCH  18  19
ATOM     19  C   UNL     1      14.237  -4.105  31.728  0.00  0.00    +0.091 C 
BRANCH  19  20
ATOM     20  C   UNL     1      15.060  -4.102  31.665  0.00  0.00    +0.242 C 
ATOM     21  O   UNL     1      15.519  -4.485  32.233  0.00  0.00    -0.273 OA
ATOM     22  N   UNL     1      15.422  -3.716  31.032  0.00  0.00    -0.200 NA
BRANCH  22  23
ATOM     23  C   UNL     1      16.245  -3.713  30.969  0.00  0.00    +0.143 C 
BRANCH  23  24
ATOM     24  C   UNL     1      16.608  -3.318  30.342  0.00  0.00    +0.019 A 
ATOM     25  C   UNL     1      16.538  -2.498  30.277  0.00  0.00    +0.001 A 
ATOM     26  C   UNL     1      16.901  -2.102  29.650  0.00  0.00    +0.020 A 
ATOM     27  C   UNL     1      17.333  -2.525  29.090  0.00  0.00    +0.099 A 
ATOM     28  N   UNL     1      17.404  -3.344  29.156  0.00  0.00    -0.243 NA
ATOM     29  C   UNL     1      17.041  -3.741  29.782  0.00  0.00    +0.096 A 
ENDBRANCH  23  24
ENDBRANCH  22  23
ENDBRANCH  19  20
ENDBRANCH  18  19
TORSDOF 10
ENDMDL
