REMARK  Name = 
REMARK  7 active torsions:
REMARK  status: ('A' for Active; 'I' for Inactive)
REMARK    1  A    between atoms: C_2  and  C_3
REMARK    2  A    between atoms: C_3  and  O_4
REMARK    3  A    between atoms: O_4  and  C_5
REMARK    4  A    between atoms: C_20  and  N_21
REMARK    5  A    between atoms: N_21  and  S_22
REMARK    6  A    between atoms: S_22  and  C_25
REMARK    7  A    between atoms: C_30  and  C_31
REMARK                            x       y       z     vdW  Elec       q    Type
REMARK                         _______ _______ _______ _____ _____    ______ ____
ROOT
ATOM      1  O   UNL     1       0.176  -3.370   0.000  0.00  0.00    -0.271 OA
ATOM      2  C   UNL     1       0.125  -2.547   0.000  0.00  0.00    +0.270 C 
ATOM     11  N   UNL     1       0.813  -2.091   0.000  0.00  0.00    -0.276 N 
ATOM     12  C   UNL     1       1.629  -1.912   0.000  0.00  0.00    +0.095 C 
ATOM     13  C   UNL     1       1.582  -0.925   0.000  0.00  0.00    +0.043 C 
ATOM     14  C   UNL     1       1.713  -0.121   0.000  0.00  0.00    +0.011 C 
ATOM     15  C   UNL     1       1.163  -0.557   0.000  0.00  0.00    +0.058 C 
ATOM     16  C   UNL     1       1.225  -1.510   0.000  0.00  0.00    +0.099 C 
ATOM     17  C   UNL     1       0.244  -0.558   0.000  0.00  0.00    +0.041 A 
ATOM     18  C   UNL     1      -0.397  -0.039   0.000  0.00  0.00    +0.014 A 
ATOM     19  C   UNL     1      -1.167  -0.335   0.000  0.00  0.00    +0.024 A 
ATOM     20  C   UNL     1      -1.296  -1.150   0.000  0.00  0.00    +0.147 A 
ATOM     33  C   UNL     1      -0.655  -1.669   0.000  0.00  0.00    +0.277 A 
ATOM     34  O   UNL     1      -1.238  -2.252   0.000  0.00  0.00    -0.266 OA
ATOM     35  N   UNL     1       0.115  -1.373   0.000  0.00  0.00    -0.298 N 
ATOM     36  C   UNL     1       0.622  -0.936   0.000  0.00  0.00    +0.110 C 
ENDROOT
BRANCH   2   3
ATOM      3  C   UNL     1      -0.614  -2.179   0.000  0.00  0.00    +0.290 C 
BRANCH   3   4
ATOM      4  O   UNL     1      -1.301  -2.635   0.000  0.00  0.00    -0.466 OA
BRANCH   4   5
ATOM      5  C   UNL     1      -1.251  -3.458   0.000  0.00  0.00    +0.139 A 
ATOM      6  C   UNL     1      -0.512  -3.826   0.000  0.00  0.00    +0.037 A 
ATOM      7  C   UNL     1      -0.461  -4.650   0.000  0.00  0.00    +0.003 A 
ATOM      8  C   UNL     1      -1.149  -5.105   0.000  0.00  0.00    +0.000 A 
ATOM      9  C   UNL     1      -1.888  -4.737   0.000  0.00  0.00    +0.003 A 
ATOM     10  C   UNL     1      -1.938  -3.914   0.000  0.00  0.00    +0.037 A 
ENDBRANCH   4   5
ENDBRANCH   3   4
ENDBRANCH   2   3
BRANCH  20  21
ATOM     21  N   UNL     1      -2.066  -1.445   0.000  0.00  0.00    -0.092 NA
BRANCH  21  22
ATOM     22  S   UNL     1      -2.707  -0.926   0.000  0.00  0.00    +0.094 S 
ATOM     23  O   UNL     1      -2.188  -0.285   0.000  0.00  0.00    -0.148 OA
ATOM     24  O   UNL     1      -3.226  -1.567   0.000  0.00  0.00    -0.148 OA
BRANCH  22  25
ATOM     25  C   UNL     1      -3.349  -0.407   0.000  0.00  0.00    +0.137 A 
ATOM     26  C   UNL     1      -4.119  -0.703   0.000  0.00  0.00    +0.021 A 
ATOM     27  C   UNL     1      -4.760  -0.184   0.000  0.00  0.00    +0.001 A 
ATOM     28  C   UNL     1      -4.631   0.631   0.000  0.00  0.00    +0.001 A 
ATOM     29  C   UNL     1      -3.861   0.927   0.000  0.00  0.00    +0.012 A 
ATOM     30  C   UNL     1      -3.220   0.408   0.000  0.00  0.00    +0.087 A 
BRANCH  30  31
ATOM     31  C   UNL     1      -2.449   0.704   0.000  0.00  0.00    +0.102 C 
ATOM     32  N   UNL     1      -1.679   0.999   0.000  0.00  0.00    -0.191 NA
ENDBRANCH  30  31
ENDBRANCH  22  25
ENDBRANCH  21  22
ENDBRANCH  20  21
TORSDOF 7
