MODEL 1
REMARK VINA RESULT:     -11.1      0.000      0.000
REMARK  Name = 
REMARK  2 active torsions:
REMARK  status: ('A' for Active; 'I' for Inactive)
REMARK    1  A    between atoms: C_2  and  C_19
REMARK    2  A    between atoms: N_10  and  C_13
REMARK                            x       y       z     vdW  Elec       q    Type
REMARK                         _______ _______ _______ _____ _____    ______ ____
ROOT
ATOM      1  O   UNL     1      -2.477   0.208  24.300  0.00  0.00    -0.266 OA
ATOM      2  C   UNL     1      -3.279   0.062  24.425  0.00  0.00    +0.287 C 
ATOM      3  N   UNL     1      -3.780   0.676  24.653  0.00  0.00    -0.269 N 
ATOM      4  C   UNL     1      -4.591   0.613  24.797  0.00  0.00    +0.125 C 
ATOM      5  C   UNL     1      -4.870   1.359  25.009  0.00  0.00    +0.156 C 
ATOM      6  O   UNL     1      -5.623   1.629  25.213  0.00  0.00    -0.343 OA
ATOM      7  C   UNL     1      -5.739   2.423  25.403  0.00  0.00    +0.227 C 
ATOM      8  C   UNL     1      -5.102   2.948  25.389  0.00  0.00    +0.260 C 
ATOM      9  O   UNL     1      -5.218   3.743  25.579  0.00  0.00    -0.272 OA
ATOM     10  N   UNL     1      -4.349   2.679  25.186  0.00  0.00    -0.254 N 
ATOM     11  C   UNL     1      -4.234   1.883  24.995  0.00  0.00    +0.128 C 
ATOM     12  C   UNL     1      -3.560   1.462  24.775  0.00  0.00    +0.117 C 
ENDROOT
BRANCH  10  13
ATOM     13  C   UNL     1      -3.713   3.203  25.172  0.00  0.00    +0.054 A 
ATOM     14  C   UNL     1      -3.279   3.343  25.859  0.00  0.00    +0.015 A 
ATOM     15  C   UNL     1      -2.643   3.867  25.845  0.00  0.00    +0.001 A 
ATOM     16  C   UNL     1      -2.440   4.252  25.145  0.00  0.00    +0.000 A 
ATOM     17  C   UNL     1      -2.874   4.112  24.457  0.00  0.00    +0.001 A 
ATOM     18  C   UNL     1      -3.511   3.588  24.470  0.00  0.00    +0.015 A 
ENDBRANCH  10  13
BRANCH   2  19
ATOM     19  C   UNL     1      -3.580  -0.700  24.323  0.00  0.00    +0.230 A 
ATOM     20  C   UNL     1      -3.482  -1.333  24.843  0.00  0.00    +0.069 A 
ATOM     21  C   UNL     1      -3.873  -1.987  24.525  0.00  0.00    +0.144 A 
ATOM     22  N   UNL     1      -4.212  -1.756  23.808  0.00  0.00    -0.075 NA
ATOM     23  O   UNL     1      -4.031  -0.961  23.684  0.00  0.00    -0.349 OA
ENDBRANCH   2  19
TORSDOF 2
ENDMDL
MODEL 2
REMARK VINA RESULT:     -10.8      1.399      4.500
REMARK  Name = 
REMARK  2 active torsions:
REMARK  status: ('A' for Active; 'I' for Inactive)
REMARK    1  A    between atoms: C_2  and  C_19
REMARK    2  A    between atoms: N_10  and  C_13
REMARK                            x       y       z     vdW  Elec       q    Type
REMARK                         _______ _______ _______ _____ _____    ______ ____
ROOT
ATOM      1  O   UNL     1      -4.882   1.338  24.601  0.00  0.00    -0.266 OA
ATOM      2  C   UNL     1      -4.156   1.725  24.669  0.00  0.00    +0.287 C 
ATOM      3  N   UNL     1      -3.463   1.288  24.771  0.00  0.00    -0.269 N 
ATOM      4  C   UNL     1      -2.702   1.598  24.846  0.00  0.00    +0.125 C 
ATOM      5  C   UNL     1      -2.179   0.967  24.938  0.00  0.00    +0.156 C 
ATOM      6  O   UNL     1      -1.360   0.938  25.036  0.00  0.00    -0.343 OA
ATOM      7  C   UNL     1      -0.979   0.211  25.116  0.00  0.00    +0.227 C 
ATOM      8  C   UNL     1      -1.417  -0.488  25.097  0.00  0.00    +0.260 C 
ATOM      9  O   UNL     1      -1.036  -1.216  25.177  0.00  0.00    -0.272 OA
ATOM     10  N   UNL     1      -2.236  -0.460  24.999  0.00  0.00    -0.254 N 
ATOM     11  C   UNL     1      -2.617   0.268  24.920  0.00  0.00    +0.128 C 
ATOM     12  C   UNL     1      -3.410   0.466  24.817  0.00  0.00    +0.117 C 
ENDROOT
BRANCH  10  13
ATOM     13  C   UNL     1      -2.673  -1.159  24.981  0.00  0.00    +0.054 A 
ATOM     14  C   UNL     1      -2.988  -1.467  25.678  0.00  0.00    +0.015 A 
ATOM     15  C   UNL     1      -3.426  -2.166  25.659  0.00  0.00    +0.001 A 
ATOM     16  C   UNL     1      -3.549  -2.558  24.944  0.00  0.00    +0.000 A 
ATOM     17  C   UNL     1      -3.234  -2.249  24.246  0.00  0.00    +0.001 A 
ATOM     18  C   UNL     1      -2.796  -1.550  24.264  0.00  0.00    +0.015 A 
ENDBRANCH  10  13
BRANCH   2  19
ATOM     19  C   UNL     1      -4.123   2.549  24.633  0.00  0.00    +0.230 A 
ATOM     20  C   UNL     1      -4.311   3.068  25.246  0.00  0.00    +0.069 A 
ATOM     21  C   UNL     1      -4.201   3.838  24.970  0.00  0.00    +0.144 A 
ATOM     22  N   UNL     1      -3.945   3.793  24.187  0.00  0.00    -0.075 NA
ATOM     23  O   UNL     1      -3.897   2.997  23.979  0.00  0.00    -0.349 OA
ENDBRANCH   2  19
TORSDOF 2
ENDMDL
MODEL 3
REMARK VINA RESULT:     -10.8      1.492      2.256
REMARK  Name = 
REMARK  2 active torsions:
REMARK  status: ('A' for Active; 'I' for Inactive)
REMARK    1  A    between atoms: C_2  and  C_19
REMARK    2  A    between atoms: N_10  and  C_13
REMARK                            x       y       z     vdW  Elec       q    Type
REMARK                         _______ _______ _______ _____ _____    ______ ____
ROOT
ATOM      1  O   UNL     1      -3.808  -0.817  25.854  0.00  0.00    -0.266 OA
ATOM      2  C   UNL     1      -3.313  -0.731  25.200  0.00  0.00    +0.287 C 
ATOM      3  N   UNL     1      -3.313  -0.027  24.770  0.00  0.00    -0.269 N 
ATOM      4  C   UNL     1      -2.850   0.137  24.107  0.00  0.00    +0.125 C 
ATOM      5  C   UNL     1      -3.028   0.902  23.855  0.00  0.00    +0.156 C 
ATOM      6  O   UNL     1      -2.743   1.358  23.230  0.00  0.00    -0.343 OA
ATOM      7  C   UNL     1      -3.029   2.122  23.111  0.00  0.00    +0.227 C 
ATOM      8  C   UNL     1      -3.602   2.430  23.619  0.00  0.00    +0.260 C 
ATOM      9  O   UNL     1      -3.889   3.195  23.500  0.00  0.00    -0.272 OA
ATOM     10  N   UNL     1      -3.888   1.975  24.244  0.00  0.00    -0.254 N 
ATOM     11  C   UNL     1      -3.601   1.210  24.363  0.00  0.00    +0.128 C 
ATOM     12  C   UNL     1      -3.777   0.637  24.928  0.00  0.00    +0.117 C 
ENDROOT
BRANCH  10  13
ATOM     13  C   UNL     1      -4.461   2.284  24.752  0.00  0.00    +0.054 A 
ATOM     14  C   UNL     1      -5.255   2.092  24.642  0.00  0.00    +0.015 A 
ATOM     15  C   UNL     1      -5.827   2.401  25.150  0.00  0.00    +0.001 A 
ATOM     16  C   UNL     1      -5.606   2.902  25.766  0.00  0.00    +0.000 A 
ATOM     17  C   UNL     1      -4.810   3.094  25.876  0.00  0.00    +0.001 A 
ATOM     18  C   UNL     1      -4.238   2.785  25.368  0.00  0.00    +0.015 A 
ENDBRANCH  10  13
BRANCH   2  19
ATOM     19  C   UNL     1      -2.816  -1.352  24.975  0.00  0.00    +0.230 A 
ATOM     20  C   UNL     1      -3.045  -2.037  24.578  0.00  0.00    +0.069 A 
ATOM     21  C   UNL     1      -2.374  -2.504  24.466  0.00  0.00    +0.144 A 
ATOM     22  N   UNL     1      -1.730  -2.106  24.794  0.00  0.00    -0.075 NA
ATOM     23  O   UNL     1      -2.003  -1.394  25.109  0.00  0.00    -0.349 OA
ENDBRANCH   2  19
TORSDOF 2
ENDMDL
MODEL 4
REMARK VINA RESULT:     -10.8      2.039      4.187
REMARK  Name = 
REMARK  2 active torsions:
REMARK  status: ('A' for Active; 'I' for Inactive)
REMARK    1  A    between atoms: C_2  and  C_19
REMARK    2  A    between atoms: N_10  and  C_13
REMARK                            x       y       z     vdW  Elec       q    Type
REMARK                         _______ _______ _______ _____ _____    ______ ____
ROOT
ATOM      1  O   UNL     1      -0.413  -0.186  24.666  0.00  0.00    -0.266 OA
ATOM      2  C   UNL     1      -0.780   0.547  24.751  0.00  0.00    +0.287 C 
ATOM      3  N   UNL     1      -1.603   0.597  24.776  0.00  0.00    -0.269 N 
ATOM      4  C   UNL     1      -2.044   1.290  24.859  0.00  0.00    +0.125 C 
ATOM      5  C   UNL     1      -2.843   1.084  24.858  0.00  0.00    +0.156 C 
ATOM      6  O   UNL     1      -3.530   1.537  24.922  0.00  0.00    -0.343 OA
ATOM      7  C   UNL     1      -4.268   1.171  24.903  0.00  0.00    +0.227 C 
ATOM      8  C   UNL     1      -4.321   0.352  24.819  0.00  0.00    +0.260 C 
ATOM      9  O   UNL     1      -5.060  -0.015  24.800  0.00  0.00    -0.272 OA
ATOM     10  N   UNL     1      -3.635  -0.102  24.755  0.00  0.00    -0.254 N 
ATOM     11  C   UNL     1      -2.895   0.265  24.775  0.00  0.00    +0.128 C 
ATOM     12  C   UNL     1      -2.129  -0.035  24.724  0.00  0.00    +0.117 C 
ENDROOT
BRANCH  10  13
ATOM     13  C   UNL     1      -3.687  -0.921  24.672  0.00  0.00    +0.054 A 
ATOM     14  C   UNL     1      -3.551  -1.410  25.321  0.00  0.00    +0.015 A 
ATOM     15  C   UNL     1      -3.603  -2.230  25.237  0.00  0.00    +0.001 A 
ATOM     16  C   UNL     1      -3.792  -2.559  24.505  0.00  0.00    +0.000 A 
ATOM     17  C   UNL     1      -3.928  -2.068  23.855  0.00  0.00    +0.001 A 
ATOM     18  C   UNL     1      -3.876  -1.249  23.939  0.00  0.00    +0.015 A 
ENDBRANCH  10  13
BRANCH   2  19
ATOM     19  C   UNL     1      -0.322   1.232  24.810  0.00  0.00    +0.230 A 
ATOM     20  C   UNL     1       0.036   1.631  24.184  0.00  0.00    +0.069 A 
ATOM     21  C   UNL     1       0.436   2.283  24.493  0.00  0.00    +0.144 A 
ATOM     22  N   UNL     1       0.324   2.286  25.310  0.00  0.00    -0.075 NA
ATOM     23  O   UNL     1      -0.145   1.637  25.506  0.00  0.00    -0.349 OA
ENDBRANCH   2  19
TORSDOF 2
ENDMDL
