MODEL 1
REMARK VINA RESULT:     -12.7      0.000      0.000
REMARK  Name = 
REMARK  6 active torsions:
REMARK  status: ('A' for Active; 'I' for Inactive)
REMARK    1  A    between atoms: N_4  and  C_22
REMARK    2  A    between atoms: C_7  and  C_8
REMARK    3  A    between atoms: C_10  and  N_11
REMARK    4  A    between atoms: N_11  and  C_12
REMARK    5  A    between atoms: C_12  and  C_13
REMARK    6  A    between atoms: C_23  and  N_28
REMARK                            x       y       z     vdW  Elec       q    Type
REMARK                         _______ _______ _______ _____ _____    ______ ____
ROOT
ATOM      1  C   UNL     1      -5.218   1.098  25.833  0.00  0.00    +0.054 C 
ATOM      2  C   UNL     1      -4.770   0.623  25.327  0.00  0.00    +0.077 A 
ATOM      3  N   UNL     1      -4.718  -0.199  25.352  0.00  0.00    -0.170 NA
ATOM      4  N   UNL     1      -4.211  -0.441  24.748  0.00  0.00    -0.233 N 
ATOM      5  C   UNL     1      -3.950   0.232  24.349  0.00  0.00    +0.058 A 
ATOM      6  C   UNL     1      -3.434   0.245  23.705  0.00  0.00    +0.052 C 
ATOM      7  C   UNL     1      -4.295   0.891  24.707  0.00  0.00    +0.010 A 
ENDROOT
BRANCH   4  22
ATOM     22  C   UNL     1      -4.003  -1.220  24.573  0.00  0.00    +0.105 A 
ATOM     23  C   UNL     1      -3.511  -1.639  25.085  0.00  0.00    +0.160 A 
ATOM     24  C   UNL     1      -3.302  -2.419  24.910  0.00  0.00    +0.026 A 
ATOM     25  C   UNL     1      -3.585  -2.777  24.223  0.00  0.00    +0.002 A 
ATOM     26  C   UNL     1      -4.077  -2.357  23.711  0.00  0.00    +0.002 A 
ATOM     27  C   UNL     1      -4.286  -1.578  23.886  0.00  0.00    +0.021 A 
BRANCH  23  28
ATOM     28  N   UNL     1      -3.227  -1.281  25.771  0.00  0.00    +0.059 N 
ATOM     29  O   UNL     1      -3.675  -1.301  26.463  0.00  0.00    -0.126 OA
ATOM     30  O   UNL     1      -2.494  -0.903  25.766  0.00  0.00    -0.126 OA
ENDBRANCH  23  28
ENDBRANCH   4  22
BRANCH   7   8
ATOM      8  C   UNL     1      -4.184   1.677  24.484  0.00  0.00    +0.048 C 
ATOM      9  C   UNL     1      -3.515   2.135  24.632  0.00  0.00    +0.031 C 
ATOM     10  C   UNL     1      -3.641   2.884  24.313  0.00  0.00    +0.095 C 
ATOM     20  C   UNL     1      -4.390   2.890  23.965  0.00  0.00    -0.013 C 
ATOM     21  C   UNL     1      -4.725   2.144  24.071  0.00  0.00    -0.025 C 
BRANCH  10  11
ATOM     11  N   UNL     1      -3.113   3.517  24.335  0.00  0.00    -0.210 NA
BRANCH  11  12
ATOM     12  C   UNL     1      -2.740   3.719  25.042  0.00  0.00    +0.115 C 
BRANCH  12  13
ATOM     13  C   UNL     1      -2.057   4.184  25.031  0.00  0.00    -0.004 A 
ATOM     14  C   UNL     1      -2.116   5.004  25.087  0.00  0.00    -0.003 A 
ATOM     15  C   UNL     1      -1.434   5.469  25.075  0.00  0.00    +0.001 A 
ATOM     16  C   UNL     1      -0.693   5.112  25.008  0.00  0.00    +0.011 A 
ATOM     17  C   UNL     1      -0.635   4.290  24.953  0.00  0.00    +0.057 A 
ATOM     18 CL   UNL     1       0.106   3.934  24.886  0.00  0.00    -0.082 Cl
ATOM     19  C   UNL     1      -1.317   3.826  24.964  0.00  0.00    +0.009 A 
ENDBRANCH  12  13
ENDBRANCH  11  12
ENDBRANCH  10  11
ENDBRANCH   7   8
TORSDOF 6
ENDMDL
MODEL 2
REMARK VINA RESULT:     -11.7      2.024      5.418
REMARK  Name = 
REMARK  6 active torsions:
REMARK  status: ('A' for Active; 'I' for Inactive)
REMARK    1  A    between atoms: N_4  and  C_22
REMARK    2  A    between atoms: C_7  and  C_8
REMARK    3  A    between atoms: C_10  and  N_11
REMARK    4  A    between atoms: N_11  and  C_12
REMARK    5  A    between atoms: C_12  and  C_13
REMARK    6  A    between atoms: C_23  and  N_28
REMARK                            x       y       z     vdW  Elec       q    Type
REMARK                         _______ _______ _______ _____ _____    ______ ____
ROOT
ATOM      1  C   UNL     1      -4.630   3.009  23.946  0.00  0.00    +0.054 C 
ATOM      2  C   UNL     1      -3.863   2.953  24.248  0.00  0.00    +0.077 A 
ATOM      3  N   UNL     1      -3.297   3.552  24.245  0.00  0.00    -0.170 NA
ATOM      4  N   UNL     1      -2.613   3.257  24.601  0.00  0.00    -0.233 N 
ATOM      5  C   UNL     1      -2.758   2.476  24.825  0.00  0.00    +0.058 A 
ATOM      6  C   UNL     1      -2.223   1.972  25.200  0.00  0.00    +0.052 C 
ATOM      7  C   UNL     1      -3.531   2.288  24.606  0.00  0.00    +0.010 A 
ENDROOT
BRANCH   4  22
ATOM     22  C   UNL     1      -1.908   3.671  24.715  0.00  0.00    +0.105 A 
ATOM     23  C   UNL     1      -1.883   4.303  25.244  0.00  0.00    +0.160 A 
ATOM     24  C   UNL     1      -1.177   4.717  25.357  0.00  0.00    +0.026 A 
ATOM     25  C   UNL     1      -0.500   4.499  24.942  0.00  0.00    +0.002 A 
ATOM     26  C   UNL     1      -0.525   3.866  24.413  0.00  0.00    +0.002 A 
ATOM     27  C   UNL     1      -1.230   3.452  24.299  0.00  0.00    +0.021 A 
BRANCH  23  28
ATOM     28  N   UNL     1      -2.560   4.523  25.659  0.00  0.00    +0.059 N 
ATOM     29  O   UNL     1      -2.710   4.203  26.405  0.00  0.00    -0.126 OA
ATOM     30  O   UNL     1      -3.090   5.062  25.329  0.00  0.00    -0.126 OA
ENDBRANCH  23  28
ENDBRANCH   4  22
BRANCH   7   8
ATOM      8  C   UNL     1      -3.905   1.562  24.725  0.00  0.00    +0.048 C 
ATOM      9  C   UNL     1      -3.689   0.843  24.385  0.00  0.00    +0.031 C 
ATOM     10  C   UNL     1      -4.211   0.266  24.656  0.00  0.00    +0.095 C 
ATOM     20  C   UNL     1      -4.751   0.628  25.164  0.00  0.00    -0.013 C 
ATOM     21  C   UNL     1      -4.562   1.429  25.207  0.00  0.00    -0.025 C 
BRANCH  10  11
ATOM     11  N   UNL     1      -4.198  -0.534  24.454  0.00  0.00    -0.210 NA
BRANCH  11  12
ATOM     12  C   UNL     1      -3.922  -1.092  24.996  0.00  0.00    +0.115 C 
BRANCH  12  13
ATOM     13  C   UNL     1      -3.575  -1.791  24.728  0.00  0.00    -0.004 A 
ATOM     14  C   UNL     1      -4.043  -2.379  24.386  0.00  0.00    -0.003 A 
ATOM     15  C   UNL     1      -3.695  -3.078  24.118  0.00  0.00    +0.001 A 
ATOM     16  C   UNL     1      -2.881  -3.189  24.192  0.00  0.00    +0.011 A 
ATOM     17  C   UNL     1      -2.414  -2.601  24.533  0.00  0.00    +0.057 A 
ATOM     18 CL   UNL     1      -1.600  -2.713  24.607  0.00  0.00    -0.082 Cl
ATOM     19  C   UNL     1      -2.761  -1.902  24.801  0.00  0.00    +0.009 A 
ENDBRANCH  12  13
ENDBRANCH  11  12
ENDBRANCH  10  11
ENDBRANCH   7   8
TORSDOF 6
ENDMDL
MODEL 3
REMARK VINA RESULT:     -11.5      2.632      5.893
REMARK  Name = 
REMARK  6 active torsions:
REMARK  status: ('A' for Active; 'I' for Inactive)
REMARK    1  A    between atoms: N_4  and  C_22
REMARK    2  A    between atoms: C_7  and  C_8
REMARK    3  A    between atoms: C_10  and  N_11
REMARK    4  A    between atoms: N_11  and  C_12
REMARK    5  A    between atoms: C_12  and  C_13
REMARK    6  A    between atoms: C_23  and  N_28
REMARK                            x       y       z     vdW  Elec       q    Type
REMARK                         _______ _______ _______ _____ _____    ______ ____
ROOT
ATOM      1  C   UNL     1      -0.277   1.609  26.530  0.00  0.00    +0.054 C 
ATOM      2  C   UNL     1      -0.550   2.135  25.954  0.00  0.00    +0.077 A 
ATOM      3  N   UNL     1      -0.649   2.948  26.049  0.00  0.00    -0.170 NA
ATOM      4  N   UNL     1      -0.932   3.255  25.338  0.00  0.00    -0.233 N 
ATOM      5  C   UNL     1      -1.007   2.631  24.803  0.00  0.00    +0.058 A 
ATOM      6  C   UNL     1      -1.273   2.690  24.023  0.00  0.00    +0.052 C 
ATOM      7  C   UNL     1      -0.771   1.939  25.184  0.00  0.00    +0.010 A 
ENDROOT
BRANCH   4  22
ATOM     22  C   UNL     1      -1.109   4.047  25.187  0.00  0.00    +0.105 A 
ATOM     23  C   UNL     1      -1.807   4.376  25.477  0.00  0.00    +0.160 A 
ATOM     24  C   UNL     1      -1.984   5.168  25.327  0.00  0.00    +0.026 A 
ATOM     25  C   UNL     1      -1.463   5.630  24.886  0.00  0.00    +0.002 A 
ATOM     26  C   UNL     1      -0.763   5.301  24.595  0.00  0.00    +0.002 A 
ATOM     27  C   UNL     1      -0.587   4.509  24.746  0.00  0.00    +0.021 A 
BRANCH  23  28
ATOM     28  N   UNL     1      -2.329   3.914  25.918  0.00  0.00    +0.059 N 
ATOM     29  O   UNL     1      -2.217   3.825  26.730  0.00  0.00    -0.126 OA
ATOM     30  O   UNL     1      -2.964   3.541  25.547  0.00  0.00    -0.126 OA
ENDBRANCH  23  28
ENDBRANCH   4  22
BRANCH   7   8
ATOM      8  C   UNL     1      -0.759   1.183  24.852  0.00  0.00    +0.048 C 
ATOM      9  C   UNL     1      -1.362   0.624  24.896  0.00  0.00    +0.031 C 
ATOM     10  C   UNL     1      -1.117  -0.049  24.489  0.00  0.00    +0.095 C 
ATOM     20  C   UNL     1      -0.360   0.094  24.194  0.00  0.00    -0.013 C 
ATOM     21  C   UNL     1      -0.138   0.855  24.418  0.00  0.00    -0.025 C 
BRANCH  10  11
ATOM     11  N   UNL     1      -1.550  -0.745  24.394  0.00  0.00    -0.210 NA
BRANCH  11  12
ATOM     12  C   UNL     1      -2.229  -0.874  24.844  0.00  0.00    +0.115 C 
BRANCH  12  13
ATOM     13  C   UNL     1      -2.720  -1.516  24.676  0.00  0.00    -0.004 A 
ATOM     14  C   UNL     1      -2.487  -2.278  24.886  0.00  0.00    -0.003 A 
ATOM     15  C   UNL     1      -2.978  -2.920  24.718  0.00  0.00    +0.001 A 
ATOM     16  C   UNL     1      -3.701  -2.799  24.340  0.00  0.00    +0.011 A 
ATOM     17  C   UNL     1      -3.933  -2.036  24.130  0.00  0.00    +0.057 A 
ATOM     18 CL   UNL     1      -4.657  -1.915  23.751  0.00  0.00    -0.082 Cl
ATOM     19  C   UNL     1      -3.443  -1.394  24.297  0.00  0.00    +0.009 A 
ENDBRANCH  12  13
ENDBRANCH  11  12
ENDBRANCH  10  11
ENDBRANCH   7   8
TORSDOF 6
ENDMDL
MODEL 4
REMARK VINA RESULT:     -11.4      1.864      2.481
REMARK  Name = 
REMARK  6 active torsions:
REMARK  status: ('A' for Active; 'I' for Inactive)
REMARK    1  A    between atoms: N_4  and  C_22
REMARK    2  A    between atoms: C_7  and  C_8
REMARK    3  A    between atoms: C_10  and  N_11
REMARK    4  A    between atoms: N_11  and  C_12
REMARK    5  A    between atoms: C_12  and  C_13
REMARK    6  A    between atoms: C_23  and  N_28
REMARK                            x       y       z     vdW  Elec       q    Type
REMARK                         _______ _______ _______ _____ _____    ______ ____
ROOT
ATOM      1  C   UNL     1      -0.962  -0.431  26.182  0.00  0.00    +0.054 C 
ATOM      2  C   UNL     1      -1.493  -0.530  25.557  0.00  0.00    +0.077 A 
ATOM      3  N   UNL     1      -2.069  -1.116  25.500  0.00  0.00    -0.170 NA
ATOM      4  N   UNL     1      -2.473  -1.008  24.788  0.00  0.00    -0.233 N 
ATOM      5  C   UNL     1      -2.145  -0.354  24.406  0.00  0.00    +0.058 A 
ATOM      6  C   UNL     1      -2.381  -0.050  23.676  0.00  0.00    +0.052 C 
ATOM      7  C   UNL     1      -1.538  -0.059  24.881  0.00  0.00    +0.010 A 
ENDROOT
BRANCH   4  22
ATOM     22  C   UNL     1      -3.095  -1.471  24.508  0.00  0.00    +0.105 A 
ATOM     23  C   UNL     1      -2.981  -2.277  24.374  0.00  0.00    +0.160 A 
ATOM     24  C   UNL     1      -3.603  -2.741  24.094  0.00  0.00    +0.026 A 
ATOM     25  C   UNL     1      -4.339  -2.399  23.947  0.00  0.00    +0.002 A 
ATOM     26  C   UNL     1      -4.454  -1.593  24.081  0.00  0.00    +0.002 A 
ATOM     27  C   UNL     1      -3.831  -1.129  24.361  0.00  0.00    +0.021 A 
BRANCH  23  28
ATOM     28  N   UNL     1      -2.245  -2.620  24.521  0.00  0.00    +0.059 N 
ATOM     29  O   UNL     1      -1.684  -2.667  23.918  0.00  0.00    -0.126 OA
ATOM     30  O   UNL     1      -2.070  -2.916  25.271  0.00  0.00    -0.126 OA
ENDBRANCH  23  28
ENDBRANCH   4  22
BRANCH   7   8
ATOM      8  C   UNL     1      -1.063   0.593  24.710  0.00  0.00    +0.048 C 
ATOM      9  C   UNL     1      -1.278   1.385  24.785  0.00  0.00    +0.031 C 
ATOM     10  C   UNL     1      -0.637   1.848  24.554  0.00  0.00    +0.095 C 
ATOM     20  C   UNL     1      -0.022   1.341  24.336  0.00  0.00    -0.013 C 
ATOM     21  C   UNL     1      -0.286   0.566  24.433  0.00  0.00    -0.025 C 
BRANCH  10  11
ATOM     11  N   UNL     1      -0.611   2.672  24.543  0.00  0.00    -0.210 NA
BRANCH  11  12
ATOM     12  C   UNL     1      -0.715   3.099  25.241  0.00  0.00    +0.115 C 
BRANCH  12  13
ATOM     13  C   UNL     1      -1.020   3.865  25.215  0.00  0.00    -0.004 A 
ATOM     14  C   UNL     1      -0.586   4.470  24.858  0.00  0.00    -0.003 A 
ATOM     15  C   UNL     1      -0.891   5.236  24.832  0.00  0.00    +0.001 A 
ATOM     16  C   UNL     1      -1.629   5.398  25.163  0.00  0.00    +0.011 A 
ATOM     17  C   UNL     1      -2.063   4.793  25.520  0.00  0.00    +0.057 A 
ATOM     18 CL   UNL     1      -2.801   4.955  25.850  0.00  0.00    -0.082 Cl
ATOM     19  C   UNL     1      -1.758   4.027  25.546  0.00  0.00    +0.009 A 
ENDBRANCH  12  13
ENDBRANCH  11  12
ENDBRANCH  10  11
ENDBRANCH   7   8
TORSDOF 6
ENDMDL
