REMARK  Name = 
REMARK  5 active torsions:
REMARK  status: ('A' for Active; 'I' for Inactive)
REMARK    1  A    between atoms: S_2  and  C_3
REMARK    2  A    between atoms: C_3  and  C_4
REMARK    3  A    between atoms: N_6  and  C_7
REMARK    4  A    between atoms: N_15  and  S_17
REMARK    5  A    between atoms: S_17  and  C_20
REMARK                            x       y       z     vdW  Elec       q    Type
REMARK                         _______ _______ _______ _____ _____    ______ ____
ROOT
ATOM      7  C   UNL     1      -1.296  -1.150   0.000  0.00  0.00    +0.129 A 
ATOM      8  C   UNL     1      -1.167  -0.335   0.000  0.00  0.00    +0.023 A 
ATOM      9  C   UNL     1      -0.397  -0.039   0.000  0.00  0.00    +0.014 A 
ATOM     10  C   UNL     1       0.244  -0.558   0.000  0.00  0.00    +0.041 A 
ATOM     11  C   UNL     1       1.163  -0.557   0.000  0.00  0.00    +0.056 C 
ATOM     12  C   UNL     1       1.713  -0.121   0.000  0.00  0.00    +0.011 C 
ATOM     13  C   UNL     1       1.582  -0.925   0.000  0.00  0.00    +0.041 C 
ATOM     14  C   UNL     1       1.629  -1.912   0.000  0.00  0.00    +0.098 C 
ATOM     15  N   UNL     1       0.813  -2.091   0.000  0.00  0.00    -0.155 NA
ATOM     16  C   UNL     1       1.225  -1.510   0.000  0.00  0.00    +0.102 C 
ATOM     25  C   UNL     1       0.622  -0.936   0.000  0.00  0.00    +0.110 C 
ATOM     26  N   UNL     1       0.115  -1.373   0.000  0.00  0.00    -0.298 N 
ATOM     27  C   UNL     1      -0.655  -1.669   0.000  0.00  0.00    +0.276 A 
ATOM     28  O   UNL     1      -0.784  -2.484   0.000  0.00  0.00    -0.266 OA
ENDROOT
BRANCH   7   6
ATOM      4  C   UNL     1      -2.707  -0.926   0.000  0.00  0.00    +0.257 C 
ATOM      5  O   UNL     1      -3.478  -1.222   0.000  0.00  0.00    -0.272 OA
ATOM      6  N   UNL     1      -2.066  -1.445   0.000  0.00  0.00    -0.174 NA
BRANCH   4   3
ATOM      3  C   UNL     1      -2.578  -0.111   0.000  0.00  0.00    +0.145 C 
BRANCH   3   2
ATOM      1  C   UNL     1      -3.091   1.223   0.000  0.00  0.00    +0.070 C 
ATOM      2  S   UNL     1      -3.220   0.408   0.000  0.00  0.00    -0.130 S 
ENDBRANCH   3   2
ENDBRANCH   4   3
ENDBRANCH   7   6
BRANCH  15  17
ATOM     17  S   UNL     1       0.125  -2.547   0.000  0.00  0.00    +0.069 S 
ATOM     18  O   UNL     1      -0.331  -1.859   0.000  0.00  0.00    -0.152 OA
ATOM     19  O   UNL     1       0.581  -3.235   0.000  0.00  0.00    -0.152 OA
BRANCH  17  20
ATOM     20  C   UNL     1      -0.563  -3.003   0.000  0.00  0.00    +0.152 A 
ATOM     21  C   UNL     1      -0.599  -3.827   0.000  0.00  0.00    +0.027 A 
ATOM     22  C   UNL     1      -1.393  -4.048   0.000  0.00  0.00    +0.009 A 
ATOM     23  C   UNL     1      -1.849  -3.360   0.000  0.00  0.00    +0.037 A 
ATOM     24  S   UNL     1      -1.336  -2.714   0.000  0.00  0.00    -0.067 S 
ENDBRANCH  17  20
ENDBRANCH  15  17
TORSDOF 5
