MODEL 1
REMARK VINA RESULT:     -12.7      0.000      0.000
REMARK  Name = 
REMARK  5 active torsions:
REMARK  status: ('A' for Active; 'I' for Inactive)
REMARK    1  A    between atoms: C_2  and  N_4
REMARK    2  A    between atoms: N_7  and  C_8
REMARK    3  A    between atoms: C_10  and  C_13
REMARK    4  A    between atoms: N_16  and  C_20
REMARK    5  A    between atoms: C_25  and  N_26
REMARK                            x       y       z     vdW  Elec       q    Type
REMARK                         _______ _______ _______ _____ _____    ______ ____
ROOT
ATOM     13  C   UNL     1      -4.183   1.070  24.666  0.00  0.00    +0.010 A 
ATOM     14  C   UNL     1      -3.821   0.395  24.360  0.00  0.00    +0.058 A 
ATOM     15  C   UNL     1      -3.197   0.381  23.822  0.00  0.00    +0.052 C 
ATOM     16  N   UNL     1      -4.195  -0.264  24.686  0.00  0.00    -0.233 N 
ATOM     17  N   UNL     1      -4.787   0.003  25.194  0.00  0.00    -0.170 NA
ATOM     18  C   UNL     1      -4.780   0.828  25.182  0.00  0.00    +0.077 A 
ATOM     19  C   UNL     1      -5.281   1.324  25.610  0.00  0.00    +0.054 C 
ENDROOT
BRANCH  16  20
ATOM     20  C   UNL     1      -4.009  -1.054  24.532  0.00  0.00    +0.105 A 
ATOM     21  C   UNL     1      -4.252  -1.403  23.825  0.00  0.00    +0.021 A 
ATOM     22  C   UNL     1      -4.066  -2.192  23.670  0.00  0.00    +0.002 A 
ATOM     23  C   UNL     1      -3.638  -2.631  24.223  0.00  0.00    +0.002 A 
ATOM     24  C   UNL     1      -3.395  -2.281  24.929  0.00  0.00    +0.026 A 
ATOM     25  C   UNL     1      -3.581  -1.492  25.084  0.00  0.00    +0.160 A 
BRANCH  25  26
ATOM     26  N   UNL     1      -3.338  -1.142  25.791  0.00  0.00    +0.059 N 
ATOM     27  O   UNL     1      -2.592  -0.794  25.843  0.00  0.00    -0.126 OA
ATOM     28  O   UNL     1      -3.840  -1.142  26.445  0.00  0.00    -0.126 OA
ENDBRANCH  25  26
ENDBRANCH  16  20
BRANCH  13  10
ATOM      8  C   UNL     1      -3.516   3.096  24.591  0.00  0.00    +0.119 C 
ATOM      9  C   UNL     1      -3.607   2.383  24.994  0.00  0.00    +0.035 C 
ATOM     10  C   UNL     1      -3.983   1.850  24.488  0.00  0.00    +0.048 C 
ATOM     11  C   UNL     1      -4.125   2.236  23.772  0.00  0.00    -0.025 C 
ATOM     12  C   UNL     1      -3.835   3.006  23.836  0.00  0.00    -0.009 C 
BRANCH   8   7
ATOM      4  N   UNL     1      -1.999   4.569  25.137  0.00  0.00    -0.189 NA
ATOM      5  C   UNL     1      -2.349   3.883  24.837  0.00  0.00    +0.339 C 
ATOM      6  O   UNL     1      -1.883   3.302  24.485  0.00  0.00    -0.249 OA
ATOM      7  N   UNL     1      -3.166   3.781  24.890  0.00  0.00    -0.184 NA
BRANCH   4   2
ATOM      1  C   UNL     1      -0.874   5.325  24.687  0.00  0.00    +0.023 C 
ATOM      2  C   UNL     1      -1.182   4.671  25.084  0.00  0.00    +0.097 C 
ATOM      3  C   UNL     1      -0.675   4.120  25.427  0.00  0.00    +0.023 C 
ENDBRANCH   4   2
ENDBRANCH   8   7
ENDBRANCH  13  10
TORSDOF 5
ENDMDL
MODEL 2
REMARK VINA RESULT:     -11.7      1.047      5.120
REMARK  Name = 
REMARK  5 active torsions:
REMARK  status: ('A' for Active; 'I' for Inactive)
REMARK    1  A    between atoms: C_2  and  N_4
REMARK    2  A    between atoms: N_7  and  C_8
REMARK    3  A    between atoms: C_10  and  C_13
REMARK    4  A    between atoms: N_16  and  C_20
REMARK    5  A    between atoms: C_25  and  N_26
REMARK                            x       y       z     vdW  Elec       q    Type
REMARK                         _______ _______ _______ _____ _____    ______ ____
ROOT
ATOM     13  C   UNL     1      -3.533   2.051  24.555  0.00  0.00    +0.010 A 
ATOM     14  C   UNL     1      -2.780   2.298  24.784  0.00  0.00    +0.058 A 
ATOM     15  C   UNL     1      -2.195   1.825  25.121  0.00  0.00    +0.052 C 
ATOM     16  N   UNL     1      -2.716   3.104  24.617  0.00  0.00    -0.233 N 
ATOM     17  N   UNL     1      -3.428   3.354  24.285  0.00  0.00    -0.170 NA
ATOM     18  C   UNL     1      -3.934   2.702  24.247  0.00  0.00    +0.077 A 
ATOM     19  C   UNL     1      -4.704   2.702  23.952  0.00  0.00    +0.054 C 
ENDROOT
BRANCH  16  20
ATOM     20  C   UNL     1      -2.055   3.577  24.758  0.00  0.00    +0.105 A 
ATOM     21  C   UNL     1      -1.353   3.437  24.346  0.00  0.00    +0.021 A 
ATOM     22  C   UNL     1      -0.692   3.910  24.486  0.00  0.00    +0.002 A 
ATOM     23  C   UNL     1      -0.732   4.523  25.037  0.00  0.00    +0.002 A 
ATOM     24  C   UNL     1      -1.434   4.663  25.448  0.00  0.00    +0.026 A 
ATOM     25  C   UNL     1      -2.095   4.190  25.308  0.00  0.00    +0.160 A 
BRANCH  25  26
ATOM     26  N   UNL     1      -2.797   4.330  25.720  0.00  0.00    +0.059 N 
ATOM     27  O   UNL     1      -2.911   3.994  26.465  0.00  0.00    -0.126 OA
ATOM     28  O   UNL     1      -3.383   4.804  25.387  0.00  0.00    -0.126 OA
ENDBRANCH  25  26
ENDBRANCH  16  20
BRANCH  13  10
ATOM      8  C   UNL     1      -4.076  -0.008  24.397  0.00  0.00    +0.119 C 
ATOM      9  C   UNL     1      -3.657   0.649  24.127  0.00  0.00    +0.035 C 
ATOM     10  C   UNL     1      -3.833   1.285  24.623  0.00  0.00    +0.048 C 
ATOM     11  C   UNL     1      -4.361   1.020  25.199  0.00  0.00    -0.025 C 
ATOM     12  C   UNL     1      -4.511   0.221  25.058  0.00  0.00    -0.009 C 
BRANCH   8   7
ATOM      4  N   UNL     1      -3.607  -2.117  24.082  0.00  0.00    -0.189 NA
ATOM      5  C   UNL     1      -3.621  -1.362  24.417  0.00  0.00    +0.339 C 
ATOM      6  O   UNL     1      -3.194  -1.209  25.105  0.00  0.00    -0.249 OA
ATOM      7  N   UNL     1      -4.062  -0.763  24.062  0.00  0.00    -0.184 NA
BRANCH   4   2
ATOM      1  C   UNL     1      -3.538  -3.267  24.928  0.00  0.00    +0.023 C 
ATOM      2  C   UNL     1      -3.166  -2.717  24.437  0.00  0.00    +0.097 C 
ATOM      3  C   UNL     1      -2.354  -2.767  24.303  0.00  0.00    +0.023 C 
ENDBRANCH   4   2
ENDBRANCH   8   7
ENDBRANCH  13  10
TORSDOF 5
ENDMDL
MODEL 3
REMARK VINA RESULT:     -11.5      1.802      2.417
REMARK  Name = 
REMARK  5 active torsions:
REMARK  status: ('A' for Active; 'I' for Inactive)
REMARK    1  A    between atoms: C_2  and  N_4
REMARK    2  A    between atoms: N_7  and  C_8
REMARK    3  A    between atoms: C_10  and  C_13
REMARK    4  A    between atoms: N_16  and  C_20
REMARK    5  A    between atoms: C_25  and  N_26
REMARK                            x       y       z     vdW  Elec       q    Type
REMARK                         _______ _______ _______ _____ _____    ______ ____
ROOT
ATOM     13  C   UNL     1      -1.553   0.047  25.155  0.00  0.00    +0.010 A 
ATOM     14  C   UNL     1      -2.164  -0.179  24.649  0.00  0.00    +0.058 A 
ATOM     15  C   UNL     1      -2.422   0.236  23.985  0.00  0.00    +0.052 C 
ATOM     16  N   UNL     1      -2.471  -0.893  24.924  0.00  0.00    -0.233 N 
ATOM     17  N   UNL     1      -2.051  -1.110  25.600  0.00  0.00    -0.170 NA
ATOM     18  C   UNL     1      -1.482  -0.528  25.743  0.00  0.00    +0.077 A 
ATOM     19  C   UNL     1      -0.939  -0.523  26.364  0.00  0.00    +0.054 C 
ENDROOT
BRANCH  16  20
ATOM     20  C   UNL     1      -3.091  -1.318  24.583  0.00  0.00    +0.105 A 
ATOM     21  C   UNL     1      -3.822  -0.955  24.462  0.00  0.00    +0.021 A 
ATOM     22  C   UNL     1      -4.442  -1.379  24.122  0.00  0.00    +0.002 A 
ATOM     23  C   UNL     1      -4.332  -2.167  23.902  0.00  0.00    +0.002 A 
ATOM     24  C   UNL     1      -3.601  -2.530  24.023  0.00  0.00    +0.026 A 
ATOM     25  C   UNL     1      -2.981  -2.105  24.364  0.00  0.00    +0.160 A 
BRANCH  25  26
ATOM     26  N   UNL     1      -2.250  -2.469  24.485  0.00  0.00    +0.059 N 
ATOM     27  O   UNL     1      -2.097  -2.861  25.194  0.00  0.00    -0.126 OA
ATOM     28  O   UNL     1      -1.673  -2.441  23.897  0.00  0.00    -0.126 OA
ENDBRANCH  25  26
ENDBRANCH  16  20
BRANCH  13  10
ATOM      8  C   UNL     1      -0.608   1.957  25.274  0.00  0.00    +0.119 C 
ATOM      9  C   UNL     1      -1.184   1.422  25.523  0.00  0.00    +0.035 C 
ATOM     10  C   UNL     1      -1.093   0.727  25.086  0.00  0.00    +0.048 C 
ATOM     11  C   UNL     1      -0.460   0.834  24.567  0.00  0.00    -0.025 C 
ATOM     12  C   UNL     1      -0.160   1.595  24.683  0.00  0.00    -0.009 C 
BRANCH   8   7
ATOM      4  N   UNL     1      -0.760   4.125  25.487  0.00  0.00    -0.189 NA
ATOM      5  C   UNL     1      -0.869   3.360  25.196  0.00  0.00    +0.339 C 
ATOM      6  O   UNL     1      -1.349   3.234  24.538  0.00  0.00    -0.249 OA
ATOM      7  N   UNL     1      -0.498   2.722  25.565  0.00  0.00    -0.184 NA
BRANCH   4   2
ATOM      1  C   UNL     1      -0.713   5.226  24.578  0.00  0.00    +0.023 C 
ATOM      2  C   UNL     1      -1.131   4.762  25.118  0.00  0.00    +0.097 C 
ATOM      3  C   UNL     1      -1.918   4.936  25.289  0.00  0.00    +0.023 C 
ENDBRANCH   4   2
ENDBRANCH   8   7
ENDBRANCH  13  10
TORSDOF 5
ENDMDL
