MODEL 1
REMARK VINA RESULT:     -12.3      0.000      0.000
REMARK  Name = 
REMARK  4 active torsions:
REMARK  status: ('A' for Active; 'I' for Inactive)
REMARK    1  A    between atoms: O_2  and  C_3
REMARK    2  A    between atoms: C_6  and  C_7
REMARK    3  A    between atoms: C_7  and  N_8
REMARK    4  A    between atoms: C_18  and  C_20
REMARK                            x       y       z     vdW  Elec       q    Type
REMARK                         _______ _______ _______ _____ _____    ______ ____
ROOT
ATOM      8  N   UNL     1      -4.019   0.957  24.851  0.00  0.00    -0.258 N 
ATOM      9  C   UNL     1      -3.246   0.983  25.137  0.00  0.00    +0.117 C 
ATOM     10  C   UNL     1      -2.969   1.755  25.052  0.00  0.00    +0.116 C 
ATOM     11  C   UNL     1      -2.246   2.107  25.238  0.00  0.00    +0.115 C 
ATOM     12  N   UNL     1      -2.126   2.908  25.087  0.00  0.00    -0.276 N 
ATOM     13  C   UNL     1      -2.728   3.359  24.749  0.00  0.00    +0.115 C 
ATOM     14  C   UNL     1      -3.451   3.009  24.561  0.00  0.00    +0.116 C 
ATOM     15  N   UNL     1      -3.571   2.206  24.713  0.00  0.00    -0.261 N 
ATOM     16  C   UNL     1      -4.220   1.713  24.589  0.00  0.00    +0.308 C 
ATOM     17  O   UNL     1      -4.944   1.936  24.261  0.00  0.00    -0.252 OA
ATOM     18  C   UNL     1      -1.403   3.260  25.274  0.00  0.00    +0.225 C 
ATOM     19  O   UNL     1      -0.801   2.809  25.612  0.00  0.00    -0.275 OA
ENDROOT
BRANCH  18  20
ATOM     20  C   UNL     1      -1.282   4.061  25.123  0.00  0.00    +0.077 C 
ATOM     21  C   UNL     1      -1.695   4.688  25.466  0.00  0.00    +0.009 C 
ATOM     22  C   UNL     1      -1.396   5.391  25.156  0.00  0.00    +0.001 C 
ATOM     23  C   UNL     1      -0.797   5.200  24.621  0.00  0.00    +0.001 C 
ATOM     24  C   UNL     1      -0.727   4.378  24.601  0.00  0.00    +0.009 C 
ENDBRANCH  18  20
BRANCH   8   7
ATOM      7  C   UNL     1      -4.506   0.291  24.830  0.00  0.00    +0.122 C 
BRANCH   7   6
ATOM      3  C   UNL     1      -3.513  -1.965  24.607  0.00  0.00    +0.139 A 
ATOM      4  C   UNL     1      -3.554  -1.604  25.347  0.00  0.00    +0.037 A 
ATOM      5  C   UNL     1      -3.885  -0.852  25.422  0.00  0.00    +0.001 A 
ATOM      6  C   UNL     1      -4.175  -0.461  24.756  0.00  0.00    -0.002 A 
ATOM     25  C   UNL     1      -4.134  -0.822  24.015  0.00  0.00    +0.001 A 
ATOM     26  C   UNL     1      -3.802  -1.574  23.941  0.00  0.00    +0.037 A 
BRANCH   3   2
ATOM      1  C   UNL     1      -2.364  -2.804  24.471  0.00  0.00    +0.252 C 
ATOM      2  O   UNL     1      -3.181  -2.717  24.532  0.00  0.00    -0.471 OA
ENDBRANCH   3   2
ENDBRANCH   7   6
ENDBRANCH   8   7
TORSDOF 4
ENDMDL
MODEL 2
REMARK VINA RESULT:     -12.1      1.065      5.163
REMARK  Name = 
REMARK  4 active torsions:
REMARK  status: ('A' for Active; 'I' for Inactive)
REMARK    1  A    between atoms: O_2  and  C_3
REMARK    2  A    between atoms: C_6  and  C_7
REMARK    3  A    between atoms: C_7  and  N_8
REMARK    4  A    between atoms: C_18  and  C_20
REMARK                            x       y       z     vdW  Elec       q    Type
REMARK                         _______ _______ _______ _____ _____    ______ ____
ROOT
ATOM      8  N   UNL     1      -4.105   2.312  24.991  0.00  0.00    -0.258 N 
ATOM      9  C   UNL     1      -3.412   1.920  24.774  0.00  0.00    +0.117 C 
ATOM     10  C   UNL     1      -3.567   1.110  24.775  0.00  0.00    +0.116 C 
ATOM     11  C   UNL     1      -3.093   0.457  24.606  0.00  0.00    +0.115 C 
ATOM     12  N   UNL     1      -3.406  -0.304  24.654  0.00  0.00    -0.276 N 
ATOM     13  C   UNL     1      -4.194  -0.413  24.871  0.00  0.00    +0.115 C 
ATOM     14  C   UNL     1      -4.670   0.240  25.040  0.00  0.00    +0.116 C 
ATOM     15  N   UNL     1      -4.356   1.002  24.992  0.00  0.00    -0.261 N 
ATOM     16  C   UNL     1      -4.688   1.745  25.126  0.00  0.00    +0.308 C 
ATOM     17  O   UNL     1      -5.467   1.894  25.354  0.00  0.00    -0.252 OA
ATOM     18  C   UNL     1      -2.931  -0.958  24.485  0.00  0.00    +0.225 C 
ATOM     19  O   UNL     1      -2.143  -0.849  24.267  0.00  0.00    -0.275 OA
ENDROOT
BRANCH  18  20
ATOM     20  C   UNL     1      -3.244  -1.719  24.533  0.00  0.00    +0.077 C 
ATOM     21  C   UNL     1      -3.701  -2.093  23.956  0.00  0.00    +0.009 C 
ATOM     22  C   UNL     1      -3.895  -2.846  24.233  0.00  0.00    +0.001 C 
ATOM     23  C   UNL     1      -3.558  -2.937  24.981  0.00  0.00    +0.001 C 
ATOM     24  C   UNL     1      -3.156  -2.241  25.166  0.00  0.00    +0.009 C 
ENDBRANCH  18  20
BRANCH   8   7
ATOM      7  C   UNL     1      -4.198   3.129  25.061  0.00  0.00    +0.122 C 
BRANCH   7   6
ATOM      3  C   UNL     1      -2.216   4.582  25.358  0.00  0.00    +0.139 A 
ATOM      4  C   UNL     1      -2.592   4.257  26.016  0.00  0.00    +0.037 A 
ATOM      5  C   UNL     1      -3.253   3.773  25.918  0.00  0.00    +0.001 A 
ATOM      6  C   UNL     1      -3.538   3.613  25.161  0.00  0.00    -0.002 A 
ATOM     25  C   UNL     1      -3.162   3.938  24.501  0.00  0.00    +0.001 A 
ATOM     26  C   UNL     1      -2.501   4.422  24.600  0.00  0.00    +0.037 A 
BRANCH   3   2
ATOM      1  C   UNL     1      -0.890   4.957  24.981  0.00  0.00    +0.252 C 
ATOM      2  O   UNL     1      -1.555   5.066  25.456  0.00  0.00    -0.471 OA
ENDBRANCH   3   2
ENDBRANCH   7   6
ENDBRANCH   8   7
TORSDOF 4
ENDMDL
MODEL 3
REMARK VINA RESULT:     -11.9      1.667      5.571
REMARK  Name = 
REMARK  4 active torsions:
REMARK  status: ('A' for Active; 'I' for Inactive)
REMARK    1  A    between atoms: O_2  and  C_3
REMARK    2  A    between atoms: C_6  and  C_7
REMARK    3  A    between atoms: C_7  and  N_8
REMARK    4  A    between atoms: C_18  and  C_20
REMARK                            x       y       z     vdW  Elec       q    Type
REMARK                         _______ _______ _______ _____ _____    ______ ____
ROOT
ATOM      8  N   UNL     1      -0.652   1.186  25.046  0.00  0.00    -0.258 N 
ATOM      9  C   UNL     1      -1.410   1.142  25.371  0.00  0.00    +0.117 C 
ATOM     10  C   UNL     1      -1.760   0.444  25.108  0.00  0.00    +0.116 C 
ATOM     11  C   UNL     1      -2.501   0.110  25.249  0.00  0.00    +0.115 C 
ATOM     12  N   UNL     1      -2.703  -0.610  24.903  0.00  0.00    -0.276 N 
ATOM     13  C   UNL     1      -2.163  -0.998  24.415  0.00  0.00    +0.115 C 
ATOM     14  C   UNL     1      -1.421  -0.666  24.273  0.00  0.00    +0.116 C 
ATOM     15  N   UNL     1      -1.220   0.056  24.620  0.00  0.00    -0.261 N 
ATOM     16  C   UNL     1      -0.536   0.514  24.581  0.00  0.00    +0.308 C 
ATOM     17  O   UNL     1       0.146   0.333  24.153  0.00  0.00    -0.252 OA
ATOM     18  C   UNL     1      -3.444  -0.944  25.044  0.00  0.00    +0.225 C 
ATOM     19  O   UNL     1      -3.984  -0.556  25.533  0.00  0.00    -0.275 OA
ENDROOT
BRANCH  18  20
ATOM     20  C   UNL     1      -3.646  -1.664  24.698  0.00  0.00    +0.077 C 
ATOM     21  C   UNL     1      -4.078  -1.765  24.002  0.00  0.00    +0.009 C 
ATOM     22  C   UNL     1      -4.150  -2.574  23.861  0.00  0.00    +0.001 C 
ATOM     23  C   UNL     1      -3.761  -2.975  24.469  0.00  0.00    +0.001 C 
ATOM     24  C   UNL     1      -3.450  -2.412  24.987  0.00  0.00    +0.009 C 
ENDBRANCH  18  20
BRANCH   8   7
ATOM      7  C   UNL     1      -0.108   1.794  25.164  0.00  0.00    +0.122 C 
BRANCH   7   6
ATOM      3  C   UNL     1      -0.837   4.155  25.017  0.00  0.00    +0.139 A 
ATOM      4  C   UNL     1      -0.858   3.761  25.741  0.00  0.00    +0.037 A 
ATOM      5  C   UNL     1      -0.615   2.974  25.791  0.00  0.00    +0.001 A 
ATOM      6  C   UNL     1      -0.351   2.581  25.116  0.00  0.00    -0.002 A 
ATOM     25  C   UNL     1      -0.330   2.975  24.390  0.00  0.00    +0.001 A 
ATOM     26  C   UNL     1      -0.573   3.762  24.342  0.00  0.00    +0.037 A 
BRANCH   3   2
ATOM      1  C   UNL     1      -1.807   5.170  25.281  0.00  0.00    +0.252 C 
ATOM      2  O   UNL     1      -1.080   4.942  24.968  0.00  0.00    -0.471 OA
ENDBRANCH   3   2
ENDBRANCH   7   6
ENDBRANCH   8   7
TORSDOF 4
ENDMDL
MODEL 4
REMARK VINA RESULT:     -10.5      1.563      2.197
REMARK  Name = 
REMARK  4 active torsions:
REMARK  status: ('A' for Active; 'I' for Inactive)
REMARK    1  A    between atoms: O_2  and  C_3
REMARK    2  A    between atoms: C_6  and  C_7
REMARK    3  A    between atoms: C_7  and  N_8
REMARK    4  A    between atoms: C_18  and  C_20
REMARK                            x       y       z     vdW  Elec       q    Type
REMARK                         _______ _______ _______ _____ _____    ______ ____
ROOT
ATOM      8  N   UNL     1      -1.387  -0.417  25.251  0.00  0.00    -0.258 N 
ATOM      9  C   UNL     1      -1.721   0.038  24.648  0.00  0.00    +0.117 C 
ATOM     10  C   UNL     1      -1.584   0.832  24.824  0.00  0.00    +0.116 C 
ATOM     11  C   UNL     1      -1.785   1.528  24.430  0.00  0.00    +0.115 C 
ATOM     12  N   UNL     1      -1.570   2.259  24.745  0.00  0.00    -0.276 N 
ATOM     13  C   UNL     1      -1.152   2.294  25.455  0.00  0.00    +0.115 C 
ATOM     14  C   UNL     1      -0.949   1.599  25.850  0.00  0.00    +0.116 C 
ATOM     15  N   UNL     1      -1.166   0.868  25.535  0.00  0.00    -0.261 N 
ATOM     16  C   UNL     1      -1.044   0.096  25.798  0.00  0.00    +0.308 C 
ATOM     17  O   UNL     1      -0.649  -0.125  26.488  0.00  0.00    -0.252 OA
ATOM     18  C   UNL     1      -1.771   2.955  24.350  0.00  0.00    +0.225 C 
ATOM     19  O   UNL     1      -2.190   2.919  23.640  0.00  0.00    -0.275 OA
ENDROOT
BRANCH  18  20
ATOM     20  C   UNL     1      -1.556   3.686  24.665  0.00  0.00    +0.077 C 
ATOM     21  C   UNL     1      -2.026   4.167  25.143  0.00  0.00    +0.009 C 
ATOM     22  C   UNL     1      -1.592   4.843  25.331  0.00  0.00    +0.001 C 
ATOM     23  C   UNL     1      -0.853   4.780  24.969  0.00  0.00    +0.001 C 
ATOM     24  C   UNL     1      -0.830   4.065  24.558  0.00  0.00    +0.009 C 
ENDBRANCH  18  20
BRANCH   8   7
ATOM      7  C   UNL     1      -1.395  -1.241  25.296  0.00  0.00    +0.122 C 
BRANCH   7   6
ATOM      3  C   UNL     1      -3.370  -2.507  24.510  0.00  0.00    +0.139 A 
ATOM      4  C   UNL     1      -3.418  -2.053  25.196  0.00  0.00    +0.037 A 
ATOM      5  C   UNL     1      -2.760  -1.631  25.459  0.00  0.00    +0.001 A 
ATOM      6  C   UNL     1      -2.053  -1.663  25.035  0.00  0.00    -0.002 A 
ATOM     25  C   UNL     1      -2.005  -2.117  24.347  0.00  0.00    +0.001 A 
ATOM     26  C   UNL     1      -2.664  -2.539  24.085  0.00  0.00    +0.037 A 
BRANCH   3   2
ATOM      1  C   UNL     1      -4.541  -2.594  23.695  0.00  0.00    +0.252 C 
ATOM      2  O   UNL     1      -4.029  -2.929  24.246  0.00  0.00    -0.471 OA
ENDBRANCH   3   2
ENDBRANCH   7   6
ENDBRANCH   8   7
TORSDOF 4
ENDMDL
