MODEL 1
REMARK VINA RESULT:     -14.6      0.000      0.000
REMARK  Name = 
REMARK  6 active torsions:
REMARK  status: ('A' for Active; 'I' for Inactive)
REMARK    1  A    between atoms: N_2  and  C_3
REMARK    2  A    between atoms: C_3  and  C_4
REMARK    3  A    between atoms: C_10  and  C_12
REMARK    4  A    between atoms: C_12  and  C_13
REMARK    5  A    between atoms: C_18  and  C_20
REMARK    6  A    between atoms: C_31  and  C_33
REMARK                            x       y       z     vdW  Elec       q    Type
REMARK                         _______ _______ _______ _____ _____    ______ ____
ROOT
ATOM     13  C   UNL     1      -2.526  -0.273  25.002  0.00  0.00    +0.050 C 
ATOM     14  C   UNL     1      -3.152   0.265  25.015  0.00  0.00    +0.063 A 
ATOM     15  C   UNL     1      -3.907   0.026  24.784  0.00  0.00    +0.023 A 
ATOM     16  C   UNL     1      -4.036  -0.751  24.539  0.00  0.00    +0.034 C 
ATOM     17  C   UNL     1      -3.411  -1.289  24.526  0.00  0.00    +0.010 C 
ATOM     18  C   UNL     1      -3.541  -2.066  24.282  0.00  0.00    +0.059 C 
ATOM     19  C   UNL     1      -4.303  -1.761  24.200  0.00  0.00    +0.005 C 
ATOM     22  C   UNL     1      -2.916  -2.604  24.268  0.00  0.00    +0.154 C 
ATOM     23  O   UNL     1      -3.045  -3.382  24.024  0.00  0.00    -0.223 OA
ATOM     24  C   UNL     1      -2.161  -2.365  24.500  0.00  0.00    +0.033 C 
ATOM     25  C   UNL     1      -2.031  -1.587  24.744  0.00  0.00    +0.003 C 
ATOM     26  C   UNL     1      -2.656  -1.050  24.757  0.00  0.00    +0.006 C 
ATOM     27  C   UNL     1      -1.901  -0.811  24.988  0.00  0.00    +0.000 C 
ATOM     28  S   UNL     1      -4.412   0.675  24.854  0.00  0.00    -0.054 S 
ATOM     29  C   UNL     1      -3.970   1.314  25.128  0.00  0.00    +0.185 A 
ATOM     30  N   UNL     1      -4.256   2.073  25.277  0.00  0.00    -0.154 NA
ATOM     31  C   UNL     1      -5.053   2.246  25.151  0.00  0.00    +0.246 C 
ATOM     32  O   UNL     1      -5.563   1.659  24.877  0.00  0.00    -0.273 OA
ATOM     37  N   UNL     1      -3.191   1.062  25.228  0.00  0.00    -0.227 NA
ENDROOT
BRANCH  31  33
ATOM     33  C   UNL     1      -5.339   3.006  25.300  0.00  0.00    +0.071 C 
ATOM     34  C   UNL     1      -5.625   3.765  25.448  0.00  0.00    +0.009 C 
ATOM     35  C   UNL     1      -4.791   3.316  24.766  0.00  0.00    +0.009 C 
ATOM     36  C   UNL     1      -5.886   2.695  25.833  0.00  0.00    +0.009 C 
ENDBRANCH  31  33
BRANCH  18  20
ATOM     20  C   UNL     1      -3.935  -2.738  24.009  0.00  0.00    +0.184 C 
ATOM     21  O   UNL     1      -4.672  -2.665  23.647  0.00  0.00    -0.220 OA
ENDBRANCH  18  20
BRANCH  13  12
ATOM     12  C   UNL     1      -1.772  -0.034  25.233  0.00  0.00    +0.091 C 
BRANCH  12  10
ATOM      1  C   UNL     1      -0.663   0.969  25.930  0.00  0.00    +0.115 C 
ATOM      2  N   UNL     1      -0.793   1.000  25.116  0.00  0.00    -0.274 N 
ATOM     10  C   UNL     1      -1.347   0.499  24.768  0.00  0.00    +0.226 C 
ATOM     11  O   UNL     1      -1.477   0.529  23.954  0.00  0.00    -0.275 OA
BRANCH   2   3
ATOM      3  C   UNL     1      -0.368   1.532  24.651  0.00  0.00    +0.120 C 
BRANCH   3   4
ATOM      4  C   UNL     1      -0.409   2.341  24.809  0.00  0.00    -0.002 A 
ATOM      5  C   UNL     1      -0.663   2.864  24.223  0.00  0.00    -0.003 A 
ATOM      6  C   UNL     1      -0.703   3.673  24.380  0.00  0.00    -0.000 A 
ATOM      7  C   UNL     1      -0.489   3.960  25.125  0.00  0.00    -0.000 A 
ATOM      8  C   UNL     1      -0.235   3.437  25.710  0.00  0.00    -0.000 A 
ATOM      9  C   UNL     1      -0.195   2.628  25.552  0.00  0.00    -0.003 A 
ENDBRANCH   3   4
ENDBRANCH   2   3
ENDBRANCH  12  10
ENDBRANCH  13  12
TORSDOF 6
ENDMDL
MODEL 2
REMARK VINA RESULT:     -14.2      1.518      5.070
REMARK  Name = 
REMARK  6 active torsions:
REMARK  status: ('A' for Active; 'I' for Inactive)
REMARK    1  A    between atoms: N_2  and  C_3
REMARK    2  A    between atoms: C_3  and  C_4
REMARK    3  A    between atoms: C_10  and  C_12
REMARK    4  A    between atoms: C_12  and  C_13
REMARK    5  A    between atoms: C_18  and  C_20
REMARK    6  A    between atoms: C_31  and  C_33
REMARK                            x       y       z     vdW  Elec       q    Type
REMARK                         _______ _______ _______ _____ _____    ______ ____
ROOT
ATOM     13  C   UNL     1      -4.069   1.277  24.703  0.00  0.00    +0.050 C 
ATOM     14  C   UNL     1      -3.273   1.485  24.634  0.00  0.00    +0.063 A 
ATOM     15  C   UNL     1      -3.029   2.249  24.826  0.00  0.00    +0.023 A 
ATOM     16  C   UNL     1      -3.580   2.805  25.087  0.00  0.00    +0.034 C 
ATOM     17  C   UNL     1      -4.375   2.597  25.156  0.00  0.00    +0.010 C 
ATOM     18  C   UNL     1      -4.925   3.152  25.417  0.00  0.00    +0.059 C 
ATOM     19  C   UNL     1      -4.238   3.609  25.442  0.00  0.00    +0.005 C 
ATOM     22  C   UNL     1      -5.721   2.945  25.486  0.00  0.00    +0.154 C 
ATOM     23  O   UNL     1      -6.272   3.501  25.747  0.00  0.00    -0.223 OA
ATOM     24  C   UNL     1      -5.965   2.181  25.294  0.00  0.00    +0.033 C 
ATOM     25  C   UNL     1      -5.414   1.624  25.033  0.00  0.00    +0.003 C 
ATOM     26  C   UNL     1      -4.619   1.833  24.964  0.00  0.00    +0.006 C 
ATOM     27  C   UNL     1      -4.864   1.069  24.772  0.00  0.00    +0.000 C 
ATOM     28  S   UNL     1      -2.213   2.294  24.704  0.00  0.00    -0.054 S 
ATOM     29  C   UNL     1      -1.955   1.558  24.437  0.00  0.00    +0.185 A 
ATOM     30  N   UNL     1      -1.178   1.358  24.247  0.00  0.00    -0.154 NA
ATOM     31  C   UNL     1      -0.577   1.918  24.318  0.00  0.00    +0.246 C 
ATOM     32  O   UNL     1      -0.755   2.680  24.580  0.00  0.00    -0.273 OA
ATOM     37  N   UNL     1      -2.609   1.058  24.393  0.00  0.00    -0.227 NA
ENDROOT
BRANCH  31  33
ATOM     33  C   UNL     1       0.200   1.717  24.127  0.00  0.00    +0.071 C 
ATOM     34  C   UNL     1       0.977   1.516  23.937  0.00  0.00    +0.009 C 
ATOM     35  C   UNL     1      -0.047   0.957  23.923  0.00  0.00    +0.009 C 
ATOM     36  C   UNL     1       0.446   2.478  24.331  0.00  0.00    +0.009 C 
ENDBRANCH  31  33
BRANCH  18  20
ATOM     20  C   UNL     1      -5.238   3.867  25.687  0.00  0.00    +0.184 C 
ATOM     21  O   UNL     1      -4.754   4.532  25.751  0.00  0.00    -0.220 OA
ENDBRANCH  18  20
BRANCH  13  12
ATOM     12  C   UNL     1      -4.314   0.513  24.511  0.00  0.00    +0.091 C 
BRANCH  12  10
ATOM      1  C   UNL     1      -4.238  -1.007  23.873  0.00  0.00    +0.115 C 
ATOM      2  N   UNL     1      -4.054  -0.883  24.667  0.00  0.00    -0.274 N 
ATOM     10  C   UNL     1      -4.092  -0.123  24.986  0.00  0.00    +0.226 C 
ATOM     11  O   UNL     1      -3.907   0.001  25.780  0.00  0.00    -0.275 OA
BRANCH   2   3
ATOM      3  C   UNL     1      -3.832  -1.519  25.143  0.00  0.00    +0.120 C 
BRANCH   3   4
ATOM      4  C   UNL     1      -3.342  -2.109  24.839  0.00  0.00    -0.002 A 
ATOM      5  C   UNL     1      -2.522  -2.040  24.906  0.00  0.00    -0.003 A 
ATOM      6  C   UNL     1      -2.032  -2.631  24.602  0.00  0.00    -0.000 A 
ATOM      7  C   UNL     1      -2.362  -3.291  24.233  0.00  0.00    -0.000 A 
ATOM      8  C   UNL     1      -3.181  -3.360  24.167  0.00  0.00    -0.000 A 
ATOM      9  C   UNL     1      -3.671  -2.769  24.470  0.00  0.00    -0.003 A 
ENDBRANCH   3   4
ENDBRANCH   2   3
ENDBRANCH  12  10
ENDBRANCH  13  12
TORSDOF 6
ENDMDL
MODEL 3
REMARK VINA RESULT:     -14.2      1.346      4.145
REMARK  Name = 
REMARK  6 active torsions:
REMARK  status: ('A' for Active; 'I' for Inactive)
REMARK    1  A    between atoms: N_2  and  C_3
REMARK    2  A    between atoms: C_3  and  C_4
REMARK    3  A    between atoms: C_10  and  C_12
REMARK    4  A    between atoms: C_12  and  C_13
REMARK    5  A    between atoms: C_18  and  C_20
REMARK    6  A    between atoms: C_31  and  C_33
REMARK                            x       y       z     vdW  Elec       q    Type
REMARK                         _______ _______ _______ _____ _____    ______ ____
ROOT
ATOM     13  C   UNL     1      -3.397   1.899  24.503  0.00  0.00    +0.050 C 
ATOM     14  C   UNL     1      -3.578   1.094  24.520  0.00  0.00    +0.063 A 
ATOM     15  C   UNL     1      -4.294   0.838  24.840  0.00  0.00    +0.023 A 
ATOM     16  C   UNL     1      -4.829   1.389  25.142  0.00  0.00    +0.034 C 
ATOM     17  C   UNL     1      -4.649   2.193  25.125  0.00  0.00    +0.010 C 
ATOM     18  C   UNL     1      -5.184   2.742  25.427  0.00  0.00    +0.059 C 
ATOM     19  C   UNL     1      -5.601   2.044  25.567  0.00  0.00    +0.005 C 
ATOM     22  C   UNL     1      -5.004   3.547  25.410  0.00  0.00    +0.154 C 
ATOM     23  O   UNL     1      -5.539   4.098  25.713  0.00  0.00    -0.223 OA
ATOM     24  C   UNL     1      -4.288   3.803  25.091  0.00  0.00    +0.033 C 
ATOM     25  C   UNL     1      -3.751   3.253  24.788  0.00  0.00    +0.003 C 
ATOM     26  C   UNL     1      -3.933   2.448  24.805  0.00  0.00    +0.006 C 
ATOM     27  C   UNL     1      -3.216   2.703  24.485  0.00  0.00    +0.000 C 
ATOM     28  S   UNL     1      -4.320   0.016  24.782  0.00  0.00    -0.054 S 
ATOM     29  C   UNL     1      -3.621  -0.237  24.427  0.00  0.00    +0.185 A 
ATOM     30  N   UNL     1      -3.416  -1.019  24.262  0.00  0.00    -0.154 NA
ATOM     31  C   UNL     1      -3.933  -1.631  24.457  0.00  0.00    +0.246 C 
ATOM     32  O   UNL     1      -4.656  -1.461  24.816  0.00  0.00    -0.273 OA
ATOM     37  N   UNL     1      -3.161   0.428  24.264  0.00  0.00    -0.227 NA
ENDROOT
BRANCH  31  33
ATOM     33  C   UNL     1      -3.728  -2.413  24.292  0.00  0.00    +0.071 C 
ATOM     34  C   UNL     1      -3.523  -3.195  24.127  0.00  0.00    +0.009 C 
ATOM     35  C   UNL     1      -4.249  -2.415  23.652  0.00  0.00    +0.009 C 
ATOM     36  C   UNL     1      -3.208  -2.411  24.932  0.00  0.00    +0.009 C 
ENDBRANCH  31  33
BRANCH  18  20
ATOM     20  C   UNL     1      -5.865   3.050  25.779  0.00  0.00    +0.184 C 
ATOM     21  O   UNL     1      -6.272   2.611  26.345  0.00  0.00    -0.220 OA
ENDBRANCH  18  20
BRANCH  13  12
ATOM     12  C   UNL     1      -2.681   2.154  24.183  0.00  0.00    +0.091 C 
BRANCH  12  10
ATOM      1  C   UNL     1      -1.272   2.093  23.327  0.00  0.00    +0.115 C 
ATOM      2  N   UNL     1      -1.267   1.949  24.139  0.00  0.00    -0.274 N 
ATOM     10  C   UNL     1      -1.972   1.979  24.567  0.00  0.00    +0.226 C 
ATOM     11  O   UNL     1      -1.968   1.835  25.379  0.00  0.00    -0.275 OA
BRANCH   2   3
ATOM      3  C   UNL     1      -0.559   1.775  24.523  0.00  0.00    +0.120 C 
BRANCH   3   4
ATOM      4  C   UNL     1       0.031   1.354  24.128  0.00  0.00    -0.002 A 
ATOM      5  C   UNL     1      -0.095   0.567  23.915  0.00  0.00    -0.003 A 
ATOM      6  C   UNL     1       0.495   0.146  23.521  0.00  0.00    -0.000 A 
ATOM      7  C   UNL     1       1.212   0.513  23.339  0.00  0.00    -0.000 A 
ATOM      8  C   UNL     1       1.338   1.300  23.552  0.00  0.00    -0.000 A 
ATOM      9  C   UNL     1       0.747   1.721  23.947  0.00  0.00    -0.003 A 
ENDBRANCH   3   4
ENDBRANCH   2   3
ENDBRANCH  12  10
ENDBRANCH  13  12
TORSDOF 6
ENDMDL
MODEL 4
REMARK VINA RESULT:     -14.0      0.967      3.507
REMARK  Name = 
REMARK  6 active torsions:
REMARK  status: ('A' for Active; 'I' for Inactive)
REMARK    1  A    between atoms: N_2  and  C_3
REMARK    2  A    between atoms: C_3  and  C_4
REMARK    3  A    between atoms: C_10  and  C_12
REMARK    4  A    between atoms: C_12  and  C_13
REMARK    5  A    between atoms: C_18  and  C_20
REMARK    6  A    between atoms: C_31  and  C_33
REMARK                            x       y       z     vdW  Elec       q    Type
REMARK                         _______ _______ _______ _____ _____    ______ ____
ROOT
ATOM     13  C   UNL     1      -3.323  -0.336  25.054  0.00  0.00    +0.050 C 
ATOM     14  C   UNL     1      -2.636   0.116  25.123  0.00  0.00    +0.063 A 
ATOM     15  C   UNL     1      -1.900  -0.225  24.970  0.00  0.00    +0.023 A 
ATOM     16  C   UNL     1      -1.852  -1.019  24.749  0.00  0.00    +0.034 C 
ATOM     17  C   UNL     1      -2.538  -1.470  24.681  0.00  0.00    +0.010 C 
ATOM     18  C   UNL     1      -2.490  -2.263  24.460  0.00  0.00    +0.059 C 
ATOM     19  C   UNL     1      -1.690  -2.063  24.450  0.00  0.00    +0.005 C 
ATOM     22  C   UNL     1      -3.177  -2.716  24.391  0.00  0.00    +0.154 C 
ATOM     23  O   UNL     1      -3.129  -3.509  24.170  0.00  0.00    -0.223 OA
ATOM     24  C   UNL     1      -3.912  -2.374  24.544  0.00  0.00    +0.033 C 
ATOM     25  C   UNL     1      -3.961  -1.580  24.765  0.00  0.00    +0.003 C 
ATOM     26  C   UNL     1      -3.274  -1.129  24.833  0.00  0.00    +0.006 C 
ATOM     27  C   UNL     1      -4.009  -0.788  24.986  0.00  0.00    +0.000 C 
ATOM     28  S   UNL     1      -1.322   0.353  25.082  0.00  0.00    -0.054 S 
ATOM     29  C   UNL     1      -1.701   1.051  25.303  0.00  0.00    +0.185 A 
ATOM     30  N   UNL     1      -1.332   1.770  25.471  0.00  0.00    -0.154 NA
ATOM     31  C   UNL     1      -0.511   1.835  25.422  0.00  0.00    +0.246 C 
ATOM     32  O   UNL     1      -0.059   1.179  25.206  0.00  0.00    -0.273 OA
ATOM     37  N   UNL     1      -2.512   0.906  25.329  0.00  0.00    -0.227 NA
ENDROOT
BRANCH  31  33
ATOM     33  C   UNL     1      -0.143   2.554  25.589  0.00  0.00    +0.071 C 
ATOM     34  C   UNL     1       0.226   3.273  25.757  0.00  0.00    +0.009 C 
ATOM     35  C   UNL     1      -0.320   2.821  24.829  0.00  0.00    +0.009 C 
ATOM     36  C   UNL     1       0.034   2.286  26.350  0.00  0.00    +0.009 C 
ENDBRANCH  31  33
BRANCH  18  20
ATOM     20  C   UNL     1      -2.164  -2.987  24.235  0.00  0.00    +0.184 C 
ATOM     21  O   UNL     1      -1.379  -3.028  23.988  0.00  0.00    -0.220 OA
ENDBRANCH  18  20
BRANCH  13  12
ATOM     12  C   UNL     1      -4.058   0.005  25.207  0.00  0.00    +0.091 C 
BRANCH  12  10
ATOM      1  C   UNL     1      -5.149   1.088  25.806  0.00  0.00    +0.115 C 
ATOM      2  N   UNL     1      -4.880   1.160  25.030  0.00  0.00    -0.274 N 
ATOM     10  C   UNL     1      -4.335   0.619  24.730  0.00  0.00    +0.226 C 
ATOM     11  O   UNL     1      -4.066   0.690  23.953  0.00  0.00    -0.275 OA
BRANCH   2   3
ATOM      3  C   UNL     1      -5.157   1.773  24.553  0.00  0.00    +0.120 C 
BRANCH   3   4
ATOM      4  C   UNL     1      -5.158   2.548  24.836  0.00  0.00    -0.002 A 
ATOM      5  C   UNL     1      -4.608   3.093  24.549  0.00  0.00    -0.003 A 
ATOM      6  C   UNL     1      -4.609   3.868  24.832  0.00  0.00    -0.000 A 
ATOM      7  C   UNL     1      -5.159   4.098  25.403  0.00  0.00    -0.000 A 
ATOM      8  C   UNL     1      -5.708   3.553  25.690  0.00  0.00    -0.000 A 
ATOM      9  C   UNL     1      -5.707   2.778  25.406  0.00  0.00    -0.003 A 
ENDBRANCH   3   4
ENDBRANCH   2   3
ENDBRANCH  12  10
ENDBRANCH  13  12
TORSDOF 6
ENDMDL
MODEL 5
REMARK VINA RESULT:     -13.9      2.001      5.629
REMARK  Name = 
REMARK  6 active torsions:
REMARK  status: ('A' for Active; 'I' for Inactive)
REMARK    1  A    between atoms: N_2  and  C_3
REMARK    2  A    between atoms: C_3  and  C_4
REMARK    3  A    between atoms: C_10  and  C_12
REMARK    4  A    between atoms: C_12  and  C_13
REMARK    5  A    between atoms: C_18  and  C_20
REMARK    6  A    between atoms: C_31  and  C_33
REMARK                            x       y       z     vdW  Elec       q    Type
REMARK                         _______ _______ _______ _____ _____    ______ ____
ROOT
ATOM     13  C   UNL     1      -2.449   1.881  24.514  0.00  0.00    +0.050 C 
ATOM     14  C   UNL     1      -1.683   1.673  24.287  0.00  0.00    +0.063 A 
ATOM     15  C   UNL     1      -1.059   2.198  24.412  0.00  0.00    +0.023 A 
ATOM     16  C   UNL     1      -1.201   2.931  24.764  0.00  0.00    +0.034 C 
ATOM     17  C   UNL     1      -1.966   3.138  24.991  0.00  0.00    +0.010 C 
ATOM     18  C   UNL     1      -2.107   3.870  25.343  0.00  0.00    +0.059 C 
ATOM     19  C   UNL     1      -1.293   3.924  25.224  0.00  0.00    +0.005 C 
ATOM     22  C   UNL     1      -2.873   4.078  25.571  0.00  0.00    +0.154 C 
ATOM     23  O   UNL     1      -3.015   4.811  25.923  0.00  0.00    -0.223 OA
ATOM     24  C   UNL     1      -3.497   3.553  25.445  0.00  0.00    +0.033 C 
ATOM     25  C   UNL     1      -3.355   2.820  25.093  0.00  0.00    +0.003 C 
ATOM     26  C   UNL     1      -2.590   2.613  24.866  0.00  0.00    +0.006 C 
ATOM     27  C   UNL     1      -3.214   2.088  24.741  0.00  0.00    +0.000 C 
ATOM     28  S   UNL     1      -0.368   1.844  24.133  0.00  0.00    -0.054 S 
ATOM     29  C   UNL     1      -0.565   1.101  23.835  0.00  0.00    +0.185 A 
ATOM     30  N   UNL     1      -0.041   0.558  23.501  0.00  0.00    -0.154 NA
ATOM     31  C   UNL     1       0.761   0.741  23.442  0.00  0.00    +0.246 C 
ATOM     32  O   UNL     1       1.039   1.467  23.718  0.00  0.00    -0.273 OA
ATOM     37  N   UNL     1      -1.377   0.994  23.930  0.00  0.00    -0.227 NA
ENDROOT
BRANCH  31  33
ATOM     33  C   UNL     1       1.285   0.198  23.108  0.00  0.00    +0.071 C 
ATOM     34  C   UNL     1       1.808  -0.345  22.773  0.00  0.00    +0.009 C 
ATOM     35  C   UNL     1       0.675  -0.355  23.051  0.00  0.00    +0.009 C 
ATOM     36  C   UNL     1       1.894   0.751  23.164  0.00  0.00    +0.009 C 
ENDBRANCH  31  33
BRANCH  18  20
ATOM     20  C   UNL     1      -1.966   4.622  25.654  0.00  0.00    +0.184 C 
ATOM     21  O   UNL     1      -1.347   5.080  25.362  0.00  0.00    -0.220 OA
ENDBRANCH  18  20
BRANCH  13  12
ATOM     12  C   UNL     1      -3.072   1.356  24.389  0.00  0.00    +0.091 C 
BRANCH  12  10
ATOM      1  C   UNL     1      -4.031   0.103  23.909  0.00  0.00    +0.115 C 
ATOM      2  N   UNL     1      -3.636   0.066  24.632  0.00  0.00    -0.274 N 
ATOM     10  C   UNL     1      -3.157   0.693  24.872  0.00  0.00    +0.226 C 
ATOM     11  O   UNL     1      -2.761   0.657  25.595  0.00  0.00    -0.275 OA
BRANCH   2   3
ATOM      3  C   UNL     1      -3.720  -0.597  25.114  0.00  0.00    +0.120 C 
BRANCH   3   4
ATOM      4  C   UNL     1      -3.716  -1.352  24.782  0.00  0.00    -0.002 A 
ATOM      5  C   UNL     1      -4.263  -1.548  24.195  0.00  0.00    -0.003 A 
ATOM      6  C   UNL     1      -4.260  -2.303  23.863  0.00  0.00    -0.000 A 
ATOM      7  C   UNL     1      -3.709  -2.863  24.117  0.00  0.00    -0.000 A 
ATOM      8  C   UNL     1      -3.163  -2.668  24.703  0.00  0.00    -0.000 A 
ATOM      9  C   UNL     1      -3.166  -1.912  25.036  0.00  0.00    -0.003 A 
ENDBRANCH   3   4
ENDBRANCH   2   3
ENDBRANCH  12  10
ENDBRANCH  13  12
TORSDOF 6
ENDMDL
MODEL 6
REMARK VINA RESULT:     -13.6      1.678      4.587
REMARK  Name = 
REMARK  6 active torsions:
REMARK  status: ('A' for Active; 'I' for Inactive)
REMARK    1  A    between atoms: N_2  and  C_3
REMARK    2  A    between atoms: C_3  and  C_4
REMARK    3  A    between atoms: C_10  and  C_12
REMARK    4  A    between atoms: C_12  and  C_13
REMARK    5  A    between atoms: C_18  and  C_20
REMARK    6  A    between atoms: C_31  and  C_33
REMARK                            x       y       z     vdW  Elec       q    Type
REMARK                         _______ _______ _______ _____ _____    ______ ____
ROOT
ATOM     13  C   UNL     1      -1.889   2.393  24.600  0.00  0.00    +0.050 C 
ATOM     14  C   UNL     1      -2.688   2.449  24.801  0.00  0.00    +0.063 A 
ATOM     15  C   UNL     1      -3.004   3.172  25.041  0.00  0.00    +0.023 A 
ATOM     16  C   UNL     1      -2.521   3.840  25.080  0.00  0.00    +0.034 C 
ATOM     17  C   UNL     1      -1.723   3.785  24.879  0.00  0.00    +0.010 C 
ATOM     18  C   UNL     1      -1.241   4.453  24.918  0.00  0.00    +0.059 C 
ATOM     19  C   UNL     1      -1.958   4.780  25.162  0.00  0.00    +0.005 C 
ATOM     22  C   UNL     1      -0.443   4.398  24.717  0.00  0.00    +0.154 C 
ATOM     23  O   UNL     1       0.040   5.067  24.756  0.00  0.00    -0.223 OA
ATOM     24  C   UNL     1      -0.127   3.675  24.477  0.00  0.00    +0.033 C 
ATOM     25  C   UNL     1      -0.609   3.006  24.438  0.00  0.00    +0.003 C 
ATOM     26  C   UNL     1      -1.407   3.062  24.639  0.00  0.00    +0.006 C 
ATOM     27  C   UNL     1      -1.091   2.339  24.399  0.00  0.00    +0.000 C 
ATOM     28  S   UNL     1      -3.805   3.059  25.204  0.00  0.00    -0.054 S 
ATOM     29  C   UNL     1      -3.983   2.266  25.065  0.00  0.00    +0.185 A 
ATOM     30  N   UNL     1      -4.722   1.912  25.159  0.00  0.00    -0.154 NA
ATOM     31  C   UNL     1      -5.366   2.361  25.413  0.00  0.00    +0.246 C 
ATOM     32  O   UNL     1      -5.269   3.164  25.574  0.00  0.00    -0.273 OA
ATOM     37  N   UNL     1      -3.293   1.888  24.816  0.00  0.00    -0.227 NA
ENDROOT
BRANCH  31  33
ATOM     33  C   UNL     1      -6.105   2.007  25.507  0.00  0.00    +0.071 C 
ATOM     34  C   UNL     1      -6.844   1.653  25.600  0.00  0.00    +0.009 C 
ATOM     35  C   UNL     1      -6.148   1.882  24.692  0.00  0.00    +0.009 C 
ATOM     36  C   UNL     1      -6.062   2.132  26.321  0.00  0.00    +0.009 C 
ENDBRANCH  31  33
BRANCH  18  20
ATOM     20  C   UNL     1      -1.008   5.235  25.041  0.00  0.00    +0.184 C 
ATOM     21  O   UNL     1      -1.572   5.814  25.204  0.00  0.00    -0.220 OA
ENDBRANCH  18  20
BRANCH  13  12
ATOM     12  C   UNL     1      -1.573   1.671  24.360  0.00  0.00    +0.091 C 
BRANCH  12  10
ATOM      1  C   UNL     1      -1.534   0.108  23.832  0.00  0.00    +0.115 C 
ATOM      2  N   UNL     1      -1.477   0.272  24.638  0.00  0.00    -0.274 N 
ATOM     10  C   UNL     1      -1.497   1.054  24.902  0.00  0.00    +0.226 C 
ATOM     11  O   UNL     1      -1.440   1.219  25.708  0.00  0.00    -0.275 OA
BRANCH   2   3
ATOM      3  C   UNL     1      -1.401  -0.344  25.180  0.00  0.00    +0.120 C 
BRANCH   3   4
ATOM      4  C   UNL     1      -1.767  -1.069  25.034  0.00  0.00    -0.002 A 
ATOM      5  C   UNL     1      -1.353  -1.670  24.648  0.00  0.00    -0.003 A 
ATOM      6  C   UNL     1      -1.719  -2.395  24.502  0.00  0.00    -0.000 A 
ATOM      7  C   UNL     1      -2.499  -2.520  24.743  0.00  0.00    -0.000 A 
ATOM      8  C   UNL     1      -2.912  -1.919  25.128  0.00  0.00    -0.000 A 
ATOM      9  C   UNL     1      -2.546  -1.194  25.274  0.00  0.00    -0.003 A 
ENDBRANCH   3   4
ENDBRANCH   2   3
ENDBRANCH  12  10
ENDBRANCH  13  12
TORSDOF 6
ENDMDL
MODEL 7
REMARK VINA RESULT:     -13.6      1.923      3.986
REMARK  Name = 
REMARK  6 active torsions:
REMARK  status: ('A' for Active; 'I' for Inactive)
REMARK    1  A    between atoms: N_2  and  C_3
REMARK    2  A    between atoms: C_3  and  C_4
REMARK    3  A    between atoms: C_10  and  C_12
REMARK    4  A    between atoms: C_12  and  C_13
REMARK    5  A    between atoms: C_18  and  C_20
REMARK    6  A    between atoms: C_31  and  C_33
REMARK                            x       y       z     vdW  Elec       q    Type
REMARK                         _______ _______ _______ _____ _____    ______ ____
ROOT
ATOM     13  C   UNL     1      -1.951   0.428  24.489  0.00  0.00    +0.050 C 
ATOM     14  C   UNL     1      -1.205   0.262  24.175  0.00  0.00    +0.063 A 
ATOM     15  C   UNL     1      -0.944  -0.519  24.121  0.00  0.00    +0.023 A 
ATOM     16  C   UNL     1      -1.429  -1.134  24.382  0.00  0.00    +0.034 C 
ATOM     17  C   UNL     1      -2.173  -0.969  24.695  0.00  0.00    +0.010 C 
ATOM     18  C   UNL     1      -2.657  -1.584  24.955  0.00  0.00    +0.059 C 
ATOM     19  C   UNL     1      -2.001  -2.015  24.701  0.00  0.00    +0.005 C 
ATOM     22  C   UNL     1      -3.402  -1.419  25.269  0.00  0.00    +0.154 C 
ATOM     23  O   UNL     1      -3.886  -2.034  25.530  0.00  0.00    -0.223 OA
ATOM     24  C   UNL     1      -3.663  -0.638  25.323  0.00  0.00    +0.033 C 
ATOM     25  C   UNL     1      -3.179  -0.022  25.062  0.00  0.00    +0.003 C 
ATOM     26  C   UNL     1      -2.434  -0.188  24.749  0.00  0.00    +0.006 C 
ATOM     27  C   UNL     1      -2.695   0.593  24.802  0.00  0.00    +0.000 C 
ATOM     28  S   UNL     1      -0.188  -0.513  23.789  0.00  0.00    -0.054 S 
ATOM     29  C   UNL     1       0.017   0.271  23.638  0.00  0.00    +0.185 A 
ATOM     30  N   UNL     1       0.726   0.531  23.307  0.00  0.00    -0.154 NA
ATOM     31  C   UNL     1       1.307  -0.015  23.095  0.00  0.00    +0.246 C 
ATOM     32  O   UNL     1       1.178  -0.821  23.214  0.00  0.00    -0.273 OA
ATOM     37  N   UNL     1      -0.611   0.751  23.876  0.00  0.00    -0.227 NA
ENDROOT
BRANCH  31  33
ATOM     33  C   UNL     1       2.017   0.245  22.764  0.00  0.00    +0.071 C 
ATOM     34  C   UNL     1       2.726   0.505  22.432  0.00  0.00    +0.009 C 
ATOM     35  C   UNL     1       1.891  -0.243  22.111  0.00  0.00    +0.009 C 
ATOM     36  C   UNL     1       2.143   0.733  23.417  0.00  0.00    +0.009 C 
ENDBRANCH  31  33
BRANCH  18  20
ATOM     20  C   UNL     1      -2.913  -2.349  25.127  0.00  0.00    +0.184 C 
ATOM     21  O   UNL     1      -2.589  -2.993  24.728  0.00  0.00    -0.220 OA
ENDBRANCH  18  20
BRANCH  13  12
ATOM     12  C   UNL     1      -2.211   1.207  24.542  0.00  0.00    +0.091 C 
BRANCH  12  10
ATOM      1  C   UNL     1      -2.415   2.838  24.389  0.00  0.00    +0.115 C 
ATOM      2  N   UNL     1      -1.974   2.535  25.016  0.00  0.00    -0.274 N 
ATOM     10  C   UNL     1      -1.872   1.720  25.092  0.00  0.00    +0.226 C 
ATOM     11  O   UNL     1      -1.430   1.416  25.719  0.00  0.00    -0.275 OA
BRANCH   2   3
ATOM      3  C   UNL     1      -1.634   3.046  25.566  0.00  0.00    +0.120 C 
BRANCH   3   4
ATOM      4  C   UNL     1      -1.509   3.838  25.371  0.00  0.00    -0.002 A 
ATOM      5  C   UNL     1      -2.089   4.401  25.541  0.00  0.00    -0.003 A 
ATOM      6  C   UNL     1      -1.964   5.193  25.346  0.00  0.00    -0.000 A 
ATOM      7  C   UNL     1      -1.260   5.423  24.981  0.00  0.00    -0.000 A 
ATOM      8  C   UNL     1      -0.682   4.860  24.811  0.00  0.00    -0.000 A 
ATOM      9  C   UNL     1      -0.806   4.068  25.006  0.00  0.00    -0.003 A 
ENDBRANCH   3   4
ENDBRANCH   2   3
ENDBRANCH  12  10
ENDBRANCH  13  12
TORSDOF 6
ENDMDL
MODEL 8
REMARK VINA RESULT:     -12.9      1.467      4.492
REMARK  Name = 
REMARK  6 active torsions:
REMARK  status: ('A' for Active; 'I' for Inactive)
REMARK    1  A    between atoms: N_2  and  C_3
REMARK    2  A    between atoms: C_3  and  C_4
REMARK    3  A    between atoms: C_10  and  C_12
REMARK    4  A    between atoms: C_12  and  C_13
REMARK    5  A    between atoms: C_18  and  C_20
REMARK    6  A    between atoms: C_31  and  C_33
REMARK                            x       y       z     vdW  Elec       q    Type
REMARK                         _______ _______ _______ _____ _____    ______ ____
ROOT
ATOM     13  C   UNL     1      -1.379   1.173  24.642  0.00  0.00    +0.050 C 
ATOM     14  C   UNL     1      -1.690   0.413  24.565  0.00  0.00    +0.063 A 
ATOM     15  C   UNL     1      -1.232  -0.190  24.237  0.00  0.00    +0.023 A 
ATOM     16  C   UNL     1      -0.461  -0.032  23.988  0.00  0.00    +0.034 C 
ATOM     17  C   UNL     1      -0.150   0.727  24.065  0.00  0.00    +0.010 C 
ATOM     18  C   UNL     1       0.620   0.885  23.815  0.00  0.00    +0.059 C 
ATOM     19  C   UNL     1       0.570   0.083  23.629  0.00  0.00    +0.005 C 
ATOM     22  C   UNL     1       0.932   1.645  23.893  0.00  0.00    +0.154 C 
ATOM     23  O   UNL     1       1.703   1.803  23.643  0.00  0.00    -0.223 OA
ATOM     24  C   UNL     1       0.474   2.247  24.220  0.00  0.00    +0.033 C 
ATOM     25  C   UNL     1      -0.297   2.090  24.470  0.00  0.00    +0.003 C 
ATOM     26  C   UNL     1      -0.608   1.330  24.392  0.00  0.00    +0.006 C 
ATOM     27  C   UNL     1      -1.067   1.932  24.720  0.00  0.00    +0.000 C 
ATOM     28  S   UNL     1      -1.684  -0.880  24.231  0.00  0.00    -0.054 S 
ATOM     29  C   UNL     1      -2.422  -0.704  24.554  0.00  0.00    +0.185 A 
ATOM     30  N   UNL     1      -3.047  -1.233  24.653  0.00  0.00    -0.154 NA
ATOM     31  C   UNL     1      -2.962  -2.020  24.420  0.00  0.00    +0.246 C 
ATOM     32  O   UNL     1      -2.253  -2.276  24.087  0.00  0.00    -0.273 OA
ATOM     37  N   UNL     1      -2.427   0.095  24.760  0.00  0.00    -0.227 NA
ENDROOT
BRANCH  31  33
ATOM     33  C   UNL     1      -3.587  -2.549  24.519  0.00  0.00    +0.071 C 
ATOM     34  C   UNL     1      -4.212  -3.079  24.618  0.00  0.00    +0.009 C 
ATOM     35  C   UNL     1      -3.974  -2.214  23.872  0.00  0.00    +0.009 C 
ATOM     36  C   UNL     1      -3.200  -2.885  25.166  0.00  0.00    +0.009 C 
ENDBRANCH  31  33
BRANCH  18  20
ATOM     20  C   UNL     1       1.374   0.764  23.501  0.00  0.00    +0.184 C 
ATOM     21  O   UNL     1       1.526   0.099  23.037  0.00  0.00    -0.220 OA
ENDBRANCH  18  20
BRANCH  13  12
ATOM     12  C   UNL     1      -1.837   1.775  24.969  0.00  0.00    +0.091 C 
BRANCH  12  10
ATOM      1  C   UNL     1      -3.013   2.625  25.753  0.00  0.00    +0.115 C 
ATOM      2  N   UNL     1      -3.062   2.511  24.939  0.00  0.00    -0.274 N 
ATOM     10  C   UNL     1      -2.473   2.085  24.546  0.00  0.00    +0.226 C 
ATOM     11  O   UNL     1      -2.521   1.970  23.731  0.00  0.00    -0.275 OA
BRANCH   2   3
ATOM      3  C   UNL     1      -3.698   2.820  24.515  0.00  0.00    +0.120 C 
BRANCH   3   4
ATOM      4  C   UNL     1      -4.447   2.850  24.860  0.00  0.00    -0.002 A 
ATOM      5  C   UNL     1      -4.962   2.210  24.784  0.00  0.00    -0.003 A 
ATOM      6  C   UNL     1      -5.711   2.240  25.128  0.00  0.00    -0.000 A 
ATOM      7  C   UNL     1      -5.946   2.910  25.549  0.00  0.00    -0.000 A 
ATOM      8  C   UNL     1      -5.431   3.550  25.625  0.00  0.00    -0.000 A 
ATOM      9  C   UNL     1      -4.682   3.520  25.280  0.00  0.00    -0.003 A 
ENDBRANCH   3   4
ENDBRANCH   2   3
ENDBRANCH  12  10
ENDBRANCH  13  12
TORSDOF 6
ENDMDL
