MODEL 1
REMARK VINA RESULT:     -10.1      0.000      0.000
REMARK  Name = 
REMARK  8 active torsions:
REMARK  status: ('A' for Active; 'I' for Inactive)
REMARK    1  A    between atoms: C_2  and  N_4
REMARK    2  A    between atoms: C_5  and  C_7
REMARK    3  A    between atoms: C_7  and  C_8
REMARK    4  A    between atoms: C_8  and  C_9
REMARK    5  A    between atoms: C_16  and  N_19
REMARK    6  A    between atoms: N_19  and  C_20
REMARK    7  A    between atoms: C_20  and  C_21
REMARK    8  A    between atoms: C_24  and  C_25
REMARK                            x       y       z     vdW  Elec       q    Type
REMARK                         _______ _______ _______ _____ _____    ______ ____
ROOT
ATOM      9  C   UNL     1      -4.255   2.726  25.311  0.00  0.00    +0.080 C 
ATOM     10  C   UNL     1      -4.882   3.229  25.494  0.00  0.00    +0.131 C 
ATOM     11  N   UNL     1      -5.660   2.961  25.427  0.00  0.00    -0.203 NA
ATOM     12  C   UNL     1      -5.809   2.189  25.176  0.00  0.00    +0.256 C 
ATOM     13  O   UNL     1      -6.586   1.921  25.109  0.00  0.00    -0.272 OA
ATOM     14  C   UNL     1      -5.181   1.686  24.993  0.00  0.00    +0.138 C 
ATOM     15  C   UNL     1      -5.159   0.903  24.734  0.00  0.00    +0.044 C 
ATOM     16  C   UNL     1      -4.367   0.688  24.642  0.00  0.00    +0.091 C 
ATOM     17  C   UNL     1      -3.902   1.338  24.844  0.00  0.00    +0.090 C 
ATOM     18  N   UNL     1      -4.404   1.955  25.061  0.00  0.00    -0.265 NA
ENDROOT
BRANCH   9   8
ATOM      8  C   UNL     1      -3.478   2.995  25.379  0.00  0.00    +0.027 C 
BRANCH   8   7
ATOM      7  C   UNL     1      -3.322   3.804  25.411  0.00  0.00    +0.088 C 
BRANCH   7   5
ATOM      4  N   UNL     1      -2.134   4.382  24.867  0.00  0.00    -0.207 NA
ATOM      5  C   UNL     1      -2.549   4.072  25.509  0.00  0.00    +0.241 C 
ATOM      6  O   UNL     1      -2.189   4.030  26.251  0.00  0.00    -0.273 OA
BRANCH   4   2
ATOM      1  C   UNL     1      -1.212   5.454  25.079  0.00  0.00    +0.023 C 
ATOM      2  C   UNL     1      -1.360   4.651  24.965  0.00  0.00    +0.095 C 
ATOM      3  C   UNL     1      -0.733   4.115  24.949  0.00  0.00    +0.023 C 
ENDBRANCH   4   2
ENDBRANCH   7   5
ENDBRANCH   8   7
ENDBRANCH   9   8
BRANCH  16  19
ATOM     19  N   UNL     1      -4.092  -0.049  24.392  0.00  0.00    -0.210 NA
BRANCH  19  20
ATOM     20  C   UNL     1      -4.042  -0.674  24.928  0.00  0.00    +0.153 C 
BRANCH  20  21
ATOM     21  C   UNL     1      -3.657  -1.371  24.714  0.00  0.00    +0.140 A 
ATOM     22  C   UNL     1      -4.000  -2.017  24.334  0.00  0.00    +0.037 A 
ATOM     23  C   UNL     1      -3.415  -2.590  24.226  0.00  0.00    +0.038 A 
ATOM     24  C   UNL     1      -2.710  -2.297  24.541  0.00  0.00    +0.156 A 
ATOM     27  O   UNL     1      -2.860  -1.543  24.842  0.00  0.00    -0.458 OA
BRANCH  24  25
ATOM     25  C   UNL     1      -1.985  -2.688  24.551  0.00  0.00    +0.246 C 
ATOM     26  O   UNL     1      -1.331  -2.356  24.172  0.00  0.00    -0.212 OA
ENDBRANCH  24  25
ENDBRANCH  20  21
ENDBRANCH  19  20
ENDBRANCH  16  19
TORSDOF 8
ENDMDL
MODEL 2
REMARK VINA RESULT:      -9.3      1.057      4.883
REMARK  Name = 
REMARK  8 active torsions:
REMARK  status: ('A' for Active; 'I' for Inactive)
REMARK    1  A    between atoms: C_2  and  N_4
REMARK    2  A    between atoms: C_5  and  C_7
REMARK    3  A    between atoms: C_7  and  C_8
REMARK    4  A    between atoms: C_8  and  C_9
REMARK    5  A    between atoms: C_16  and  N_19
REMARK    6  A    between atoms: N_19  and  C_20
REMARK    7  A    between atoms: C_20  and  C_21
REMARK    8  A    between atoms: C_24  and  C_25
REMARK                            x       y       z     vdW  Elec       q    Type
REMARK                         _______ _______ _______ _____ _____    ______ ____
ROOT
ATOM      9  C   UNL     1      -4.890   1.341  25.038  0.00  0.00    +0.080 C 
ATOM     10  C   UNL     1      -5.632   1.180  25.361  0.00  0.00    +0.131 C 
ATOM     11  N   UNL     1      -6.066   1.782  25.720  0.00  0.00    -0.203 NA
ATOM     12  C   UNL     1      -5.758   2.547  25.756  0.00  0.00    +0.256 C 
ATOM     13  O   UNL     1      -6.193   3.150  26.114  0.00  0.00    -0.272 OA
ATOM     14  C   UNL     1      -5.016   2.709  25.433  0.00  0.00    +0.138 C 
ATOM     15  C   UNL     1      -4.574   3.404  25.386  0.00  0.00    +0.044 C 
ATOM     16  C   UNL     1      -3.867   3.230  24.999  0.00  0.00    +0.091 C 
ATOM     17  C   UNL     1      -3.872   2.428  24.806  0.00  0.00    +0.090 C 
ATOM     18  N   UNL     1      -4.583   2.106  25.074  0.00  0.00    -0.265 NA
ENDROOT
BRANCH   9   8
ATOM      8  C   UNL     1      -4.456   0.738  24.680  0.00  0.00    +0.027 C 
BRANCH   8   7
ATOM      7  C   UNL     1      -4.527  -0.038  24.949  0.00  0.00    +0.088 C 
BRANCH   7   5
ATOM      4  N   UNL     1      -3.880  -1.309  25.029  0.00  0.00    -0.207 NA
ATOM      5  C   UNL     1      -4.089  -0.639  24.595  0.00  0.00    +0.241 C 
ATOM      6  O   UNL     1      -3.858  -0.572  23.806  0.00  0.00    -0.273 OA
BRANCH   4   2
ATOM      1  C   UNL     1      -3.821  -2.495  24.233  0.00  0.00    +0.023 C 
ATOM      2  C   UNL     1      -3.441  -1.912  24.675  0.00  0.00    +0.095 C 
ATOM      3  C   UNL     1      -2.621  -1.930  24.763  0.00  0.00    +0.023 C 
ENDBRANCH   4   2
ENDBRANCH   7   5
ENDBRANCH   8   7
ENDBRANCH   9   8
BRANCH  16  19
ATOM     19  N   UNL     1      -3.261   3.765  24.833  0.00  0.00    -0.210 NA
BRANCH  19  20
ATOM     20  C   UNL     1      -2.704   3.949  25.414  0.00  0.00    +0.153 C 
BRANCH  20  21
ATOM     21  C   UNL     1      -1.939   4.168  25.196  0.00  0.00    +0.140 A 
ATOM     22  C   UNL     1      -1.633   4.934  25.203  0.00  0.00    +0.037 A 
ATOM     23  C   UNL     1      -0.851   4.898  24.944  0.00  0.00    +0.038 A 
ATOM     24  C   UNL     1      -0.673   4.109  24.778  0.00  0.00    +0.156 A 
ATOM     27  O   UNL     1      -1.345   3.658  24.934  0.00  0.00    -0.458 OA
BRANCH  24  25
ATOM     25  C   UNL     1       0.050   3.823  24.504  0.00  0.00    +0.246 C 
ATOM     26  O   UNL     1       0.093   3.076  24.155  0.00  0.00    -0.212 OA
ENDBRANCH  24  25
ENDBRANCH  20  21
ENDBRANCH  19  20
ENDBRANCH  16  19
TORSDOF 8
ENDMDL
MODEL 3
REMARK VINA RESULT:      -9.2      1.777      3.408
REMARK  Name = 
REMARK  8 active torsions:
REMARK  status: ('A' for Active; 'I' for Inactive)
REMARK    1  A    between atoms: C_2  and  N_4
REMARK    2  A    between atoms: C_5  and  C_7
REMARK    3  A    between atoms: C_7  and  C_8
REMARK    4  A    between atoms: C_8  and  C_9
REMARK    5  A    between atoms: C_16  and  N_19
REMARK    6  A    between atoms: N_19  and  C_20
REMARK    7  A    between atoms: C_20  and  C_21
REMARK    8  A    between atoms: C_24  and  C_25
REMARK                            x       y       z     vdW  Elec       q    Type
REMARK                         _______ _______ _______ _____ _____    ______ ____
ROOT
ATOM      9  C   UNL     1      -1.812   2.778  25.213  0.00  0.00    +0.080 C 
ATOM     10  C   UNL     1      -1.370   3.398  25.531  0.00  0.00    +0.131 C 
ATOM     11  N   UNL     1      -0.602   3.262  25.800  0.00  0.00    -0.203 NA
ATOM     12  C   UNL     1      -0.277   2.504  25.752  0.00  0.00    +0.256 C 
ATOM     13  O   UNL     1       0.491   2.368  26.022  0.00  0.00    -0.272 OA
ATOM     14  C   UNL     1      -0.719   1.885  25.434  0.00  0.00    +0.138 C 
ATOM     15  C   UNL     1      -0.546   1.087  25.316  0.00  0.00    +0.044 C 
ATOM     16  C   UNL     1      -1.207   0.730  24.974  0.00  0.00    +0.091 C 
ATOM     17  C   UNL     1      -1.788   1.308  24.880  0.00  0.00    +0.090 C 
ATOM     18  N   UNL     1      -1.487   2.022  25.165  0.00  0.00    -0.265 NA
ENDROOT
BRANCH   9   8
ATOM      8  C   UNL     1      -2.580   2.916  24.943  0.00  0.00    +0.027 C 
BRANCH   8   7
ATOM      7  C   UNL     1      -3.071   3.441  25.346  0.00  0.00    +0.088 C 
BRANCH   7   5
ATOM      4  N   UNL     1      -4.437   3.298  25.741  0.00  0.00    -0.207 NA
ATOM      5  C   UNL     1      -3.874   3.477  25.164  0.00  0.00    +0.241 C 
ATOM      6  O   UNL     1      -4.115   3.692  24.405  0.00  0.00    -0.273 OA
BRANCH   4   2
ATOM      1  C   UNL     1      -5.655   2.644  25.378  0.00  0.00    +0.023 C 
ATOM      2  C   UNL     1      -5.241   3.334  25.559  0.00  0.00    +0.095 C 
ATOM      3  C   UNL     1      -5.631   4.061  25.558  0.00  0.00    +0.023 C 
ENDBRANCH   4   2
ENDBRANCH   7   5
ENDBRANCH   8   7
ENDBRANCH   9   8
BRANCH  16  19
ATOM     19  N   UNL     1      -1.274  -0.064  24.762  0.00  0.00    -0.210 NA
BRANCH  19  20
ATOM     20  C   UNL     1      -1.594  -0.607  25.296  0.00  0.00    +0.153 C 
BRANCH  20  21
ATOM     21  C   UNL     1      -1.904  -1.320  25.021  0.00  0.00    +0.140 A 
ATOM     22  C   UNL     1      -1.478  -1.926  24.658  0.00  0.00    +0.037 A 
ATOM     23  C   UNL     1      -2.005  -2.534  24.474  0.00  0.00    +0.038 A 
ATOM     24  C   UNL     1      -2.757  -2.303  24.723  0.00  0.00    +0.156 A 
ATOM     27  O   UNL     1      -2.695  -1.553  25.061  0.00  0.00    -0.458 OA
BRANCH  24  25
ATOM     25  C   UNL     1      -3.449  -2.744  24.647  0.00  0.00    +0.246 C 
ATOM     26  O   UNL     1      -3.964  -2.600  24.019  0.00  0.00    -0.212 OA
ENDBRANCH  24  25
ENDBRANCH  20  21
ENDBRANCH  19  20
ENDBRANCH  16  19
TORSDOF 8
ENDMDL
MODEL 4
REMARK VINA RESULT:      -8.7      2.432      6.268
REMARK  Name = 
REMARK  8 active torsions:
REMARK  status: ('A' for Active; 'I' for Inactive)
REMARK    1  A    between atoms: C_2  and  N_4
REMARK    2  A    between atoms: C_5  and  C_7
REMARK    3  A    between atoms: C_7  and  C_8
REMARK    4  A    between atoms: C_8  and  C_9
REMARK    5  A    between atoms: C_16  and  N_19
REMARK    6  A    between atoms: N_19  and  C_20
REMARK    7  A    between atoms: C_20  and  C_21
REMARK    8  A    between atoms: C_24  and  C_25
REMARK                            x       y       z     vdW  Elec       q    Type
REMARK                         _______ _______ _______ _____ _____    ______ ____
ROOT
ATOM      9  C   UNL     1      -0.510  -0.318  24.252  0.00  0.00    +0.080 C 
ATOM     10  C   UNL     1      -0.041  -0.814  23.789  0.00  0.00    +0.131 C 
ATOM     11  N   UNL     1       0.617  -0.511  23.394  0.00  0.00    -0.203 NA
ATOM     12  C   UNL     1       0.805   0.290  23.462  0.00  0.00    +0.256 C 
ATOM     13  O   UNL     1       1.462   0.594  23.067  0.00  0.00    -0.272 OA
ATOM     14  C   UNL     1       0.335   0.787  23.924  0.00  0.00    +0.138 C 
ATOM     15  C   UNL     1       0.384   1.593  24.093  0.00  0.00    +0.044 C 
ATOM     16  C   UNL     1      -0.243   1.787  24.593  0.00  0.00    +0.091 C 
ATOM     17  C   UNL     1      -0.679   1.101  24.732  0.00  0.00    +0.090 C 
ATOM     18  N   UNL     1      -0.322   0.482  24.319  0.00  0.00    -0.265 NA
ENDROOT
BRANCH   9   8
ATOM      8  C   UNL     1      -1.168  -0.622  24.646  0.00  0.00    +0.027 C 
BRANCH   8   7
ATOM      7  C   UNL     1      -1.437  -1.382  24.474  0.00  0.00    +0.088 C 
BRANCH   7   5
ATOM      4  N   UNL     1      -2.672  -2.037  24.178  0.00  0.00    -0.207 NA
ATOM      5  C   UNL     1      -2.196  -1.612  24.701  0.00  0.00    +0.241 C 
ATOM      6  O   UNL     1      -2.479  -1.417  25.451  0.00  0.00    -0.273 OA
BRANCH   4   2
ATOM      1  C   UNL     1      -3.537  -2.932  24.880  0.00  0.00    +0.023 C 
ATOM      2  C   UNL     1      -3.432  -2.267  24.404  0.00  0.00    +0.095 C 
ATOM      3  C   UNL     1      -4.086  -1.831  24.155  0.00  0.00    +0.023 C 
ENDBRANCH   4   2
ENDBRANCH   7   5
ENDBRANCH   8   7
ENDBRANCH   9   8
BRANCH  16  19
ATOM     19  N   UNL     1      -0.405   2.536  24.899  0.00  0.00    -0.210 NA
BRANCH  19  20
ATOM     20  C   UNL     1      -0.806   3.091  24.438  0.00  0.00    +0.153 C 
BRANCH  20  21
ATOM     21  C   UNL     1      -1.201   3.718  24.799  0.00  0.00    +0.140 A 
ATOM     22  C   UNL     1      -0.907   4.482  24.903  0.00  0.00    +0.037 A 
ATOM     23  C   UNL     1      -1.484   4.927  25.289  0.00  0.00    +0.038 A 
ATOM     24  C   UNL     1      -2.136   4.438  25.424  0.00  0.00    +0.156 A 
ATOM     27  O   UNL     1      -1.960   3.691  25.121  0.00  0.00    -0.458 OA
BRANCH  24  25
ATOM     25  C   UNL     1      -2.838   4.658  25.796  0.00  0.00    +0.246 C 
ATOM     26  O   UNL     1      -3.095   4.251  26.466  0.00  0.00    -0.212 OA
ENDBRANCH  24  25
ENDBRANCH  20  21
ENDBRANCH  19  20
ENDBRANCH  16  19
TORSDOF 8
ENDMDL
MODEL 5
REMARK VINA RESULT:      -8.6      2.178      4.890
REMARK  Name = 
REMARK  8 active torsions:
REMARK  status: ('A' for Active; 'I' for Inactive)
REMARK    1  A    between atoms: C_2  and  N_4
REMARK    2  A    between atoms: C_5  and  C_7
REMARK    3  A    between atoms: C_7  and  C_8
REMARK    4  A    between atoms: C_8  and  C_9
REMARK    5  A    between atoms: C_16  and  N_19
REMARK    6  A    between atoms: N_19  and  C_20
REMARK    7  A    between atoms: C_20  and  C_21
REMARK    8  A    between atoms: C_24  and  C_25
REMARK                            x       y       z     vdW  Elec       q    Type
REMARK                         _______ _______ _______ _____ _____    ______ ____
ROOT
ATOM      9  C   UNL     1      -1.981  -1.506  24.648  0.00  0.00    +0.080 C 
ATOM     10  C   UNL     1      -1.876  -2.299  24.447  0.00  0.00    +0.131 C 
ATOM     11  N   UNL     1      -2.529  -2.800  24.389  0.00  0.00    -0.203 NA
ATOM     12  C   UNL     1      -3.287  -2.507  24.534  0.00  0.00    +0.256 C 
ATOM     13  O   UNL     1      -3.940  -3.009  24.477  0.00  0.00    -0.272 OA
ATOM     14  C   UNL     1      -3.392  -1.714  24.736  0.00  0.00    +0.138 C 
ATOM     15  C   UNL     1      -4.068  -1.273  24.909  0.00  0.00    +0.044 C 
ATOM     16  C   UNL     1      -3.832  -0.500  25.073  0.00  0.00    +0.091 C 
ATOM     17  C   UNL     1      -3.011  -0.463  25.001  0.00  0.00    +0.090 C 
ATOM     18  N   UNL     1      -2.739  -1.214  24.793  0.00  0.00    -0.265 NA
ENDROOT
BRANCH   9   8
ATOM      8  C   UNL     1      -1.328  -1.005  24.705  0.00  0.00    +0.027 C 
BRANCH   8   7
ATOM      7  C   UNL     1      -0.659  -1.145  24.245  0.00  0.00    +0.088 C 
BRANCH   7   5
ATOM      4  N   UNL     1       0.225  -0.434  23.376  0.00  0.00    -0.207 NA
ATOM      5  C   UNL     1      -0.108  -0.544  24.123  0.00  0.00    +0.241 C 
ATOM      6  O   UNL     1       0.111  -0.053  24.749  0.00  0.00    -0.273 OA
BRANCH   4   2
ATOM      1  C   UNL     1       1.545  -0.017  23.019  0.00  0.00    +0.023 C 
ATOM      2  C   UNL     1       0.777   0.168  23.254  0.00  0.00    +0.095 C 
ATOM      3  C   UNL     1       0.559   0.956  23.367  0.00  0.00    +0.023 C 
ENDBRANCH   4   2
ENDBRANCH   7   5
ENDBRANCH   8   7
ENDBRANCH   9   8
BRANCH  16  19
ATOM     19  N   UNL     1      -4.330   0.126  25.273  0.00  0.00    -0.210 NA
BRANCH  19  20
ATOM     20  C   UNL     1      -4.456   0.741  24.736  0.00  0.00    +0.153 C 
BRANCH  20  21
ATOM     21  C   UNL     1      -4.868   1.415  24.971  0.00  0.00    +0.140 A 
ATOM     22  C   UNL     1      -5.688   1.491  25.021  0.00  0.00    +0.037 A 
ATOM     23  C   UNL     1      -5.858   2.256  25.279  0.00  0.00    +0.038 A 
ATOM     24  C   UNL     1      -5.143   2.653  25.389  0.00  0.00    +0.156 A 
ATOM     27  O   UNL     1      -4.531   2.134  25.199  0.00  0.00    -0.458 OA
BRANCH  24  25
ATOM     25  C   UNL     1      -5.056   3.432  25.644  0.00  0.00    +0.246 C 
ATOM     26  O   UNL     1      -5.719   3.918  25.721  0.00  0.00    -0.212 OA
ENDBRANCH  24  25
ENDBRANCH  20  21
ENDBRANCH  19  20
ENDBRANCH  16  19
TORSDOF 8
ENDMDL
MODEL 6
REMARK VINA RESULT:      -8.4      2.433      3.858
REMARK  Name = 
REMARK  8 active torsions:
REMARK  status: ('A' for Active; 'I' for Inactive)
REMARK    1  A    between atoms: C_2  and  N_4
REMARK    2  A    between atoms: C_5  and  C_7
REMARK    3  A    between atoms: C_7  and  C_8
REMARK    4  A    between atoms: C_8  and  C_9
REMARK    5  A    between atoms: C_16  and  N_19
REMARK    6  A    between atoms: N_19  and  C_20
REMARK    7  A    between atoms: C_20  and  C_21
REMARK    8  A    between atoms: C_24  and  C_25
REMARK                            x       y       z     vdW  Elec       q    Type
REMARK                         _______ _______ _______ _____ _____    ______ ____
ROOT
ATOM      9  C   UNL     1       0.050   1.514  24.378  0.00  0.00    +0.080 C 
ATOM     10  C   UNL     1       0.698   1.753  23.926  0.00  0.00    +0.131 C 
ATOM     11  N   UNL     1       1.091   1.209  23.447  0.00  0.00    -0.203 NA
ATOM     12  C   UNL     1       0.835   0.424  23.419  0.00  0.00    +0.256 C 
ATOM     13  O   UNL     1       1.228  -0.120  22.940  0.00  0.00    -0.272 OA
ATOM     14  C   UNL     1       0.187   0.185  23.870  0.00  0.00    +0.138 C 
ATOM     15  C   UNL     1      -0.187  -0.545  23.955  0.00  0.00    +0.044 C 
ATOM     16  C   UNL     1      -0.812  -0.451  24.486  0.00  0.00    +0.091 C 
ATOM     17  C   UNL     1      -0.822   0.337  24.730  0.00  0.00    +0.090 C 
ATOM     18  N   UNL     1      -0.205   0.731  24.349  0.00  0.00    -0.265 NA
ENDROOT
BRANCH   9   8
ATOM      8  C   UNL     1      -0.342   2.060  24.857  0.00  0.00    +0.027 C 
BRANCH   8   7
ATOM      7  C   UNL     1      -0.318   2.863  24.673  0.00  0.00    +0.088 C 
BRANCH   7   5
ATOM      4  N   UNL     1      -1.273   3.924  24.747  0.00  0.00    -0.207 NA
ATOM      5  C   UNL     1      -0.754   3.401  25.120  0.00  0.00    +0.241 C 
ATOM      6  O   UNL     1      -0.671   3.419  25.941  0.00  0.00    -0.273 OA
BRANCH   4   2
ATOM      1  C   UNL     1      -2.361   4.207  25.629  0.00  0.00    +0.023 C 
ATOM      2  C   UNL     1      -1.709   4.463  25.195  0.00  0.00    +0.095 C 
ATOM      3  C   UNL     1      -1.492   5.259  25.206  0.00  0.00    +0.023 C 
ENDBRANCH   4   2
ENDBRANCH   7   5
ENDBRANCH   8   7
ENDBRANCH   9   8
BRANCH  16  19
ATOM     19  N   UNL     1      -1.333  -1.042  24.730  0.00  0.00    -0.210 NA
BRANCH  19  20
ATOM     20  C   UNL     1      -2.129  -0.862  24.860  0.00  0.00    +0.153 C 
BRANCH  20  21
ATOM     21  C   UNL     1      -2.689  -1.467  24.882  0.00  0.00    +0.140 A 
ATOM     22  C   UNL     1      -2.998  -1.817  25.561  0.00  0.00    +0.037 A 
ATOM     23  C   UNL     1      -3.539  -2.395  25.327  0.00  0.00    +0.038 A 
ATOM     24  C   UNL     1      -3.564  -2.401  24.501  0.00  0.00    +0.156 A 
ATOM     27  O   UNL     1      -3.039  -1.827  24.226  0.00  0.00    -0.458 OA
BRANCH  24  25
ATOM     25  C   UNL     1      -4.032  -2.893  24.034  0.00  0.00    +0.246 C 
ATOM     26  O   UNL     1      -4.635  -2.572  23.572  0.00  0.00    -0.212 OA
ENDBRANCH  24  25
ENDBRANCH  20  21
ENDBRANCH  19  20
ENDBRANCH  16  19
TORSDOF 8
ENDMDL
MODEL 7
REMARK VINA RESULT:      -8.3      1.816      3.820
REMARK  Name = 
REMARK  8 active torsions:
REMARK  status: ('A' for Active; 'I' for Inactive)
REMARK    1  A    between atoms: C_2  and  N_4
REMARK    2  A    between atoms: C_5  and  C_7
REMARK    3  A    between atoms: C_7  and  C_8
REMARK    4  A    between atoms: C_8  and  C_9
REMARK    5  A    between atoms: C_16  and  N_19
REMARK    6  A    between atoms: N_19  and  C_20
REMARK    7  A    between atoms: C_20  and  C_21
REMARK    8  A    between atoms: C_24  and  C_25
REMARK                            x       y       z     vdW  Elec       q    Type
REMARK                         _______ _______ _______ _____ _____    ______ ____
ROOT
ATOM      9  C   UNL     1      -2.454   3.838  25.510  0.00  0.00    +0.080 C 
ATOM     10  C   UNL     1      -2.434   4.662  25.483  0.00  0.00    +0.131 C 
ATOM     11  N   UNL     1      -1.748   5.052  25.240  0.00  0.00    -0.203 NA
ATOM     12  C   UNL     1      -1.081   4.615  25.025  0.00  0.00    +0.256 C 
ATOM     13  O   UNL     1      -0.395   5.004  24.783  0.00  0.00    -0.272 OA
ATOM     14  C   UNL     1      -1.101   3.791  25.052  0.00  0.00    +0.138 C 
ATOM     15  C   UNL     1      -0.534   3.219  24.873  0.00  0.00    +0.044 C 
ATOM     16  C   UNL     1      -0.870   2.477  25.006  0.00  0.00    +0.091 C 
ATOM     17  C   UNL     1      -1.644   2.591  25.266  0.00  0.00    +0.090 C 
ATOM     18  N   UNL     1      -1.787   3.403  25.294  0.00  0.00    -0.265 NA
ENDROOT
BRANCH   9   8
ATOM      8  C   UNL     1      -3.140   3.450  25.752  0.00  0.00    +0.027 C 
BRANCH   8   7
ATOM      7  C   UNL     1      -3.865   3.637  25.406  0.00  0.00    +0.088 C 
BRANCH   7   5
ATOM      4  N   UNL     1      -4.821   2.689  24.928  0.00  0.00    -0.207 NA
ATOM      5  C   UNL     1      -4.521   3.157  25.538  0.00  0.00    +0.241 C 
ATOM      6  O   UNL     1      -4.880   3.144  26.281  0.00  0.00    -0.273 OA
BRANCH   4   2
ATOM      1  C   UNL     1      -6.222   2.546  25.170  0.00  0.00    +0.023 C 
ATOM      2  C   UNL     1      -5.478   2.208  25.060  0.00  0.00    +0.095 C 
ATOM      3  C   UNL     1      -5.391   1.388  25.082  0.00  0.00    +0.023 C 
ENDBRANCH   4   2
ENDBRANCH   7   5
ENDBRANCH   8   7
ENDBRANCH   9   8
BRANCH  16  19
ATOM     19  N   UNL     1      -0.496   1.750  24.897  0.00  0.00    -0.210 NA
BRANCH  19  20
ATOM     20  C   UNL     1      -0.767   1.230  24.316  0.00  0.00    +0.153 C 
BRANCH  20  21
ATOM     21  C   UNL     1      -0.557   0.432  24.347  0.00  0.00    +0.140 A 
ATOM     22  C   UNL     1      -0.031   0.050  23.840  0.00  0.00    +0.037 A 
ATOM     23  C   UNL     1       0.015  -0.741  24.069  0.00  0.00    +0.038 A 
ATOM     24  C   UNL     1      -0.484  -0.847  24.719  0.00  0.00    +0.156 A 
ATOM     27  O   UNL     1      -0.837  -0.122  24.891  0.00  0.00    -0.458 OA
BRANCH  24  25
ATOM     25  C   UNL     1      -0.606  -1.554  25.126  0.00  0.00    +0.246 C 
ATOM     26  O   UNL     1      -1.196  -2.076  24.878  0.00  0.00    -0.212 OA
ENDBRANCH  24  25
ENDBRANCH  20  21
ENDBRANCH  19  20
ENDBRANCH  16  19
TORSDOF 8
ENDMDL
MODEL 8
REMARK VINA RESULT:      -8.2      1.924      5.325
REMARK  Name = 
REMARK  8 active torsions:
REMARK  status: ('A' for Active; 'I' for Inactive)
REMARK    1  A    between atoms: C_2  and  N_4
REMARK    2  A    between atoms: C_5  and  C_7
REMARK    3  A    between atoms: C_7  and  C_8
REMARK    4  A    between atoms: C_8  and  C_9
REMARK    5  A    between atoms: C_16  and  N_19
REMARK    6  A    between atoms: N_19  and  C_20
REMARK    7  A    between atoms: C_20  and  C_21
REMARK    8  A    between atoms: C_24  and  C_25
REMARK                            x       y       z     vdW  Elec       q    Type
REMARK                         _______ _______ _______ _____ _____    ______ ____
ROOT
ATOM      9  C   UNL     1      -0.675   1.215  24.886  0.00  0.00    +0.080 C 
ATOM     10  C   UNL     1       0.081   1.314  24.570  0.00  0.00    +0.131 C 
ATOM     11  N   UNL     1       0.324   2.056  24.306  0.00  0.00    -0.203 NA
ATOM     12  C   UNL     1      -0.189   2.701  24.358  0.00  0.00    +0.256 C 
ATOM     13  O   UNL     1       0.054   3.444  24.093  0.00  0.00    -0.272 OA
ATOM     14  C   UNL     1      -0.945   2.603  24.674  0.00  0.00    +0.138 C 
ATOM     15  C   UNL     1      -1.566   3.132  24.794  0.00  0.00    +0.044 C 
ATOM     16  C   UNL     1      -2.193   2.715  25.133  0.00  0.00    +0.091 C 
ATOM     17  C   UNL     1      -1.959   1.930  25.221  0.00  0.00    +0.090 C 
ATOM     18  N   UNL     1      -1.187   1.859  24.938  0.00  0.00    -0.265 NA
ENDROOT
BRANCH   9   8
ATOM      8  C   UNL     1      -0.918   0.472  25.150  0.00  0.00    +0.027 C 
BRANCH   8   7
ATOM      7  C   UNL     1      -0.699  -0.205  24.734  0.00  0.00    +0.088 C 
BRANCH   7   5
ATOM      4  N   UNL     1      -1.566  -1.290  24.398  0.00  0.00    -0.207 NA
ATOM      5  C   UNL     1      -1.039  -0.932  24.922  0.00  0.00    +0.241 C 
ATOM      6  O   UNL     1      -0.852  -1.303  25.635  0.00  0.00    -0.273 OA
BRANCH   4   2
ATOM      1  C   UNL     1      -1.486  -2.716  24.458  0.00  0.00    +0.023 C 
ATOM      2  C   UNL     1      -1.906  -2.018  24.585  0.00  0.00    +0.095 C 
ATOM      3  C   UNL     1      -2.668  -2.048  24.900  0.00  0.00    +0.023 C 
ENDBRANCH   4   2
ENDBRANCH   7   5
ENDBRANCH   8   7
ENDBRANCH   9   8
BRANCH  16  19
ATOM     19  N   UNL     1      -2.925   3.031  25.345  0.00  0.00    -0.210 NA
BRANCH  19  20
ATOM     20  C   UNL     1      -3.550   3.021  24.805  0.00  0.00    +0.153 C 
BRANCH  20  21
ATOM     21  C   UNL     1      -4.329   3.025  25.077  0.00  0.00    +0.140 A 
ATOM     22  C   UNL     1      -4.733   3.676  25.383  0.00  0.00    +0.037 A 
ATOM     23  C   UNL     1      -5.494   3.432  25.586  0.00  0.00    +0.038 A 
ATOM     24  C   UNL     1      -5.561   2.629  25.406  0.00  0.00    +0.156 A 
ATOM     27  O   UNL     1      -4.841   2.377  25.092  0.00  0.00    -0.458 OA
BRANCH  24  25
ATOM     25  C   UNL     1      -6.230   2.161  25.520  0.00  0.00    +0.246 C 
ATOM     26  O   UNL     1      -6.552   1.740  24.887  0.00  0.00    -0.212 OA
ENDBRANCH  24  25
ENDBRANCH  20  21
ENDBRANCH  19  20
ENDBRANCH  16  19
TORSDOF 8
ENDMDL
MODEL 9
REMARK VINA RESULT:      -8.1      2.804      4.736
REMARK  Name = 
REMARK  8 active torsions:
REMARK  status: ('A' for Active; 'I' for Inactive)
REMARK    1  A    between atoms: C_2  and  N_4
REMARK    2  A    between atoms: C_5  and  C_7
REMARK    3  A    between atoms: C_7  and  C_8
REMARK    4  A    between atoms: C_8  and  C_9
REMARK    5  A    between atoms: C_16  and  N_19
REMARK    6  A    between atoms: N_19  and  C_20
REMARK    7  A    between atoms: C_20  and  C_21
REMARK    8  A    between atoms: C_24  and  C_25
REMARK                            x       y       z     vdW  Elec       q    Type
REMARK                         _______ _______ _______ _____ _____    ______ ____
ROOT
ATOM      9  C   UNL     1      -3.226  -0.610  24.752  0.00  0.00    +0.080 C 
ATOM     10  C   UNL     1      -3.712  -1.260  24.898  0.00  0.00    +0.131 C 
ATOM     11  N   UNL     1      -3.389  -2.019  24.930  0.00  0.00    -0.203 NA
ATOM     12  C   UNL     1      -2.578  -2.126  24.815  0.00  0.00    +0.256 C 
ATOM     13  O   UNL     1      -2.255  -2.884  24.847  0.00  0.00    -0.272 OA
ATOM     14  C   UNL     1      -2.092  -1.476  24.669  0.00  0.00    +0.138 C 
ATOM     15  C   UNL     1      -1.281  -1.412  24.536  0.00  0.00    +0.044 C 
ATOM     16  C   UNL     1      -1.103  -0.614  24.421  0.00  0.00    +0.091 C 
ATOM     17  C   UNL     1      -1.805  -0.186  24.484  0.00  0.00    +0.090 C 
ATOM     18  N   UNL     1      -2.417  -0.718  24.637  0.00  0.00    -0.265 NA
ENDROOT
BRANCH   9   8
ATOM      8  C   UNL     1      -3.551   0.148  24.720  0.00  0.00    +0.027 C 
BRANCH   8   7
ATOM      7  C   UNL     1      -4.302   0.289  25.029  0.00  0.00    +0.088 C 
BRANCH   7   5
ATOM      4  N   UNL     1      -5.237   1.279  25.462  0.00  0.00    -0.207 NA
ATOM      5  C   UNL     1      -4.656   1.027  24.933  0.00  0.00    +0.241 C 
ATOM      6  O   UNL     1      -4.429   1.515  24.307  0.00  0.00    -0.273 OA
BRANCH   4   2
ATOM      1  C   UNL     1      -5.276   2.679  25.742  0.00  0.00    +0.023 C 
ATOM      2  C   UNL     1      -5.592   2.018  25.366  0.00  0.00    +0.095 C 
ATOM      3  C   UNL     1      -6.263   2.094  24.892  0.00  0.00    +0.023 C 
ENDBRANCH   4   2
ENDBRANCH   7   5
ENDBRANCH   8   7
ENDBRANCH   9   8
BRANCH  16  19
ATOM     19  N   UNL     1      -0.355  -0.301  24.271  0.00  0.00    -0.210 NA
BRANCH  19  20
ATOM     20  C   UNL     1      -0.127  -0.132  23.495  0.00  0.00    +0.153 C 
BRANCH  20  21
ATOM     21  C   UNL     1       0.634   0.145  23.341  0.00  0.00    +0.140 A 
ATOM     22  C   UNL     1       0.967   0.839  23.637  0.00  0.00    +0.037 A 
ATOM     23  C   UNL     1       1.735   0.899  23.342  0.00  0.00    +0.038 A 
ATOM     24  C   UNL     1       1.877   0.242  22.863  0.00  0.00    +0.156 A 
ATOM     27  O   UNL     1       1.196  -0.224  22.862  0.00  0.00    -0.458 OA
BRANCH  24  25
ATOM     25  C   UNL     1       2.576   0.080  22.456  0.00  0.00    +0.246 C 
ATOM     26  O   UNL     1       3.243   0.550  22.580  0.00  0.00    -0.212 OA
ENDBRANCH  24  25
ENDBRANCH  20  21
ENDBRANCH  19  20
ENDBRANCH  16  19
TORSDOF 8
ENDMDL
MODEL 10
REMARK VINA RESULT:      -7.2     16.386     19.351
REMARK  Name = 
REMARK  8 active torsions:
REMARK  status: ('A' for Active; 'I' for Inactive)
REMARK    1  A    between atoms: C_2  and  N_4
REMARK    2  A    between atoms: C_5  and  C_7
REMARK    3  A    between atoms: C_7  and  C_8
REMARK    4  A    between atoms: C_8  and  C_9
REMARK    5  A    between atoms: C_16  and  N_19
REMARK    6  A    between atoms: N_19  and  C_20
REMARK    7  A    between atoms: C_20  and  C_21
REMARK    8  A    between atoms: C_24  and  C_25
REMARK                            x       y       z     vdW  Elec       q    Type
REMARK                         _______ _______ _______ _____ _____    ______ ____
ROOT
ATOM      9  C   UNL     1      12.171   8.469  18.707  0.00  0.00    +0.080 C 
ATOM     10  C   UNL     1      11.619   8.624  18.114  0.00  0.00    +0.131 C 
ATOM     11  N   UNL     1      11.837   8.562  17.321  0.00  0.00    -0.203 NA
ATOM     12  C   UNL     1      12.608   8.344  17.121  0.00  0.00    +0.256 C 
ATOM     13  O   UNL     1      12.826   8.282  16.328  0.00  0.00    -0.272 OA
ATOM     14  C   UNL     1      13.160   8.189  17.714  0.00  0.00    +0.138 C 
ATOM     15  C   UNL     1      13.953   7.965  17.685  0.00  0.00    +0.044 C 
ATOM     16  C   UNL     1      14.225   7.889  18.461  0.00  0.00    +0.091 C 
ATOM     17  C   UNL     1      13.600   8.066  18.968  0.00  0.00    +0.090 C 
ATOM     18  N   UNL     1      12.941   8.251  18.507  0.00  0.00    -0.265 NA
ENDROOT
BRANCH   9   8
ATOM      8  C   UNL     1      11.952   8.531  19.500  0.00  0.00    +0.027 C 
BRANCH   8   7
ATOM      7  C   UNL     1      11.185   8.340  19.733  0.00  0.00    +0.088 C 
BRANCH   7   5
ATOM      4  N   UNL     1      10.937   7.627  20.946  0.00  0.00    -0.207 NA
ATOM      5  C   UNL     1      10.984   8.339  20.533  0.00  0.00    +0.241 C 
ATOM      6  O   UNL     1      10.831   9.051  20.920  0.00  0.00    -0.273 OA
BRANCH   4   2
ATOM      1  C   UNL     1      10.007   7.327  21.989  0.00  0.00    +0.023 C 
ATOM      2  C   UNL     1      10.736   7.625  21.747  0.00  0.00    +0.095 C 
ATOM      3  C   UNL     1      11.266   7.923  22.305  0.00  0.00    +0.023 C 
ENDBRANCH   4   2
ENDBRANCH   7   5
ENDBRANCH   8   7
ENDBRANCH   9   8
BRANCH  16  19
ATOM     19  N   UNL     1      14.989   7.673  18.687  0.00  0.00    -0.210 NA
BRANCH  19  20
ATOM     20  C   UNL     1      15.132   6.918  18.989  0.00  0.00    +0.153 C 
BRANCH  20  21
ATOM     21  C   UNL     1      15.864   6.740  19.324  0.00  0.00    +0.140 A 
ATOM     22  C   UNL     1      16.427   6.225  19.013  0.00  0.00    +0.037 A 
ATOM     23  C   UNL     1      17.073   6.213  19.526  0.00  0.00    +0.038 A 
ATOM     24  C   UNL     1      16.909   6.722  20.154  0.00  0.00    +0.156 A 
ATOM     27  O   UNL     1      16.162   7.048  20.029  0.00  0.00    -0.458 OA
BRANCH  24  25
ATOM     25  C   UNL     1      17.405   6.878  20.795  0.00  0.00    +0.246 C 
ATOM     26  O   UNL     1      17.355   6.416  21.477  0.00  0.00    -0.212 OA
ENDBRANCH  24  25
ENDBRANCH  20  21
ENDBRANCH  19  20
ENDBRANCH  16  19
TORSDOF 8
ENDMDL
