MODEL 1
REMARK VINA RESULT:      -7.9      0.000      0.000
REMARK  Name = 
REMARK  8 active torsions:
REMARK  status: ('A' for Active; 'I' for Inactive)
REMARK    1  A    between atoms: O_2  and  C_3
REMARK    2  A    between atoms: C_3  and  C_4
REMARK    3  A    between atoms: C_4  and  N_5
REMARK    4  A    between atoms: N_5  and  C_6
REMARK    5  A    between atoms: C_9  and  C_12
REMARK    6  A    between atoms: C_15  and  C_17
REMARK    7  A    between atoms: N_21  and  C_22
REMARK    8  A    between atoms: C_22  and  C_23
REMARK                            x       y       z     vdW  Elec       q    Type
REMARK                         _______ _______ _______ _____ _____    ______ ____
ROOT
ATOM     12  C   UNL     1      -1.196   0.206  24.550  0.00  0.00    +0.205 A 
ATOM     13  N   UNL     1      -1.243   0.171  25.373  0.00  0.00    -0.056 NA
ATOM     14  O   UNL     1      -2.037   0.242  25.586  0.00  0.00    -0.336 OA
ATOM     15  C   UNL     1      -2.481   0.320  24.895  0.00  0.00    +0.251 A 
ATOM     16  N   UNL     1      -1.961   0.298  24.255  0.00  0.00    -0.190 NA
ENDROOT
BRANCH  12   9
ATOM      6  C   UNL     1       0.875   0.060  23.203  0.00  0.00    +0.148 A 
ATOM      7  C   UNL     1       0.520  -0.627  23.487  0.00  0.00    +0.036 A 
ATOM      8  C   UNL     1      -0.171  -0.578  23.937  0.00  0.00    +0.008 A 
ATOM      9  C   UNL     1      -0.505   0.157  24.101  0.00  0.00    +0.058 A 
ATOM     10  C   UNL     1      -0.149   0.845  23.815  0.00  0.00    +0.103 A 
ATOM     11  N   UNL     1       0.541   0.797  23.366  0.00  0.00    -0.228 NA
BRANCH   6   5
ATOM      5  N   UNL     1       1.566   0.011  22.753  0.00  0.00    -0.218 NA
BRANCH   5   4
ATOM      4  C   UNL     1       2.257   0.377  23.018  0.00  0.00    +0.146 C 
BRANCH   4   3
ATOM      3  C   UNL     1       2.960   0.283  22.597  0.00  0.00    +0.166 C 
BRANCH   3   2
ATOM      1  C   UNL     1       4.357   0.539  22.755  0.00  0.00    +0.174 C 
ATOM      2  O   UNL     1       3.581   0.816  22.708  0.00  0.00    -0.349 OA
ENDBRANCH   3   2
ENDBRANCH   4   3
ENDBRANCH   5   4
ENDBRANCH   6   5
ENDBRANCH  12   9
BRANCH  15  17
ATOM     17  C   UNL     1      -3.300   0.406  24.852  0.00  0.00    +0.138 C 
ATOM     18  C   UNL     1      -3.847  -0.207  24.783  0.00  0.00    +0.027 C 
ATOM     19  C   UNL     1      -4.602   0.128  24.759  0.00  0.00    +0.019 C 
ATOM     20  C   UNL     1      -4.519   0.947  24.814  0.00  0.00    +0.073 C 
ATOM     21  N   UNL     1      -3.715   1.118  24.872  0.00  0.00    -0.260 NA
BRANCH  21  22
ATOM     22  C   UNL     1      -3.384   1.871  24.937  0.00  0.00    +0.139 C 
BRANCH  22  23
ATOM     23  C   UNL     1      -3.871   2.535  24.965  0.00  0.00    +0.155 A 
ATOM     24  N   UNL     1      -4.192   2.874  25.645  0.00  0.00    -0.226 NA
ATOM     25  C   UNL     1      -4.643   3.526  25.419  0.00  0.00    +0.121 A 
ATOM     26  C   UNL     1      -4.601   3.591  24.597  0.00  0.00    +0.121 A 
ATOM     27  N   UNL     1      -4.124   2.978  24.317  0.00  0.00    -0.226 NA
ENDBRANCH  22  23
ENDBRANCH  21  22
ENDBRANCH  15  17
TORSDOF 8
ENDMDL
MODEL 2
REMARK VINA RESULT:      -7.4      2.478      3.816
REMARK  Name = 
REMARK  8 active torsions:
REMARK  status: ('A' for Active; 'I' for Inactive)
REMARK    1  A    between atoms: O_2  and  C_3
REMARK    2  A    between atoms: C_3  and  C_4
REMARK    3  A    between atoms: C_4  and  N_5
REMARK    4  A    between atoms: N_5  and  C_6
REMARK    5  A    between atoms: C_9  and  C_12
REMARK    6  A    between atoms: C_15  and  C_17
REMARK    7  A    between atoms: N_21  and  C_22
REMARK    8  A    between atoms: C_22  and  C_23
REMARK                            x       y       z     vdW  Elec       q    Type
REMARK                         _______ _______ _______ _____ _____    ______ ____
ROOT
ATOM     12  C   UNL     1      -0.659   1.672  25.391  0.00  0.00    +0.205 A 
ATOM     13  N   UNL     1      -0.059   1.993  25.857  0.00  0.00    -0.056 NA
ATOM     14  O   UNL     1      -0.167   2.810  25.886  0.00  0.00    -0.336 OA
ATOM     15  C   UNL     1      -0.835   2.995  25.438  0.00  0.00    +0.251 A 
ATOM     16  N   UNL     1      -1.139   2.291  25.132  0.00  0.00    -0.190 NA
ENDROOT
BRANCH  12   9
ATOM      6  C   UNL     1      -0.968  -0.726  24.864  0.00  0.00    +0.148 A 
ATOM      7  C   UNL     1      -1.139  -0.445  25.620  0.00  0.00    +0.036 A 
ATOM      8  C   UNL     1      -1.036   0.354  25.796  0.00  0.00    +0.008 A 
ATOM      9  C   UNL     1      -0.762   0.873  25.216  0.00  0.00    +0.058 A 
ATOM     10  C   UNL     1      -0.592   0.591  24.458  0.00  0.00    +0.103 A 
ATOM     11  N   UNL     1      -0.695  -0.209  24.283  0.00  0.00    -0.228 NA
BRANCH   6   5
ATOM      5  N   UNL     1      -1.071  -1.526  24.688  0.00  0.00    -0.218 NA
BRANCH   5   4
ATOM      4  C   UNL     1      -1.802  -1.887  24.821  0.00  0.00    +0.146 C 
BRANCH   4   3
ATOM      3  C   UNL     1      -2.037  -2.527  24.357  0.00  0.00    +0.166 C 
BRANCH   3   2
ATOM      1  C   UNL     1      -3.407  -2.905  24.216  0.00  0.00    +0.174 C 
ATOM      2  O   UNL     1      -2.677  -2.992  24.589  0.00  0.00    -0.349 OA
ENDBRANCH   3   2
ENDBRANCH   4   3
ENDBRANCH   5   4
ENDBRANCH   6   5
ENDBRANCH  12   9
BRANCH  15  17
ATOM     17  C   UNL     1      -1.144   3.750  25.316  0.00  0.00    +0.138 C 
ATOM     18  C   UNL     1      -0.732   4.400  25.021  0.00  0.00    +0.027 C 
ATOM     19  C   UNL     1      -1.253   5.040  24.991  0.00  0.00    +0.019 C 
ATOM     20  C   UNL     1      -1.987   4.784  25.268  0.00  0.00    +0.073 C 
ATOM     21  N   UNL     1      -1.919   3.987  25.469  0.00  0.00    -0.260 NA
BRANCH  21  22
ATOM     22  C   UNL     1      -2.522   3.511  25.771  0.00  0.00    +0.139 C 
BRANCH  22  23
ATOM     23  C   UNL     1      -3.308   3.672  25.582  0.00  0.00    +0.155 A 
ATOM     24  N   UNL     1      -3.676   3.516  24.861  0.00  0.00    -0.226 NA
ATOM     25  C   UNL     1      -4.461   3.764  24.914  0.00  0.00    +0.121 A 
ATOM     26  C   UNL     1      -4.578   4.075  25.670  0.00  0.00    +0.121 A 
ATOM     27  N   UNL     1      -3.866   4.017  26.082  0.00  0.00    -0.226 NA
ENDBRANCH  22  23
ENDBRANCH  21  22
ENDBRANCH  15  17
TORSDOF 8
ENDMDL
MODEL 3
REMARK VINA RESULT:      -7.0      2.649      4.812
REMARK  Name = 
REMARK  8 active torsions:
REMARK  status: ('A' for Active; 'I' for Inactive)
REMARK    1  A    between atoms: O_2  and  C_3
REMARK    2  A    between atoms: C_3  and  C_4
REMARK    3  A    between atoms: C_4  and  N_5
REMARK    4  A    between atoms: N_5  and  C_6
REMARK    5  A    between atoms: C_9  and  C_12
REMARK    6  A    between atoms: C_15  and  C_17
REMARK    7  A    between atoms: N_21  and  C_22
REMARK    8  A    between atoms: C_22  and  C_23
REMARK                            x       y       z     vdW  Elec       q    Type
REMARK                         _______ _______ _______ _____ _____    ______ ____
ROOT
ATOM     12  C   UNL     1      -4.127   0.986  24.724  0.00  0.00    +0.205 A 
ATOM     13  N   UNL     1      -4.841   0.711  25.031  0.00  0.00    -0.056 NA
ATOM     14  O   UNL     1      -4.864  -0.108  24.930  0.00  0.00    -0.336 OA
ATOM     15  C   UNL     1      -4.163  -0.339  24.561  0.00  0.00    +0.251 A 
ATOM     16  N   UNL     1      -3.707   0.337  24.434  0.00  0.00    -0.190 NA
ENDROOT
BRANCH  12   9
ATOM      6  C   UNL     1      -3.372   3.343  24.682  0.00  0.00    +0.148 A 
ATOM      7  C   UNL     1      -3.310   2.878  24.004  0.00  0.00    +0.036 A 
ATOM      8  C   UNL     1      -3.561   2.092  24.018  0.00  0.00    +0.008 A 
ATOM      9  C   UNL     1      -3.875   1.771  24.710  0.00  0.00    +0.058 A 
ATOM     10  C   UNL     1      -3.938   2.237  25.389  0.00  0.00    +0.103 A 
ATOM     11  N   UNL     1      -3.686   3.023  25.375  0.00  0.00    -0.228 NA
BRANCH   6   5
ATOM      5  N   UNL     1      -3.121   4.128  24.668  0.00  0.00    -0.218 NA
BRANCH   5   4
ATOM      4  C   UNL     1      -2.382   4.331  24.976  0.00  0.00    +0.146 C 
BRANCH   4   3
ATOM      3  C   UNL     1      -2.094   5.099  24.887  0.00  0.00    +0.166 C 
BRANCH   3   2
ATOM      1  C   UNL     1      -0.691   5.361  24.836  0.00  0.00    +0.174 C 
ATOM      2  O   UNL     1      -1.395   5.323  25.264  0.00  0.00    -0.349 OA
ENDBRANCH   3   2
ENDBRANCH   4   3
ENDBRANCH   5   4
ENDBRANCH   6   5
ENDBRANCH  12   9
BRANCH  15  17
ATOM     17  C   UNL     1      -3.955  -1.110  24.355  0.00  0.00    +0.138 C 
ATOM     18  C   UNL     1      -4.387  -1.615  23.867  0.00  0.00    +0.027 C 
ATOM     19  C   UNL     1      -3.976  -2.329  23.812  0.00  0.00    +0.019 C 
ATOM     20  C   UNL     1      -3.291  -2.264  24.266  0.00  0.00    +0.073 C 
ATOM     21  N   UNL     1      -3.277  -1.512  24.602  0.00  0.00    -0.260 NA
BRANCH  21  22
ATOM     22  C   UNL     1      -2.690  -1.213  25.098  0.00  0.00    +0.139 C 
BRANCH  22  23
ATOM     23  C   UNL     1      -1.909  -1.465  25.011  0.00  0.00    +0.155 A 
ATOM     24  N   UNL     1      -1.582  -2.149  25.335  0.00  0.00    -0.226 NA
ATOM     25  C   UNL     1      -0.789  -2.184  25.110  0.00  0.00    +0.121 A 
ATOM     26  C   UNL     1      -0.626  -1.522  24.645  0.00  0.00    +0.121 A 
ATOM     27  N   UNL     1      -1.319  -1.077  24.585  0.00  0.00    -0.226 NA
ENDBRANCH  22  23
ENDBRANCH  21  22
ENDBRANCH  15  17
TORSDOF 8
ENDMDL
MODEL 4
REMARK VINA RESULT:      -6.9      1.219      1.866
REMARK  Name = 
REMARK  8 active torsions:
REMARK  status: ('A' for Active; 'I' for Inactive)
REMARK    1  A    between atoms: O_2  and  C_3
REMARK    2  A    between atoms: C_3  and  C_4
REMARK    3  A    between atoms: C_4  and  N_5
REMARK    4  A    between atoms: N_5  and  C_6
REMARK    5  A    between atoms: C_9  and  C_12
REMARK    6  A    between atoms: C_15  and  C_17
REMARK    7  A    between atoms: N_21  and  C_22
REMARK    8  A    between atoms: C_22  and  C_23
REMARK                            x       y       z     vdW  Elec       q    Type
REMARK                         _______ _______ _______ _____ _____    ______ ____
ROOT
ATOM     12  C   UNL     1      -1.215   1.733  24.721  0.00  0.00    +0.205 A 
ATOM     13  N   UNL     1      -1.371   1.698  25.530  0.00  0.00    -0.056 NA
ATOM     14  O   UNL     1      -2.011   2.194  25.689  0.00  0.00    -0.336 OA
ATOM     15  C   UNL     1      -2.251   2.536  24.977  0.00  0.00    +0.251 A 
ATOM     16  N   UNL     1      -1.759   2.251  24.379  0.00  0.00    -0.190 NA
ENDROOT
BRANCH  12   9
ATOM      6  C   UNL     1       0.569   0.502  23.527  0.00  0.00    +0.148 A 
ATOM      7  C   UNL     1      -0.182   0.170  23.601  0.00  0.00    +0.036 A 
ATOM      8  C   UNL     1      -0.776   0.580  23.999  0.00  0.00    +0.008 A 
ATOM      9  C   UNL     1      -0.620   1.323  24.323  0.00  0.00    +0.058 A 
ATOM     10  C   UNL     1       0.132   1.655  24.249  0.00  0.00    +0.103 A 
ATOM     11  N   UNL     1       0.727   1.244  23.851  0.00  0.00    -0.228 NA
BRANCH   6   5
ATOM      5  N   UNL     1       1.164   0.091  23.129  0.00  0.00    -0.218 NA
BRANCH   5   4
ATOM      4  C   UNL     1       1.891   0.455  22.984  0.00  0.00    +0.146 C 
BRANCH   4   3
ATOM      3  C   UNL     1       2.506   0.026  22.641  0.00  0.00    +0.166 C 
BRANCH   3   2
ATOM      1  C   UNL     1       3.867   0.438  22.497  0.00  0.00    +0.174 C 
ATOM      2  O   UNL     1       3.093   0.417  22.212  0.00  0.00    -0.349 OA
ENDBRANCH   3   2
ENDBRANCH   4   3
ENDBRANCH   5   4
ENDBRANCH   6   5
ENDBRANCH  12   9
BRANCH  15  17
ATOM     17  C   UNL     1      -2.873   3.069  24.881  0.00  0.00    +0.138 C 
ATOM     18  C   UNL     1      -2.799   3.876  24.728  0.00  0.00    +0.027 C 
ATOM     19  C   UNL     1      -3.559   4.195  24.673  0.00  0.00    +0.019 C 
ATOM     20  C   UNL     1      -4.101   3.584  24.792  0.00  0.00    +0.073 C 
ATOM     21  N   UNL     1      -3.677   2.889  24.920  0.00  0.00    -0.260 NA
BRANCH  21  22
ATOM     22  C   UNL     1      -4.000   2.144  25.063  0.00  0.00    +0.139 C 
BRANCH  22  23
ATOM     23  C   UNL     1      -4.814   2.060  25.162  0.00  0.00    +0.155 A 
ATOM     24  N   UNL     1      -5.237   2.211  25.854  0.00  0.00    -0.226 NA
ATOM     25  C   UNL     1      -6.033   2.054  25.707  0.00  0.00    +0.121 A 
ATOM     26  C   UNL     1      -6.103   1.805  24.923  0.00  0.00    +0.121 A 
ATOM     27  N   UNL     1      -5.350   1.809  24.587  0.00  0.00    -0.226 NA
ENDBRANCH  22  23
ENDBRANCH  21  22
ENDBRANCH  15  17
TORSDOF 8
ENDMDL
MODEL 5
REMARK VINA RESULT:      -6.9      3.404      4.648
REMARK  Name = 
REMARK  8 active torsions:
REMARK  status: ('A' for Active; 'I' for Inactive)
REMARK    1  A    between atoms: O_2  and  C_3
REMARK    2  A    between atoms: C_3  and  C_4
REMARK    3  A    between atoms: C_4  and  N_5
REMARK    4  A    between atoms: N_5  and  C_6
REMARK    5  A    between atoms: C_9  and  C_12
REMARK    6  A    between atoms: C_15  and  C_17
REMARK    7  A    between atoms: N_21  and  C_22
REMARK    8  A    between atoms: C_22  and  C_23
REMARK                            x       y       z     vdW  Elec       q    Type
REMARK                         _______ _______ _______ _____ _____    ______ ____
ROOT
ATOM     12  C   UNL     1      -4.182   1.787  24.601  0.00  0.00    +0.205 A 
ATOM     13  N   UNL     1      -4.616   2.347  24.179  0.00  0.00    -0.056 NA
ATOM     14  O   UNL     1      -4.470   3.088  24.514  0.00  0.00    -0.336 OA
ATOM     15  C   UNL     1      -3.945   2.984  25.142  0.00  0.00    +0.251 A 
ATOM     16  N   UNL     1      -3.767   2.180  25.196  0.00  0.00    -0.190 NA
ENDROOT
BRANCH  12   9
ATOM      6  C   UNL     1      -4.132  -0.648  24.159  0.00  0.00    +0.148 A 
ATOM      7  C   UNL     1      -4.590  -0.351  24.777  0.00  0.00    +0.036 A 
ATOM      8  C   UNL     1      -4.606   0.461  24.924  0.00  0.00    +0.008 A 
ATOM      9  C   UNL     1      -4.165   0.975  24.454  0.00  0.00    +0.058 A 
ATOM     10  C   UNL     1      -3.706   0.677  23.835  0.00  0.00    +0.103 A 
ATOM     11  N   UNL     1      -3.690  -0.134  23.688  0.00  0.00    -0.228 NA
BRANCH   6   5
ATOM      5  N   UNL     1      -4.115  -1.460  24.012  0.00  0.00    -0.218 NA
BRANCH   5   4
ATOM      4  C   UNL     1      -3.665  -1.957  24.493  0.00  0.00    +0.146 C 
BRANCH   4   3
ATOM      3  C   UNL     1      -3.382  -2.673  24.195  0.00  0.00    +0.166 C 
BRANCH   3   2
ATOM      1  C   UNL     1      -2.024  -3.045  24.439  0.00  0.00    +0.174 C 
ATOM      2  O   UNL     1      -2.825  -3.106  24.624  0.00  0.00    -0.349 OA
ENDBRANCH   3   2
ENDBRANCH   4   3
ENDBRANCH   5   4
ENDBRANCH   6   5
ENDBRANCH  12   9
BRANCH  15  17
ATOM     17  C   UNL     1      -3.650   3.580  25.631  0.00  0.00    +0.138 C 
ATOM     18  C   UNL     1      -3.994   3.845  26.332  0.00  0.00    +0.027 C 
ATOM     19  C   UNL     1      -3.516   4.444  26.638  0.00  0.00    +0.019 C 
ATOM     20  C   UNL     1      -2.878   4.548  26.126  0.00  0.00    +0.073 C 
ATOM     21  N   UNL     1      -2.961   4.014  25.504  0.00  0.00    -0.260 NA
BRANCH  21  22
ATOM     22  C   UNL     1      -2.445   3.930  24.866  0.00  0.00    +0.139 C 
BRANCH  22  23
ATOM     23  C   UNL     1      -1.689   4.259  24.900  0.00  0.00    +0.155 A 
ATOM     24  N   UNL     1      -1.503   5.056  24.801  0.00  0.00    -0.226 NA
ATOM     25  C   UNL     1      -0.686   5.140  24.878  0.00  0.00    +0.121 A 
ATOM     26  C   UNL     1      -0.367   4.393  25.026  0.00  0.00    +0.121 A 
ATOM     27  N   UNL     1      -0.987   3.849  25.039  0.00  0.00    -0.226 NA
ENDBRANCH  22  23
ENDBRANCH  21  22
ENDBRANCH  15  17
TORSDOF 8
ENDMDL
MODEL 6
REMARK VINA RESULT:      -6.7      1.460      2.568
REMARK  Name = 
REMARK  8 active torsions:
REMARK  status: ('A' for Active; 'I' for Inactive)
REMARK    1  A    between atoms: O_2  and  C_3
REMARK    2  A    between atoms: C_3  and  C_4
REMARK    3  A    between atoms: C_4  and  N_5
REMARK    4  A    between atoms: N_5  and  C_6
REMARK    5  A    between atoms: C_9  and  C_12
REMARK    6  A    between atoms: C_15  and  C_17
REMARK    7  A    between atoms: N_21  and  C_22
REMARK    8  A    between atoms: C_22  and  C_23
REMARK                            x       y       z     vdW  Elec       q    Type
REMARK                         _______ _______ _______ _____ _____    ______ ____
ROOT
ATOM     12  C   UNL     1      -0.539   0.676  24.316  0.00  0.00    +0.205 A 
ATOM     13  N   UNL     1      -0.627   0.916  25.100  0.00  0.00    -0.056 NA
ATOM     14  O   UNL     1      -1.429   0.878  25.291  0.00  0.00    -0.336 OA
ATOM     15  C   UNL     1      -1.837   0.615  24.624  0.00  0.00    +0.251 A 
ATOM     16  N   UNL     1      -1.287   0.490  24.021  0.00  0.00    -0.190 NA
ENDROOT
BRANCH  12   9
ATOM      6  C   UNL     1       1.593   0.540  23.067  0.00  0.00    +0.148 A 
ATOM      7  C   UNL     1       1.083  -0.108  23.084  0.00  0.00    +0.036 A 
ATOM      8  C   UNL     1       0.373  -0.062  23.501  0.00  0.00    +0.008 A 
ATOM      9  C   UNL     1       0.172   0.631  23.900  0.00  0.00    +0.058 A 
ATOM     10  C   UNL     1       0.682   1.280  23.882  0.00  0.00    +0.103 A 
ATOM     11  N   UNL     1       1.393   1.234  23.465  0.00  0.00    -0.228 NA
BRANCH   6   5
ATOM      5  N   UNL     1       2.304   0.494  22.650  0.00  0.00    -0.218 NA
BRANCH   5   4
ATOM      4  C   UNL     1       3.015   0.676  23.027  0.00  0.00    +0.146 C 
BRANCH   4   3
ATOM      3  C   UNL     1       3.733   0.511  22.655  0.00  0.00    +0.166 C 
BRANCH   3   2
ATOM      1  C   UNL     1       5.069   0.276  23.102  0.00  0.00    +0.174 C 
ATOM      2  O   UNL     1       4.439   0.793  22.977  0.00  0.00    -0.349 OA
ENDBRANCH   3   2
ENDBRANCH   4   3
ENDBRANCH   5   4
ENDBRANCH   6   5
ENDBRANCH  12   9
BRANCH  15  17
ATOM     17  C   UNL     1      -2.651   0.496  24.569  0.00  0.00    +0.138 C 
ATOM     18  C   UNL     1      -3.204   1.048  24.304  0.00  0.00    +0.027 C 
ATOM     19  C   UNL     1      -3.951   0.698  24.340  0.00  0.00    +0.019 C 
ATOM     20  C   UNL     1      -3.859  -0.069  24.627  0.00  0.00    +0.073 C 
ATOM     21  N   UNL     1      -3.056  -0.194  24.768  0.00  0.00    -0.260 NA
BRANCH  21  22
ATOM     22  C   UNL     1      -2.718  -0.888  25.058  0.00  0.00    +0.139 C 
BRANCH  22  23
ATOM     23  C   UNL     1      -3.075  -1.616  24.908  0.00  0.00    +0.155 A 
ATOM     24  N   UNL     1      -3.584  -2.021  25.414  0.00  0.00    -0.226 NA
ATOM     25  C   UNL     1      -3.810  -2.722  25.044  0.00  0.00    +0.121 A 
ATOM     26  C   UNL     1      -3.439  -2.751  24.307  0.00  0.00    +0.121 A 
ATOM     27  N   UNL     1      -2.985  -2.067  24.223  0.00  0.00    -0.226 NA
ENDBRANCH  22  23
ENDBRANCH  21  22
ENDBRANCH  15  17
TORSDOF 8
ENDMDL
MODEL 7
REMARK VINA RESULT:      -6.6      1.818      5.810
REMARK  Name = 
REMARK  8 active torsions:
REMARK  status: ('A' for Active; 'I' for Inactive)
REMARK    1  A    between atoms: O_2  and  C_3
REMARK    2  A    between atoms: C_3  and  C_4
REMARK    3  A    between atoms: C_4  and  N_5
REMARK    4  A    between atoms: N_5  and  C_6
REMARK    5  A    between atoms: C_9  and  C_12
REMARK    6  A    between atoms: C_15  and  C_17
REMARK    7  A    between atoms: N_21  and  C_22
REMARK    8  A    between atoms: C_22  and  C_23
REMARK                            x       y       z     vdW  Elec       q    Type
REMARK                         _______ _______ _______ _____ _____    ______ ____
ROOT
ATOM     12  C   UNL     1      -3.358  -0.183  24.553  0.00  0.00    +0.205 A 
ATOM     13  N   UNL     1      -3.451  -0.855  24.084  0.00  0.00    -0.056 NA
ATOM     14  O   UNL     1      -2.751  -1.291  24.121  0.00  0.00    -0.336 OA
ATOM     15  C   UNL     1      -2.225  -0.887  24.612  0.00  0.00    +0.251 A 
ATOM     16  N   UNL     1      -2.600  -0.202  24.879  0.00  0.00    -0.190 NA
ENDROOT
BRANCH  12   9
ATOM      6  C   UNL     1      -5.053   1.584  24.917  0.00  0.00    +0.148 A 
ATOM      7  C   UNL     1      -5.096   0.878  25.341  0.00  0.00    +0.036 A 
ATOM      8  C   UNL     1      -4.531   0.289  25.220  0.00  0.00    +0.008 A 
ATOM      9  C   UNL     1      -3.923   0.406  24.674  0.00  0.00    +0.058 A 
ATOM     10  C   UNL     1      -3.881   1.113  24.249  0.00  0.00    +0.103 A 
ATOM     11  N   UNL     1      -4.446   1.702  24.371  0.00  0.00    -0.228 NA
BRANCH   6   5
ATOM      5  N   UNL     1      -5.618   2.173  25.038  0.00  0.00    -0.218 NA
BRANCH   5   4
ATOM      4  C   UNL     1      -5.413   2.866  25.437  0.00  0.00    +0.146 C 
BRANCH   4   3
ATOM      3  C   UNL     1      -5.951   3.489  25.485  0.00  0.00    +0.166 C 
BRANCH   3   2
ATOM      1  C   UNL     1      -5.978   4.916  25.566  0.00  0.00    +0.174 C 
ATOM      2  O   UNL     1      -5.740   4.187  25.872  0.00  0.00    -0.349 OA
ENDBRANCH   3   2
ENDBRANCH   4   3
ENDBRANCH   5   4
ENDBRANCH   6   5
ENDBRANCH  12   9
BRANCH  15  17
ATOM     17  C   UNL     1      -1.459  -1.126  24.802  0.00  0.00    +0.138 C 
ATOM     18  C   UNL     1      -1.253  -1.675  25.382  0.00  0.00    +0.027 C 
ATOM     19  C   UNL     1      -0.431  -1.746  25.384  0.00  0.00    +0.019 C 
ATOM     20  C   UNL     1      -0.130  -1.241  24.806  0.00  0.00    +0.073 C 
ATOM     21  N   UNL     1      -0.765  -0.858  24.446  0.00  0.00    -0.260 NA
BRANCH  21  22
ATOM     22  C   UNL     1      -0.714  -0.304  23.838  0.00  0.00    +0.139 C 
BRANCH  22  23
ATOM     23  C   UNL     1       0.022  -0.023  23.595  0.00  0.00    +0.155 A 
ATOM     24  N   UNL     1       0.371   0.688  23.827  0.00  0.00    -0.226 NA
ATOM     25  C   UNL     1       1.104   0.747  23.453  0.00  0.00    +0.121 A 
ATOM     26  C   UNL     1       1.208   0.072  22.990  0.00  0.00    +0.121 A 
ATOM     27  N   UNL     1       0.540  -0.403  23.078  0.00  0.00    -0.226 NA
ENDBRANCH  22  23
ENDBRANCH  21  22
ENDBRANCH  15  17
TORSDOF 8
ENDMDL
MODEL 8
REMARK VINA RESULT:      -6.5      2.033      5.696
REMARK  Name = 
REMARK  8 active torsions:
REMARK  status: ('A' for Active; 'I' for Inactive)
REMARK    1  A    between atoms: O_2  and  C_3
REMARK    2  A    between atoms: C_3  and  C_4
REMARK    3  A    between atoms: C_4  and  N_5
REMARK    4  A    between atoms: N_5  and  C_6
REMARK    5  A    between atoms: C_9  and  C_12
REMARK    6  A    between atoms: C_15  and  C_17
REMARK    7  A    between atoms: N_21  and  C_22
REMARK    8  A    between atoms: C_22  and  C_23
REMARK                            x       y       z     vdW  Elec       q    Type
REMARK                         _______ _______ _______ _____ _____    ______ ____
ROOT
ATOM     12  C   UNL     1      -1.010   2.287  24.641  0.00  0.00    +0.205 A 
ATOM     13  N   UNL     1      -0.247   2.501  24.870  0.00  0.00    -0.056 NA
ATOM     14  O   UNL     1       0.272   1.913  24.613  0.00  0.00    -0.336 OA
ATOM     15  C   UNL     1      -0.171   1.334  24.226  0.00  0.00    +0.251 A 
ATOM     16  N   UNL     1      -0.963   1.565  24.243  0.00  0.00    -0.190 NA
ENDROOT
BRANCH  12   9
ATOM      6  C   UNL     1      -3.076   3.579  25.072  0.00  0.00    +0.148 A 
ATOM      7  C   UNL     1      -2.480   3.552  25.642  0.00  0.00    +0.036 A 
ATOM      8  C   UNL     1      -1.792   3.122  25.498  0.00  0.00    +0.008 A 
ATOM      9  C   UNL     1      -1.698   2.718  24.785  0.00  0.00    +0.058 A 
ATOM     10  C   UNL     1      -2.295   2.745  24.215  0.00  0.00    +0.103 A 
ATOM     11  N   UNL     1      -2.984   3.176  24.359  0.00  0.00    -0.228 NA
BRANCH   6   5
ATOM      5  N   UNL     1      -3.765   4.010  25.216  0.00  0.00    -0.218 NA
BRANCH   5   4
ATOM      4  C   UNL     1      -4.384   3.669  25.643  0.00  0.00    +0.146 C 
BRANCH   4   3
ATOM      3  C   UNL     1      -5.165   3.856  25.458  0.00  0.00    +0.166 C 
BRANCH   3   2
ATOM      1  C   UNL     1      -6.150   2.863  25.749  0.00  0.00    +0.174 C 
ATOM      2  O   UNL     1      -5.780   3.576  25.933  0.00  0.00    -0.349 OA
ENDBRANCH   3   2
ENDBRANCH   4   3
ENDBRANCH   5   4
ENDBRANCH   6   5
ENDBRANCH  12   9
BRANCH  15  17
ATOM     17  C   UNL     1       0.125   0.646  23.882  0.00  0.00    +0.138 C 
ATOM     18  C   UNL     1       0.642   0.608  23.240  0.00  0.00    +0.027 C 
ATOM     19  C   UNL     1       0.793  -0.187  23.081  0.00  0.00    +0.019 C 
ATOM     20  C   UNL     1       0.370  -0.641  23.625  0.00  0.00    +0.073 C 
ATOM     21  N   UNL     1      -0.042  -0.127  24.120  0.00  0.00    -0.260 NA
BRANCH  21  22
ATOM     22  C   UNL     1      -0.536  -0.346  24.743  0.00  0.00    +0.139 C 
BRANCH  22  23
ATOM     23  C   UNL     1      -0.828  -1.116  24.787  0.00  0.00    +0.155 A 
ATOM     24  N   UNL     1      -0.500  -1.735  25.222  0.00  0.00    -0.226 NA
ATOM     25  C   UNL     1      -0.968  -2.404  25.108  0.00  0.00    +0.121 A 
ATOM     26  C   UNL     1      -1.587  -2.198  24.601  0.00  0.00    +0.121 A 
ATOM     27  N   UNL     1      -1.500  -1.402  24.403  0.00  0.00    -0.226 NA
ENDBRANCH  22  23
ENDBRANCH  21  22
ENDBRANCH  15  17
TORSDOF 8
ENDMDL
MODEL 9
REMARK VINA RESULT:      -5.5     15.851     17.937
REMARK  Name = 
REMARK  8 active torsions:
REMARK  status: ('A' for Active; 'I' for Inactive)
REMARK    1  A    between atoms: O_2  and  C_3
REMARK    2  A    between atoms: C_3  and  C_4
REMARK    3  A    between atoms: C_4  and  N_5
REMARK    4  A    between atoms: N_5  and  C_6
REMARK    5  A    between atoms: C_9  and  C_12
REMARK    6  A    between atoms: C_15  and  C_17
REMARK    7  A    between atoms: N_21  and  C_22
REMARK    8  A    between atoms: C_22  and  C_23
REMARK                            x       y       z     vdW  Elec       q    Type
REMARK                         _______ _______ _______ _____ _____    ______ ____
ROOT
ATOM     12  C   UNL     1      12.810   7.880  20.263  0.00  0.00    +0.205 A 
ATOM     13  N   UNL     1      12.678   7.361  20.890  0.00  0.00    -0.056 NA
ATOM     14  O   UNL     1      13.337   7.387  21.386  0.00  0.00    -0.336 OA
ATOM     15  C   UNL     1      13.877   7.923  21.066  0.00  0.00    +0.251 A 
ATOM     16  N   UNL     1      13.551   8.228  20.372  0.00  0.00    -0.190 NA
ENDROOT
BRANCH  12   9
ATOM      6  C   UNL     1      11.259   8.321  18.386  0.00  0.00    +0.148 A 
ATOM      7  C   UNL     1      11.025   8.480  19.160  0.00  0.00    +0.036 A 
ATOM      8  C   UNL     1      11.542   8.333  19.786  0.00  0.00    +0.008 A 
ATOM      9  C   UNL     1      12.293   8.027  19.637  0.00  0.00    +0.058 A 
ATOM     10  C   UNL     1      12.528   7.868  18.862  0.00  0.00    +0.103 A 
ATOM     11  N   UNL     1      12.011   8.015  18.236  0.00  0.00    -0.228 NA
BRANCH   6   5
ATOM      5  N   UNL     1      10.742   8.468  17.760  0.00  0.00    -0.218 NA
BRANCH   5   4
ATOM      4  C   UNL     1      11.024   8.476  16.984  0.00  0.00    +0.146 C 
BRANCH   4   3
ATOM      3  C   UNL     1      10.495   8.449  16.352  0.00  0.00    +0.166 C 
BRANCH   3   2
ATOM      1  C   UNL     1      11.141   9.094  15.252  0.00  0.00    +0.174 C 
ATOM      2  O   UNL     1      10.508   9.043  15.779  0.00  0.00    -0.349 OA
ENDBRANCH   3   2
ENDBRANCH   4   3
ENDBRANCH   5   4
ENDBRANCH   6   5
ENDBRANCH  12   9
BRANCH  15  17
ATOM     17  C   UNL     1      14.612   8.120  21.384  0.00  0.00    +0.138 C 
ATOM     18  C   UNL     1      14.782   8.792  21.829  0.00  0.00    +0.027 C 
ATOM     19  C   UNL     1      15.582   8.766  22.033  0.00  0.00    +0.019 C 
ATOM     20  C   UNL     1      15.904   8.078  21.714  0.00  0.00    +0.073 C 
ATOM     21  N   UNL     1      15.305   7.678  21.313  0.00  0.00    -0.260 NA
BRANCH  21  22
ATOM     22  C   UNL     1      15.385   6.962  20.911  0.00  0.00    +0.139 C 
BRANCH  22  23
ATOM     23  C   UNL     1      16.130   6.705  20.670  0.00  0.00    +0.155 A 
ATOM     24  N   UNL     1      16.690   6.328  21.143  0.00  0.00    -0.226 NA
ATOM     25  C   UNL     1      17.353   6.170  20.679  0.00  0.00    +0.121 A 
ATOM     26  C   UNL     1      17.203   6.450  19.917  0.00  0.00    +0.121 A 
ATOM     27  N   UNL     1      16.447   6.781  19.912  0.00  0.00    -0.226 NA
ENDBRANCH  22  23
ENDBRANCH  21  22
ENDBRANCH  15  17
TORSDOF 8
ENDMDL
MODEL 10
REMARK VINA RESULT:      -4.4     13.606     16.440
REMARK  Name = 
REMARK  8 active torsions:
REMARK  status: ('A' for Active; 'I' for Inactive)
REMARK    1  A    between atoms: O_2  and  C_3
REMARK    2  A    between atoms: C_3  and  C_4
REMARK    3  A    between atoms: C_4  and  N_5
REMARK    4  A    between atoms: N_5  and  C_6
REMARK    5  A    between atoms: C_9  and  C_12
REMARK    6  A    between atoms: C_15  and  C_17
REMARK    7  A    between atoms: N_21  and  C_22
REMARK    8  A    between atoms: C_22  and  C_23
REMARK                            x       y       z     vdW  Elec       q    Type
REMARK                         _______ _______ _______ _____ _____    ______ ____
ROOT
ATOM     12  C   UNL     1      12.642   8.268  19.368  0.00  0.00    +0.205 A 
ATOM     13  N   UNL     1      13.204   8.273  19.971  0.00  0.00    -0.056 NA
ATOM     14  O   UNL     1      12.812   8.140  20.686  0.00  0.00    -0.336 OA
ATOM     15  C   UNL     1      12.008   8.053  20.523  0.00  0.00    +0.251 A 
ATOM     16  N   UNL     1      11.903   8.132  19.708  0.00  0.00    -0.190 NA
ENDROOT
BRANCH  12   9
ATOM      6  C   UNL     1      13.093   8.604  16.957  0.00  0.00    +0.148 A 
ATOM      7  C   UNL     1      13.607   8.148  17.413  0.00  0.00    +0.036 A 
ATOM      8  C   UNL     1      13.457   8.036  18.216  0.00  0.00    +0.008 A 
ATOM      9  C   UNL     1      12.793   8.380  18.564  0.00  0.00    +0.058 A 
ATOM     10  C   UNL     1      12.278   8.837  18.107  0.00  0.00    +0.103 A 
ATOM     11  N   UNL     1      12.429   8.949  17.304  0.00  0.00    -0.228 NA
BRANCH   6   5
ATOM      5  N   UNL     1      13.244   8.716  16.154  0.00  0.00    -0.218 NA
BRANCH   5   4
ATOM      4  C   UNL     1      13.986   8.532  15.843  0.00  0.00    +0.146 C 
BRANCH   4   3
ATOM      3  C   UNL     1      14.295   8.978  15.221  0.00  0.00    +0.166 C 
BRANCH   3   2
ATOM      1  C   UNL     1      15.184   9.094  14.109  0.00  0.00    +0.174 C 
ATOM      2  O   UNL     1      14.922   8.681  14.773  0.00  0.00    -0.349 OA
ENDBRANCH   3   2
ENDBRANCH   4   3
ENDBRANCH   5   4
ENDBRANCH   6   5
ENDBRANCH  12   9
BRANCH  15  17
ATOM     17  C   UNL     1      11.414   7.911  21.077  0.00  0.00    +0.138 C 
ATOM     18  C   UNL     1      10.887   8.471  21.376  0.00  0.00    +0.027 C 
ATOM     19  C   UNL     1      10.389   8.090  21.913  0.00  0.00    +0.019 C 
ATOM     20  C   UNL     1      10.609   7.296  21.946  0.00  0.00    +0.073 C 
ATOM     21  N   UNL     1      11.242   7.185  21.429  0.00  0.00    -0.260 NA
BRANCH  21  22
ATOM     22  C   UNL     1      11.634   6.473  21.290  0.00  0.00    +0.139 C 
BRANCH  22  23
ATOM     23  C   UNL     1      11.253   5.757  21.435  0.00  0.00    +0.155 A 
ATOM     24  N   UNL     1      11.069   5.182  20.873  0.00  0.00    -0.226 NA
ATOM     25  C   UNL     1      10.691   4.558  21.259  0.00  0.00    +0.121 A 
ATOM     26  C   UNL     1      10.641   4.748  22.060  0.00  0.00    +0.121 A 
ATOM     27  N   UNL     1      10.988   5.489  22.169  0.00  0.00    -0.226 NA
ENDBRANCH  22  23
ENDBRANCH  21  22
ENDBRANCH  15  17
TORSDOF 8
ENDMDL
