MODEL 1
REMARK VINA RESULT:     -11.0      0.000      0.000
REMARK  Name = 
REMARK  7 active torsions:
REMARK  status: ('A' for Active; 'I' for Inactive)
REMARK    1  A    between atoms: O_2  and  C_3
REMARK    2  A    between atoms: C_3  and  C_5
REMARK    3  A    between atoms: N_10  and  S_11
REMARK    4  A    between atoms: S_11  and  C_14
REMARK    5  A    between atoms: C_17  and  C_20
REMARK    6  A    between atoms: N_23  and  C_24
REMARK    7  A    between atoms: C_24  and  C_25
REMARK                            x       y       z     vdW  Elec       q    Type
REMARK                         _______ _______ _______ _____ _____    ______ ____
ROOT
ATOM      5  C   UNL     1      -0.251   0.679  24.655  0.00  0.00    +0.184 C 
ATOM      6  C   UNL     1      -0.065  -0.119  24.560  0.00  0.00    +0.076 C 
ATOM      7  C   UNL     1      -0.635  -0.696  24.711  0.00  0.00    +0.076 A 
ATOM      8  C   UNL     1      -1.391  -0.475  24.957  0.00  0.00    +0.070 A 
ATOM      9  C   UNL     1      -1.577   0.324  25.052  0.00  0.00    +0.141 C 
ATOM     10  N   UNL     1      -1.006   0.900  24.901  0.00  0.00    -0.140 NA
ATOM     23  N   UNL     1      -1.836  -1.161  25.064  0.00  0.00    -0.307 N 
ATOM     32  C   UNL     1      -1.355  -1.807  24.884  0.00  0.00    +0.178 A 
ATOM     33  N   UNL     1      -0.614  -1.519  24.666  0.00  0.00    -0.229 NA
ENDROOT
BRANCH  10  11
ATOM     11  S   UNL     1      -1.193   1.698  24.996  0.00  0.00    +0.064 S 
ATOM     12  O   UNL     1      -0.944   1.664  25.781  0.00  0.00    -0.153 OA
ATOM     13  O   UNL     1      -1.442   1.733  24.210  0.00  0.00    -0.153 OA
BRANCH  11  14
ATOM     14  C   UNL     1      -1.379   2.497  25.090  0.00  0.00    +0.122 A 
ATOM     15  C   UNL     1      -1.164   2.891  25.782  0.00  0.00    +0.020 A 
ATOM     16  C   UNL     1      -1.350   3.689  25.877  0.00  0.00    +0.004 A 
ATOM     17  C   UNL     1      -1.752   4.093  25.279  0.00  0.00    +0.035 A 
ATOM     18  C   UNL     1      -1.967   3.698  24.588  0.00  0.00    +0.004 A 
ATOM     19  C   UNL     1      -1.781   2.900  24.494  0.00  0.00    +0.020 A 
BRANCH  17  20
ATOM     20  C   UNL     1      -1.938   4.891  25.374  0.00  0.00    +0.173 C 
ATOM     21  C   UNL     1      -1.450   5.470  25.045  0.00  0.00    +0.077 C 
ATOM     22  O   UNL     1      -2.611   5.110  25.798  0.00  0.00    -0.291 OA
ENDBRANCH  17  20
ENDBRANCH  11  14
ENDBRANCH  10  11
BRANCH   5   3
ATOM      3  C   UNL     1       0.319   1.256  24.505  0.00  0.00    +0.334 C 
ATOM      4  O   UNL     1       0.683   1.649  25.131  0.00  0.00    -0.249 OA
BRANCH   3   2
ATOM      1  C   UNL     1       1.317   1.553  23.526  0.00  0.00    +0.256 C 
ATOM      2  O   UNL     1       0.525   1.439  23.727  0.00  0.00    -0.443 OA
ENDBRANCH   3   2
ENDBRANCH   5   3
BRANCH  23  24
ATOM     24  C   UNL     1      -2.623  -1.196  25.308  0.00  0.00    +0.134 C 
BRANCH  24  25
ATOM     25  C   UNL     1      -3.177  -1.610  24.858  0.00  0.00    +0.000 A 
ATOM     26  C   UNL     1      -3.678  -1.204  24.344  0.00  0.00    -0.002 A 
ATOM     27  C   UNL     1      -4.232  -1.618  23.894  0.00  0.00    +0.011 A 
ATOM     28  C   UNL     1      -4.283  -2.439  23.958  0.00  0.00    +0.058 A 
ATOM     29 CL   UNL     1      -4.836  -2.854  23.508  0.00  0.00    -0.082 Cl
ATOM     30  C   UNL     1      -3.782  -2.846  24.471  0.00  0.00    +0.011 A 
ATOM     31  C   UNL     1      -3.229  -2.431  24.921  0.00  0.00    -0.002 A 
ENDBRANCH  24  25
ENDBRANCH  23  24
TORSDOF 7
ENDMDL
MODEL 2
REMARK VINA RESULT:     -11.0      2.375      3.479
REMARK  Name = 
REMARK  7 active torsions:
REMARK  status: ('A' for Active; 'I' for Inactive)
REMARK    1  A    between atoms: O_2  and  C_3
REMARK    2  A    between atoms: C_3  and  C_5
REMARK    3  A    between atoms: N_10  and  S_11
REMARK    4  A    between atoms: S_11  and  C_14
REMARK    5  A    between atoms: C_17  and  C_20
REMARK    6  A    between atoms: N_23  and  C_24
REMARK    7  A    between atoms: C_24  and  C_25
REMARK                            x       y       z     vdW  Elec       q    Type
REMARK                         _______ _______ _______ _____ _____    ______ ____
ROOT
ATOM      5  C   UNL     1      -4.779   2.544  25.363  0.00  0.00    +0.184 C 
ATOM      6  C   UNL     1      -5.370   1.970  25.377  0.00  0.00    +0.076 C 
ATOM      7  C   UNL     1      -5.220   1.215  25.081  0.00  0.00    +0.076 A 
ATOM      8  C   UNL     1      -4.478   1.034  24.770  0.00  0.00    +0.070 A 
ATOM      9  C   UNL     1      -3.885   1.609  24.756  0.00  0.00    +0.141 C 
ATOM     10  N   UNL     1      -4.036   2.363  25.052  0.00  0.00    -0.140 NA
ATOM     23  N   UNL     1      -4.491   0.249  24.519  0.00  0.00    -0.307 N 
ATOM     32  C   UNL     1      -5.241  -0.056  24.675  0.00  0.00    +0.178 A 
ATOM     33  N   UNL     1      -5.691   0.541  25.021  0.00  0.00    -0.229 NA
ENDROOT
BRANCH  10  11
ATOM     11  S   UNL     1      -3.444   2.937  25.038  0.00  0.00    +0.064 S 
ATOM     12  O   UNL     1      -3.203   2.709  25.792  0.00  0.00    -0.153 OA
ATOM     13  O   UNL     1      -3.685   3.166  24.282  0.00  0.00    -0.153 OA
BRANCH  11  14
ATOM     14  C   UNL     1      -2.852   3.512  25.022  0.00  0.00    +0.122 A 
ATOM     15  C   UNL     1      -2.795   4.028  24.381  0.00  0.00    +0.020 A 
ATOM     16  C   UNL     1      -2.203   4.602  24.364  0.00  0.00    +0.004 A 
ATOM     17  C   UNL     1      -1.668   4.661  24.990  0.00  0.00    +0.035 A 
ATOM     18  C   UNL     1      -1.724   4.145  25.631  0.00  0.00    +0.004 A 
ATOM     19  C   UNL     1      -2.317   3.570  25.647  0.00  0.00    +0.020 A 
BRANCH  17  20
ATOM     20  C   UNL     1      -1.076   5.235  24.973  0.00  0.00    +0.173 C 
ATOM     21  C   UNL     1      -0.299   5.021  24.794  0.00  0.00    +0.077 C 
ATOM     22  O   UNL     1      -1.261   6.023  25.135  0.00  0.00    -0.291 OA
ENDBRANCH  17  20
ENDBRANCH  11  14
ENDBRANCH  10  11
BRANCH   5   3
ATOM      3  C   UNL     1      -4.929   3.299  25.659  0.00  0.00    +0.334 C 
ATOM      4  O   UNL     1      -4.677   3.502  26.418  0.00  0.00    -0.249 OA
BRANCH   3   2
ATOM      1  C   UNL     1      -5.893   4.348  25.542  0.00  0.00    +0.256 C 
ATOM      2  O   UNL     1      -5.332   3.851  25.197  0.00  0.00    -0.443 OA
ENDBRANCH   3   2
ENDBRANCH   5   3
BRANCH  23  24
ATOM     24  C   UNL     1      -3.863  -0.160  24.174  0.00  0.00    +0.134 C 
BRANCH  24  25
ATOM     25  C   UNL     1      -3.763  -0.965  24.324  0.00  0.00    +0.000 A 
ATOM     26  C   UNL     1      -4.114  -1.524  23.828  0.00  0.00    -0.002 A 
ATOM     27  C   UNL     1      -4.013  -2.329  23.978  0.00  0.00    +0.011 A 
ATOM     28  C   UNL     1      -3.562  -2.575  24.623  0.00  0.00    +0.058 A 
ATOM     29 CL   UNL     1      -3.462  -3.380  24.773  0.00  0.00    -0.082 Cl
ATOM     30  C   UNL     1      -3.212  -2.017  25.119  0.00  0.00    +0.011 A 
ATOM     31  C   UNL     1      -3.312  -1.212  24.969  0.00  0.00    -0.002 A 
ENDBRANCH  24  25
ENDBRANCH  23  24
TORSDOF 7
ENDMDL
MODEL 3
REMARK VINA RESULT:     -10.5      3.063      6.012
REMARK  Name = 
REMARK  7 active torsions:
REMARK  status: ('A' for Active; 'I' for Inactive)
REMARK    1  A    between atoms: O_2  and  C_3
REMARK    2  A    between atoms: C_3  and  C_5
REMARK    3  A    between atoms: N_10  and  S_11
REMARK    4  A    between atoms: S_11  and  C_14
REMARK    5  A    between atoms: C_17  and  C_20
REMARK    6  A    between atoms: N_23  and  C_24
REMARK    7  A    between atoms: C_24  and  C_25
REMARK                            x       y       z     vdW  Elec       q    Type
REMARK                         _______ _______ _______ _____ _____    ______ ____
ROOT
ATOM      5  C   UNL     1      -4.856   2.026  25.290  0.00  0.00    +0.184 C 
ATOM      6  C   UNL     1      -4.901   2.822  25.500  0.00  0.00    +0.076 C 
ATOM      7  C   UNL     1      -4.210   3.255  25.628  0.00  0.00    +0.076 A 
ATOM      8  C   UNL     1      -3.474   2.890  25.547  0.00  0.00    +0.070 A 
ATOM      9  C   UNL     1      -3.430   2.093  25.337  0.00  0.00    +0.141 C 
ATOM     10  N   UNL     1      -4.121   1.661  25.209  0.00  0.00    -0.140 NA
ATOM     23  N   UNL     1      -2.892   3.451  25.708  0.00  0.00    -0.307 N 
ATOM     32  C   UNL     1      -3.267   4.163  25.888  0.00  0.00    +0.178 A 
ATOM     33  N   UNL     1      -4.081   4.041  25.839  0.00  0.00    -0.229 NA
ENDROOT
BRANCH  10  11
ATOM     11  S   UNL     1      -4.076   0.865  24.999  0.00  0.00    +0.064 S 
ATOM     12  O   UNL     1      -4.159   0.651  25.791  0.00  0.00    -0.153 OA
ATOM     13  O   UNL     1      -3.992   1.079  24.206  0.00  0.00    -0.153 OA
BRANCH  11  14
ATOM     14  C   UNL     1      -4.030   0.069  24.788  0.00  0.00    +0.122 A 
ATOM     15  C   UNL     1      -3.958  -0.509  25.372  0.00  0.00    +0.020 A 
ATOM     16  C   UNL     1      -3.913  -1.306  25.163  0.00  0.00    +0.004 A 
ATOM     17  C   UNL     1      -3.940  -1.524  24.367  0.00  0.00    +0.035 A 
ATOM     18  C   UNL     1      -4.012  -0.947  23.782  0.00  0.00    +0.004 A 
ATOM     19  C   UNL     1      -4.057  -0.150  23.993  0.00  0.00    +0.020 A 
BRANCH  17  20
ATOM     20  C   UNL     1      -3.894  -2.321  24.157  0.00  0.00    +0.173 C 
ATOM     21  C   UNL     1      -3.352  -2.816  24.534  0.00  0.00    +0.077 C 
ATOM     22  O   UNL     1      -4.390  -2.622  23.571  0.00  0.00    -0.291 OA
ENDBRANCH  17  20
ENDBRANCH  11  14
ENDBRANCH  10  11
BRANCH   5   3
ATOM      3  C   UNL     1      -5.547   1.594  25.161  0.00  0.00    +0.334 C 
ATOM      4  O   UNL     1      -5.818   1.069  25.737  0.00  0.00    -0.249 OA
BRANCH   3   2
ATOM      1  C   UNL     1      -6.791   1.724  24.470  0.00  0.00    +0.256 C 
ATOM      2  O   UNL     1      -5.967   1.687  24.457  0.00  0.00    -0.443 OA
ENDBRANCH   3   2
ENDBRANCH   5   3
BRANCH  23  24
ATOM     24  C   UNL     1      -2.077   3.324  25.691  0.00  0.00    +0.134 C 
BRANCH  24  25
ATOM     25  C   UNL     1      -1.586   3.843  25.279  0.00  0.00    +0.000 A 
ATOM     26  C   UNL     1      -1.114   3.563  24.663  0.00  0.00    -0.002 A 
ATOM     27  C   UNL     1      -0.623   4.082  24.250  0.00  0.00    +0.011 A 
ATOM     28  C   UNL     1      -0.605   4.882  24.454  0.00  0.00    +0.058 A 
ATOM     29 CL   UNL     1      -0.115   5.401  24.041  0.00  0.00    -0.082 Cl
ATOM     30  C   UNL     1      -1.077   5.162  25.069  0.00  0.00    +0.011 A 
ATOM     31  C   UNL     1      -1.568   4.642  25.481  0.00  0.00    -0.002 A 
ENDBRANCH  24  25
ENDBRANCH  23  24
TORSDOF 7
ENDMDL
MODEL 4
REMARK VINA RESULT:      -9.7      1.635      2.034
REMARK  Name = 
REMARK  7 active torsions:
REMARK  status: ('A' for Active; 'I' for Inactive)
REMARK    1  A    between atoms: O_2  and  C_3
REMARK    2  A    between atoms: C_3  and  C_5
REMARK    3  A    between atoms: N_10  and  S_11
REMARK    4  A    between atoms: S_11  and  C_14
REMARK    5  A    between atoms: C_17  and  C_20
REMARK    6  A    between atoms: N_23  and  C_24
REMARK    7  A    between atoms: C_24  and  C_25
REMARK                            x       y       z     vdW  Elec       q    Type
REMARK                         _______ _______ _______ _____ _____    ______ ____
ROOT
ATOM      5  C   UNL     1      -1.361   1.617  24.236  0.00  0.00    +0.184 C 
ATOM      6  C   UNL     1      -0.738   1.094  24.097  0.00  0.00    +0.076 C 
ATOM      7  C   UNL     1      -0.768   0.327  24.398  0.00  0.00    +0.076 A 
ATOM      8  C   UNL     1      -1.421   0.082  24.839  0.00  0.00    +0.070 A 
ATOM      9  C   UNL     1      -2.044   0.605  24.978  0.00  0.00    +0.141 C 
ATOM     10  N   UNL     1      -2.014   1.372  24.677  0.00  0.00    -0.140 NA
ATOM     23  N   UNL     1      -1.298  -0.702  25.064  0.00  0.00    -0.307 N 
ATOM     32  C   UNL     1      -0.568  -0.942  24.763  0.00  0.00    +0.178 A 
ATOM     33  N   UNL     1      -0.242  -0.306  24.351  0.00  0.00    -0.229 NA
ENDROOT
BRANCH  10  11
ATOM     11  S   UNL     1      -2.637   1.894  24.816  0.00  0.00    +0.064 S 
ATOM     12  O   UNL     1      -2.282   2.130  25.522  0.00  0.00    -0.153 OA
ATOM     13  O   UNL     1      -2.992   1.658  24.110  0.00  0.00    -0.153 OA
BRANCH  11  14
ATOM     14  C   UNL     1      -3.261   2.416  24.955  0.00  0.00    +0.122 A 
ATOM     15  C   UNL     1      -3.923   2.405  24.464  0.00  0.00    +0.020 A 
ATOM     16  C   UNL     1      -4.548   2.927  24.601  0.00  0.00    +0.004 A 
ATOM     17  C   UNL     1      -4.509   3.459  25.231  0.00  0.00    +0.035 A 
ATOM     18  C   UNL     1      -3.846   3.470  25.722  0.00  0.00    +0.004 A 
ATOM     19  C   UNL     1      -3.222   2.948  25.584  0.00  0.00    +0.020 A 
BRANCH  17  20
ATOM     20  C   UNL     1      -5.133   3.980  25.368  0.00  0.00    +0.173 C 
ATOM     21  C   UNL     1      -5.842   3.700  25.685  0.00  0.00    +0.077 C 
ATOM     22  O   UNL     1      -5.050   4.781  25.190  0.00  0.00    -0.291 OA
ENDBRANCH  17  20
ENDBRANCH  11  14
ENDBRANCH  10  11
BRANCH   5   3
ATOM      3  C   UNL     1      -1.331   2.383  23.935  0.00  0.00    +0.334 C 
ATOM      4  O   UNL     1      -1.724   2.567  23.234  0.00  0.00    -0.249 OA
BRANCH   3   2
ATOM      1  C   UNL     1      -0.442   3.503  23.913  0.00  0.00    +0.256 C 
ATOM      2  O   UNL     1      -0.907   2.968  24.335  0.00  0.00    -0.443 OA
ENDBRANCH   3   2
ENDBRANCH   5   3
BRANCH  23  24
ATOM     24  C   UNL     1      -1.813  -1.165  25.512  0.00  0.00    +0.134 C 
BRANCH  24  25
ATOM     25  C   UNL     1      -2.309  -1.708  25.140  0.00  0.00    +0.000 A 
ATOM     26  C   UNL     1      -3.129  -1.628  25.200  0.00  0.00    -0.002 A 
ATOM     27  C   UNL     1      -3.625  -2.171  24.827  0.00  0.00    +0.011 A 
ATOM     28  C   UNL     1      -3.302  -2.795  24.394  0.00  0.00    +0.058 A 
ATOM     29 CL   UNL     1      -3.798  -3.339  24.021  0.00  0.00    -0.082 Cl
ATOM     30  C   UNL     1      -2.483  -2.876  24.334  0.00  0.00    +0.011 A 
ATOM     31  C   UNL     1      -1.987  -2.332  24.707  0.00  0.00    -0.002 A 
ENDBRANCH  24  25
ENDBRANCH  23  24
TORSDOF 7
ENDMDL
MODEL 5
REMARK VINA RESULT:      -9.5      2.281      4.508
REMARK  Name = 
REMARK  7 active torsions:
REMARK  status: ('A' for Active; 'I' for Inactive)
REMARK    1  A    between atoms: O_2  and  C_3
REMARK    2  A    between atoms: C_3  and  C_5
REMARK    3  A    between atoms: N_10  and  S_11
REMARK    4  A    between atoms: S_11  and  C_14
REMARK    5  A    between atoms: C_17  and  C_20
REMARK    6  A    between atoms: N_23  and  C_24
REMARK    7  A    between atoms: C_24  and  C_25
REMARK                            x       y       z     vdW  Elec       q    Type
REMARK                         _______ _______ _______ _____ _____    ______ ____
ROOT
ATOM      5  C   UNL     1      -1.094   2.536  25.326  0.00  0.00    +0.184 C 
ATOM      6  C   UNL     1      -1.319   3.329  25.326  0.00  0.00    +0.076 C 
ATOM      7  C   UNL     1      -2.064   3.547  25.044  0.00  0.00    +0.076 A 
ATOM      8  C   UNL     1      -2.582   2.970  24.762  0.00  0.00    +0.070 A 
ATOM      9  C   UNL     1      -2.357   2.176  24.763  0.00  0.00    +0.141 C 
ATOM     10  N   UNL     1      -1.612   1.960  25.045  0.00  0.00    -0.140 NA
ATOM     23  N   UNL     1      -3.275   3.347  24.520  0.00  0.00    -0.307 N 
ATOM     32  C   UNL     1      -3.184   4.156  24.652  0.00  0.00    +0.178 A 
ATOM     33  N   UNL     1      -2.436   4.279  24.976  0.00  0.00    -0.229 NA
ENDROOT
BRANCH  10  11
ATOM     11  S   UNL     1      -1.387   1.166  25.045  0.00  0.00    +0.064 S 
ATOM     12  O   UNL     1      -1.056   1.259  24.296  0.00  0.00    -0.153 OA
ATOM     13  O   UNL     1      -1.719   1.073  25.796  0.00  0.00    -0.153 OA
BRANCH  11  14
ATOM     14  C   UNL     1      -1.163   0.372  25.047  0.00  0.00    +0.122 A 
ATOM     15  C   UNL     1      -1.384  -0.117  25.673  0.00  0.00    +0.020 A 
ATOM     16  C   UNL     1      -1.160  -0.911  25.676  0.00  0.00    +0.004 A 
ATOM     17  C   UNL     1      -0.715  -1.216  25.051  0.00  0.00    +0.035 A 
ATOM     18  C   UNL     1      -0.494  -0.727  24.424  0.00  0.00    +0.004 A 
ATOM     19  C   UNL     1      -0.718   0.067  24.423  0.00  0.00    +0.020 A 
BRANCH  17  20
ATOM     20  C   UNL     1      -0.491  -2.010  25.053  0.00  0.00    +0.173 C 
ATOM     21  C   UNL     1      -0.953  -2.570  24.659  0.00  0.00    +0.077 C 
ATOM     22  O   UNL     1       0.194  -2.245  25.449  0.00  0.00    -0.291 OA
ENDBRANCH  17  20
ENDBRANCH  11  14
ENDBRANCH  10  11
BRANCH   5   3
ATOM      3  C   UNL     1      -0.350   2.319  25.608  0.00  0.00    +0.334 C 
ATOM      4  O   UNL     1       0.266   2.175  25.078  0.00  0.00    -0.249 OA
BRANCH   3   2
ATOM      1  C   UNL     1       0.476   2.533  26.755  0.00  0.00    +0.256 C 
ATOM      2  O   UNL     1      -0.221   2.245  26.420  0.00  0.00    -0.443 OA
ENDBRANCH   3   2
ENDBRANCH   5   3
BRANCH  23  24
ATOM     24  C   UNL     1      -3.941   2.978  24.202  0.00  0.00    +0.134 C 
BRANCH  24  25
ATOM     25  C   UNL     1      -4.584   2.799  24.687  0.00  0.00    +0.000 A 
ATOM     26  C   UNL     1      -4.873   2.027  24.719  0.00  0.00    -0.002 A 
ATOM     27  C   UNL     1      -5.516   1.847  25.204  0.00  0.00    +0.011 A 
ATOM     28  C   UNL     1      -5.870   2.440  25.656  0.00  0.00    +0.058 A 
ATOM     29 CL   UNL     1      -6.513   2.260  26.141  0.00  0.00    -0.082 Cl
ATOM     30  C   UNL     1      -5.581   3.211  25.624  0.00  0.00    +0.011 A 
ATOM     31  C   UNL     1      -4.938   3.391  25.139  0.00  0.00    -0.002 A 
ENDBRANCH  24  25
ENDBRANCH  23  24
TORSDOF 7
ENDMDL
MODEL 6
REMARK VINA RESULT:      -9.4      2.165      5.028
REMARK  Name = 
REMARK  7 active torsions:
REMARK  status: ('A' for Active; 'I' for Inactive)
REMARK    1  A    between atoms: O_2  and  C_3
REMARK    2  A    between atoms: C_3  and  C_5
REMARK    3  A    between atoms: N_10  and  S_11
REMARK    4  A    between atoms: S_11  and  C_14
REMARK    5  A    between atoms: C_17  and  C_20
REMARK    6  A    between atoms: N_23  and  C_24
REMARK    7  A    between atoms: C_24  and  C_25
REMARK                            x       y       z     vdW  Elec       q    Type
REMARK                         _______ _______ _______ _____ _____    ______ ____
ROOT
ATOM      5  C   UNL     1      -0.183   0.441  24.343  0.00  0.00    +0.184 C 
ATOM      6  C   UNL     1       0.380   1.042  24.386  0.00  0.00    +0.076 C 
ATOM      7  C   UNL     1       0.212   1.737  24.797  0.00  0.00    +0.076 A 
ATOM      8  C   UNL     1      -0.520   1.831  25.166  0.00  0.00    +0.070 A 
ATOM      9  C   UNL     1      -1.084   1.230  25.123  0.00  0.00    +0.141 C 
ATOM     10  N   UNL     1      -0.915   0.535  24.711  0.00  0.00    -0.140 NA
ATOM     23  N   UNL     1      -0.529   2.571  25.529  0.00  0.00    -0.307 N 
ATOM     32  C   UNL     1       0.197   2.935  25.385  0.00  0.00    +0.178 A 
ATOM     33  N   UNL     1       0.655   2.419  24.933  0.00  0.00    -0.229 NA
ENDROOT
BRANCH  10  11
ATOM     11  S   UNL     1      -1.479  -0.065  24.669  0.00  0.00    +0.064 S 
ATOM     12  O   UNL     1      -1.798   0.281  23.993  0.00  0.00    -0.153 OA
ATOM     13  O   UNL     1      -1.159  -0.413  25.346  0.00  0.00    -0.153 OA
BRANCH  11  14
ATOM     14  C   UNL     1      -2.043  -0.666  24.628  0.00  0.00    +0.122 A 
ATOM     15  C   UNL     1      -2.715  -0.569  24.159  0.00  0.00    +0.020 A 
ATOM     16  C   UNL     1      -3.279  -1.170  24.117  0.00  0.00    +0.004 A 
ATOM     17  C   UNL     1      -3.170  -1.868  24.544  0.00  0.00    +0.035 A 
ATOM     18  C   UNL     1      -2.498  -1.965  25.012  0.00  0.00    +0.004 A 
ATOM     19  C   UNL     1      -1.934  -1.364  25.054  0.00  0.00    +0.020 A 
BRANCH  17  20
ATOM     20  C   UNL     1      -3.735  -2.468  24.502  0.00  0.00    +0.173 C 
ATOM     21  C   UNL     1      -4.307  -2.455  23.907  0.00  0.00    +0.077 C 
ATOM     22  O   UNL     1      -3.727  -3.082  25.053  0.00  0.00    -0.291 OA
ENDBRANCH  17  20
ENDBRANCH  11  14
ENDBRANCH  10  11
BRANCH   5   3
ATOM      3  C   UNL     1      -0.015  -0.253  23.932  0.00  0.00    +0.334 C 
ATOM      4  O   UNL     1       0.168  -0.943  24.346  0.00  0.00    -0.249 OA
BRANCH   3   2
ATOM      1  C   UNL     1       0.616  -0.550  22.684  0.00  0.00    +0.256 C 
ATOM      2  O   UNL     1      -0.029  -0.259  23.107  0.00  0.00    -0.443 OA
ENDBRANCH   3   2
ENDBRANCH   5   3
BRANCH  23  24
ATOM     24  C   UNL     1      -1.155   2.892  25.961  0.00  0.00    +0.134 C 
BRANCH  24  25
ATOM     25  C   UNL     1      -1.498   3.604  25.724  0.00  0.00    +0.000 A 
ATOM     26  C   UNL     1      -2.319   3.679  25.698  0.00  0.00    -0.002 A 
ATOM     27  C   UNL     1      -2.662   4.391  25.461  0.00  0.00    +0.011 A 
ATOM     28  C   UNL     1      -2.182   5.028  25.249  0.00  0.00    +0.058 A 
ATOM     29 CL   UNL     1      -2.525   5.740  25.012  0.00  0.00    -0.082 Cl
ATOM     30  C   UNL     1      -1.362   4.954  25.274  0.00  0.00    +0.011 A 
ATOM     31  C   UNL     1      -1.019   4.242  25.511  0.00  0.00    -0.002 A 
ENDBRANCH  24  25
ENDBRANCH  23  24
TORSDOF 7
ENDMDL
MODEL 7
REMARK VINA RESULT:      -9.2      2.395      4.201
REMARK  Name = 
REMARK  7 active torsions:
REMARK  status: ('A' for Active; 'I' for Inactive)
REMARK    1  A    between atoms: O_2  and  C_3
REMARK    2  A    between atoms: C_3  and  C_5
REMARK    3  A    between atoms: N_10  and  S_11
REMARK    4  A    between atoms: S_11  and  C_14
REMARK    5  A    between atoms: C_17  and  C_20
REMARK    6  A    between atoms: N_23  and  C_24
REMARK    7  A    between atoms: C_24  and  C_25
REMARK                            x       y       z     vdW  Elec       q    Type
REMARK                         _______ _______ _______ _____ _____    ______ ____
ROOT
ATOM      5  C   UNL     1      -1.939  -0.704  25.053  0.00  0.00    +0.184 C 
ATOM      6  C   UNL     1      -2.691  -0.836  25.363  0.00  0.00    +0.076 C 
ATOM      7  C   UNL     1      -3.297  -0.294  25.224  0.00  0.00    +0.076 A 
ATOM      8  C   UNL     1      -3.150   0.382  24.774  0.00  0.00    +0.070 A 
ATOM      9  C   UNL     1      -2.396   0.515  24.464  0.00  0.00    +0.141 C 
ATOM     10  N   UNL     1      -1.791  -0.028  24.604  0.00  0.00    -0.140 NA
ATOM     23  N   UNL     1      -3.850   0.816  24.729  0.00  0.00    -0.307 N 
ATOM     32  C   UNL     1      -4.430   0.408  25.150  0.00  0.00    +0.178 A 
ATOM     33  N   UNL     1      -4.088  -0.277  25.455  0.00  0.00    -0.229 NA
ENDROOT
BRANCH  10  11
ATOM     11  S   UNL     1      -1.039   0.106  24.294  0.00  0.00    +0.064 S 
ATOM     12  O   UNL     1      -0.814   0.475  24.996  0.00  0.00    -0.153 OA
ATOM     13  O   UNL     1      -1.264  -0.263  23.590  0.00  0.00    -0.153 OA
BRANCH  11  14
ATOM     14  C   UNL     1      -0.286   0.239  23.983  0.00  0.00    +0.122 A 
ATOM     15  C   UNL     1       0.171   0.865  24.265  0.00  0.00    +0.020 A 
ATOM     16  C   UNL     1       0.923   0.999  23.954  0.00  0.00    +0.004 A 
ATOM     17  C   UNL     1       1.219   0.507  23.361  0.00  0.00    +0.035 A 
ATOM     18  C   UNL     1       0.761  -0.119  23.079  0.00  0.00    +0.004 A 
ATOM     19  C   UNL     1       0.009  -0.253  23.391  0.00  0.00    +0.020 A 
BRANCH  17  20
ATOM     20  C   UNL     1       1.971   0.641  23.051  0.00  0.00    +0.173 C 
ATOM     21  C   UNL     1       2.277   0.132  22.477  0.00  0.00    +0.077 C 
ATOM     22  O   UNL     1       2.417   1.283  23.313  0.00  0.00    -0.291 OA
ENDBRANCH  17  20
ENDBRANCH  11  14
ENDBRANCH  10  11
BRANCH   5   3
ATOM      3  C   UNL     1      -1.334  -1.246  25.193  0.00  0.00    +0.334 C 
ATOM      4  O   UNL     1      -0.778  -1.100  25.785  0.00  0.00    -0.249 OA
BRANCH   3   2
ATOM      1  C   UNL     1      -1.115  -2.655  25.104  0.00  0.00    +0.256 C 
ATOM      2  O   UNL     1      -1.284  -1.934  24.741  0.00  0.00    -0.443 OA
ENDBRANCH   3   2
ENDBRANCH   5   3
BRANCH  23  24
ATOM     24  C   UNL     1      -3.952   1.532  24.331  0.00  0.00    +0.134 C 
BRANCH  24  25
ATOM     25  C   UNL     1      -4.376   2.144  24.686  0.00  0.00    +0.000 A 
ATOM     26  C   UNL     1      -3.975   2.768  25.049  0.00  0.00    -0.002 A 
ATOM     27  C   UNL     1      -4.399   3.380  25.404  0.00  0.00    +0.011 A 
ATOM     28  C   UNL     1      -5.224   3.367  25.397  0.00  0.00    +0.058 A 
ATOM     29 CL   UNL     1      -5.648   3.979  25.752  0.00  0.00    -0.082 Cl
ATOM     30  C   UNL     1      -5.625   2.744  25.035  0.00  0.00    +0.011 A 
ATOM     31  C   UNL     1      -5.201   2.133  24.680  0.00  0.00    -0.002 A 
ENDBRANCH  24  25
ENDBRANCH  23  24
TORSDOF 7
ENDMDL
