MODEL 1
REMARK VINA RESULT:     -14.2      0.000      0.000
REMARK  Name = 
REMARK  1 active torsions:
REMARK  status: ('A' for Active; 'I' for Inactive)
REMARK    1  A    between atoms: C_19  and  C_21
REMARK                            x       y       z     vdW  Elec       q    Type
REMARK                         _______ _______ _______ _____ _____    ______ ____
ROOT
ATOM      1 BR   UNL     1      -0.490   4.618  25.024  0.00  0.00    -0.049 Br
ATOM      2  C   UNL     1      -1.246   4.290  25.065  0.00  0.00    +0.035 A 
ATOM      3  C   UNL     1      -1.899   4.773  25.204  0.00  0.00    +0.008 A 
ATOM      4  C   UNL     1      -2.654   4.444  25.245  0.00  0.00    +0.017 A 
ATOM      5  C   UNL     1      -2.757   3.632  25.146  0.00  0.00    +0.078 A 
ATOM      6  N   UNL     1      -3.551   3.419  25.207  0.00  0.00    -0.178 NA
ATOM      7  C   UNL     1      -3.889   2.669  25.143  0.00  0.00    +0.265 C 
ATOM      8  O   UNL     1      -4.708   2.636  25.231  0.00  0.00    -0.271 OA
ATOM      9  C   UNL     1      -3.515   1.946  25.003  0.00  0.00    +0.174 C 
ATOM     10  C   UNL     1      -4.058   1.326  24.979  0.00  0.00    +0.123 C 
ATOM     11  N   UNL     1      -3.797   0.555  24.845  0.00  0.00    -0.276 N 
ATOM     12  C   UNL     1      -2.994   0.405  24.734  0.00  0.00    +0.115 C 
ATOM     13  C   UNL     1      -2.451   1.025  24.757  0.00  0.00    +0.116 C 
ATOM     14  N   UNL     1      -2.712   1.797  24.891  0.00  0.00    -0.266 N 
ATOM     15  C   UNL     1      -2.084   2.331  24.893  0.00  0.00    +0.251 C 
ATOM     16  O   UNL     1      -1.336   2.006  24.765  0.00  0.00    -0.270 OA
ATOM     17  C   UNL     1      -2.104   3.149  25.006  0.00  0.00    +0.069 A 
ATOM     18  C   UNL     1      -1.348   3.477  24.966  0.00  0.00    +0.013 A 
ATOM     19  C   UNL     1      -4.340  -0.066  24.822  0.00  0.00    +0.225 C 
ATOM     20  O   UNL     1      -5.144   0.084  24.933  0.00  0.00    -0.275 OA
ENDROOT
BRANCH  19  21
ATOM     21  C   UNL     1      -4.079  -0.837  24.688  0.00  0.00    +0.077 C 
ATOM     22  C   UNL     1      -3.732  -1.268  25.300  0.00  0.00    +0.009 C 
ATOM     23  C   UNL     1      -3.472  -2.039  25.166  0.00  0.00    +0.000 C 
ATOM     24  C   UNL     1      -3.558  -2.379  24.419  0.00  0.00    +0.000 C 
ATOM     25  C   UNL     1      -3.905  -1.949  23.808  0.00  0.00    +0.000 C 
ATOM     26  C   UNL     1      -4.166  -1.177  23.942  0.00  0.00    +0.009 C 
ENDBRANCH  19  21
TORSDOF 1
ENDMDL
MODEL 2
REMARK VINA RESULT:     -14.0      1.972      5.034
REMARK  Name = 
REMARK  1 active torsions:
REMARK  status: ('A' for Active; 'I' for Inactive)
REMARK    1  A    between atoms: C_19  and  C_21
REMARK                            x       y       z     vdW  Elec       q    Type
REMARK                         _______ _______ _______ _____ _____    ______ ____
ROOT
ATOM      1 BR   UNL     1      -4.399  -2.126  23.783  0.00  0.00    -0.049 Br
ATOM      2  C   UNL     1      -3.745  -1.810  24.174  0.00  0.00    +0.035 A 
ATOM      3  C   UNL     1      -3.202  -2.310  24.543  0.00  0.00    +0.008 A 
ATOM      4  C   UNL     1      -2.548  -1.992  24.933  0.00  0.00    +0.017 A 
ATOM      5  C   UNL     1      -2.437  -1.176  24.954  0.00  0.00    +0.078 A 
ATOM      6  N   UNL     1      -1.753  -0.976  25.370  0.00  0.00    -0.178 NA
ATOM      7  C   UNL     1      -1.443  -0.226  25.520  0.00  0.00    +0.265 C 
ATOM      8  O   UNL     1      -0.744  -0.209  25.957  0.00  0.00    -0.271 OA
ATOM      9  C   UNL     1      -1.740   0.509  25.291  0.00  0.00    +0.174 C 
ATOM     10  C   UNL     1      -1.259   1.124  25.556  0.00  0.00    +0.123 C 
ATOM     11  N   UNL     1      -1.458   1.907  25.385  0.00  0.00    -0.276 N 
ATOM     12  C   UNL     1      -2.138   2.073  24.950  0.00  0.00    +0.115 C 
ATOM     13  C   UNL     1      -2.619   1.457  24.685  0.00  0.00    +0.116 C 
ATOM     14  N   UNL     1      -2.420   0.675  24.856  0.00  0.00    -0.266 N 
ATOM     15  C   UNL     1      -2.972   0.148  24.542  0.00  0.00    +0.251 C 
ATOM     16  O   UNL     1      -3.599   0.490  24.129  0.00  0.00    -0.270 OA
ATOM     17  C   UNL     1      -2.979  -0.676  24.586  0.00  0.00    +0.069 A 
ATOM     18  C   UNL     1      -3.633  -0.992  24.195  0.00  0.00    +0.013 A 
ATOM     19  C   UNL     1      -0.977   2.522  25.650  0.00  0.00    +0.225 C 
ATOM     20  O   UNL     1      -0.296   2.355  26.086  0.00  0.00    -0.275 OA
ENDROOT
BRANCH  19  21
ATOM     21  C   UNL     1      -1.176   3.304  25.479  0.00  0.00    +0.077 C 
ATOM     22  C   UNL     1      -1.796   3.670  25.882  0.00  0.00    +0.009 C 
ATOM     23  C   UNL     1      -1.995   4.452  25.711  0.00  0.00    +0.000 C 
ATOM     24  C   UNL     1      -1.574   4.868  25.137  0.00  0.00    +0.000 C 
ATOM     25  C   UNL     1      -0.954   4.503  24.734  0.00  0.00    +0.000 C 
ATOM     26  C   UNL     1      -0.755   3.720  24.905  0.00  0.00    +0.009 C 
ENDBRANCH  19  21
TORSDOF 1
ENDMDL
MODEL 3
REMARK VINA RESULT:     -13.4      1.706      4.638
REMARK  Name = 
REMARK  1 active torsions:
REMARK  status: ('A' for Active; 'I' for Inactive)
REMARK    1  A    between atoms: C_19  and  C_21
REMARK                            x       y       z     vdW  Elec       q    Type
REMARK                         _______ _______ _______ _____ _____    ______ ____
ROOT
ATOM      1 BR   UNL     1      -2.230  -2.790  24.469  0.00  0.00    -0.049 Br
ATOM      2  C   UNL     1      -2.757  -2.157  24.488  0.00  0.00    +0.035 A 
ATOM      3  C   UNL     1      -3.565  -2.289  24.390  0.00  0.00    +0.008 A 
ATOM      4  C   UNL     1      -4.093  -1.655  24.409  0.00  0.00    +0.017 A 
ATOM      5  C   UNL     1      -3.812  -0.889  24.527  0.00  0.00    +0.078 A 
ATOM      6  N   UNL     1      -4.428  -0.340  24.528  0.00  0.00    -0.178 NA
ATOM      7  C   UNL     1      -4.387   0.478  24.627  0.00  0.00    +0.265 C 
ATOM      8  O   UNL     1      -5.107   0.879  24.600  0.00  0.00    -0.271 OA
ATOM      9  C   UNL     1      -3.721   0.949  24.751  0.00  0.00    +0.174 C 
ATOM     10  C   UNL     1      -3.923   1.745  24.823  0.00  0.00    +0.123 C 
ATOM     11  N   UNL     1      -3.336   2.311  24.950  0.00  0.00    -0.276 N 
ATOM     12  C   UNL     1      -2.546   2.079  25.004  0.00  0.00    +0.115 C 
ATOM     13  C   UNL     1      -2.343   1.283  24.932  0.00  0.00    +0.116 C 
ATOM     14  N   UNL     1      -2.931   0.718  24.806  0.00  0.00    -0.266 N 
ATOM     15  C   UNL     1      -2.612  -0.041  24.750  0.00  0.00    +0.251 C 
ATOM     16  O   UNL     1      -1.792  -0.091  24.829  0.00  0.00    -0.270 OA
ATOM     17  C   UNL     1      -3.004  -0.757  24.626  0.00  0.00    +0.069 A 
ATOM     18  C   UNL     1      -2.477  -1.390  24.607  0.00  0.00    +0.013 A 
ATOM     19  C   UNL     1      -3.538   3.107  25.021  0.00  0.00    +0.225 C 
ATOM     20  O   UNL     1      -4.329   3.339  24.967  0.00  0.00    -0.275 OA
ENDROOT
BRANCH  19  21
ATOM     21  C   UNL     1      -2.951   3.673  25.148  0.00  0.00    +0.077 C 
ATOM     22  C   UNL     1      -2.545   3.997  24.507  0.00  0.00    +0.009 C 
ATOM     23  C   UNL     1      -1.958   4.562  24.634  0.00  0.00    +0.000 C 
ATOM     24  C   UNL     1      -1.777   4.803  25.402  0.00  0.00    +0.000 C 
ATOM     25  C   UNL     1      -2.182   4.478  26.042  0.00  0.00    +0.000 C 
ATOM     26  C   UNL     1      -2.769   3.913  25.916  0.00  0.00    +0.009 C 
ENDBRANCH  19  21
TORSDOF 1
ENDMDL
MODEL 4
REMARK VINA RESULT:     -13.1      1.308      2.184
REMARK  Name = 
REMARK  1 active torsions:
REMARK  status: ('A' for Active; 'I' for Inactive)
REMARK    1  A    between atoms: C_19  and  C_21
REMARK                            x       y       z     vdW  Elec       q    Type
REMARK                         _______ _______ _______ _____ _____    ______ ____
ROOT
ATOM      1 BR   UNL     1      -2.198   4.969  25.374  0.00  0.00    -0.049 Br
ATOM      2  C   UNL     1      -1.789   4.267  25.235  0.00  0.00    +0.035 A 
ATOM      3  C   UNL     1      -0.970   4.278  25.140  0.00  0.00    +0.008 A 
ATOM      4  C   UNL     1      -0.561   3.575  25.001  0.00  0.00    +0.017 A 
ATOM      5  C   UNL     1      -0.971   2.861  24.957  0.00  0.00    +0.078 A 
ATOM      6  N   UNL     1      -0.461   2.229  24.815  0.00  0.00    -0.178 NA
ATOM      7  C   UNL     1      -0.643   1.428  24.733  0.00  0.00    +0.265 C 
ATOM      8  O   UNL     1      -0.003   0.927  24.594  0.00  0.00    -0.271 OA
ATOM      9  C   UNL     1      -1.382   1.062  24.773  0.00  0.00    +0.174 C 
ATOM     10  C   UNL     1      -1.322   0.248  24.660  0.00  0.00    +0.123 C 
ATOM     11  N   UNL     1      -1.999  -0.223  24.679  0.00  0.00    -0.276 N 
ATOM     12  C   UNL     1      -2.737   0.122  24.810  0.00  0.00    +0.115 C 
ATOM     13  C   UNL     1      -2.797   0.936  24.923  0.00  0.00    +0.116 C 
ATOM     14  N   UNL     1      -2.120   1.407  24.904  0.00  0.00    -0.266 N 
ATOM     15  C   UNL     1      -2.302   2.202  25.028  0.00  0.00    +0.251 C 
ATOM     16  O   UNL     1      -3.100   2.373  25.144  0.00  0.00    -0.270 OA
ATOM     17  C   UNL     1      -1.790   2.850  25.052  0.00  0.00    +0.069 A 
ATOM     18  C   UNL     1      -2.199   3.552  25.190  0.00  0.00    +0.013 A 
ATOM     19  C   UNL     1      -1.938  -1.038  24.567  0.00  0.00    +0.225 C 
ATOM     20  O   UNL     1      -1.200  -1.383  24.435  0.00  0.00    -0.275 OA
ENDROOT
BRANCH  19  21
ATOM     21  C   UNL     1      -2.616  -1.509  24.585  0.00  0.00    +0.077 C 
ATOM     22  C   UNL     1      -3.079  -1.593  23.908  0.00  0.00    +0.009 C 
ATOM     23  C   UNL     1      -3.756  -2.063  23.927  0.00  0.00    +0.000 C 
ATOM     24  C   UNL     1      -3.970  -2.450  24.623  0.00  0.00    +0.000 C 
ATOM     25  C   UNL     1      -3.507  -2.366  25.301  0.00  0.00    +0.000 C 
ATOM     26  C   UNL     1      -2.829  -1.895  25.282  0.00  0.00    +0.009 C 
ENDBRANCH  19  21
TORSDOF 1
ENDMDL
MODEL 5
REMARK VINA RESULT:     -12.7      1.519      2.390
REMARK  Name = 
REMARK  1 active torsions:
REMARK  status: ('A' for Active; 'I' for Inactive)
REMARK    1  A    between atoms: C_19  and  C_21
REMARK                            x       y       z     vdW  Elec       q    Type
REMARK                         _______ _______ _______ _____ _____    ______ ____
ROOT
ATOM      1 BR   UNL     1      -5.766   4.227  25.591  0.00  0.00    -0.049 Br
ATOM      2  C   UNL     1      -5.078   3.806  25.422  0.00  0.00    +0.035 A 
ATOM      3  C   UNL     1      -4.361   4.203  25.335  0.00  0.00    +0.008 A 
ATOM      4  C   UNL     1      -3.673   3.780  25.166  0.00  0.00    +0.017 A 
ATOM      5  C   UNL     1      -3.702   2.960  25.084  0.00  0.00    +0.078 A 
ATOM      6  N   UNL     1      -2.957   2.648  24.916  0.00  0.00    -0.178 NA
ATOM      7  C   UNL     1      -2.746   1.860  24.794  0.00  0.00    +0.265 C 
ATOM      8  O   UNL     1      -1.948   1.724  24.636  0.00  0.00    -0.271 OA
ATOM      9  C   UNL     1      -3.227   1.189  24.809  0.00  0.00    +0.174 C 
ATOM     10  C   UNL     1      -2.794   0.504  24.658  0.00  0.00    +0.123 C 
ATOM     11  N   UNL     1      -3.172  -0.229  24.648  0.00  0.00    -0.276 N 
ATOM     12  C   UNL     1      -3.983  -0.276  24.790  0.00  0.00    +0.115 C 
ATOM     13  C   UNL     1      -4.416   0.409  24.941  0.00  0.00    +0.116 C 
ATOM     14  N   UNL     1      -4.038   1.143  24.951  0.00  0.00    -0.266 N 
ATOM     15  C   UNL     1      -4.569   1.753  25.112  0.00  0.00    +0.251 C 
ATOM     16  O   UNL     1      -5.353   1.525  25.229  0.00  0.00    -0.270 OA
ATOM     17  C   UNL     1      -4.419   2.563  25.171  0.00  0.00    +0.069 A 
ATOM     18  C   UNL     1      -5.107   2.985  25.340  0.00  0.00    +0.013 A 
ATOM     19  C   UNL     1      -2.739  -0.915  24.497  0.00  0.00    +0.225 C 
ATOM     20  O   UNL     1      -1.927  -0.868  24.356  0.00  0.00    -0.275 OA
ENDROOT
BRANCH  19  21
ATOM     21  C   UNL     1      -3.118  -1.648  24.487  0.00  0.00    +0.077 C 
ATOM     22  C   UNL     1      -3.573  -1.868  23.837  0.00  0.00    +0.009 C 
ATOM     23  C   UNL     1      -3.952  -2.602  23.827  0.00  0.00    +0.000 C 
ATOM     24  C   UNL     1      -3.873  -3.114  24.468  0.00  0.00    +0.000 C 
ATOM     25  C   UNL     1      -3.418  -2.893  25.119  0.00  0.00    +0.000 C 
ATOM     26  C   UNL     1      -3.039  -2.160  25.129  0.00  0.00    +0.009 C 
ENDBRANCH  19  21
TORSDOF 1
ENDMDL
MODEL 6
REMARK VINA RESULT:     -11.4      2.330      3.951
REMARK  Name = 
REMARK  1 active torsions:
REMARK  status: ('A' for Active; 'I' for Inactive)
REMARK    1  A    between atoms: C_19  and  C_21
REMARK                            x       y       z     vdW  Elec       q    Type
REMARK                         _______ _______ _______ _____ _____    ______ ____
ROOT
ATOM      1 BR   UNL     1      -0.137  -2.051  25.134  0.00  0.00    -0.049 Br
ATOM      2  C   UNL     1      -0.380  -1.338  24.799  0.00  0.00    +0.035 A 
ATOM      3  C   UNL     1       0.102  -0.953  24.253  0.00  0.00    +0.008 A 
ATOM      4  C   UNL     1      -0.142  -0.239  23.918  0.00  0.00    +0.017 A 
ATOM      5  C   UNL     1      -0.868   0.089  24.130  0.00  0.00    +0.078 A 
ATOM      6  N   UNL     1      -1.005   0.800  23.734  0.00  0.00    -0.178 NA
ATOM      7  C   UNL     1      -1.658   1.300  23.787  0.00  0.00    +0.265 C 
ATOM      8  O   UNL     1      -1.630   1.977  23.316  0.00  0.00    -0.271 OA
ATOM      9  C   UNL     1      -2.337   1.215  24.249  0.00  0.00    +0.174 C 
ATOM     10  C   UNL     1      -2.859   1.843  24.138  0.00  0.00    +0.123 C 
ATOM     11  N   UNL     1      -3.573   1.864  24.550  0.00  0.00    -0.276 N 
ATOM     12  C   UNL     1      -3.765   1.256  25.074  0.00  0.00    +0.115 C 
ATOM     13  C   UNL     1      -3.242   0.628  25.185  0.00  0.00    +0.116 C 
ATOM     14  N   UNL     1      -2.528   0.607  24.773  0.00  0.00    -0.266 N 
ATOM     15  C   UNL     1      -2.090  -0.065  24.963  0.00  0.00    +0.251 C 
ATOM     16  O   UNL     1      -2.436  -0.575  25.512  0.00  0.00    -0.270 OA
ATOM     17  C   UNL     1      -1.350  -0.296  24.677  0.00  0.00    +0.069 A 
ATOM     18  C   UNL     1      -1.107  -1.009  25.012  0.00  0.00    +0.013 A 
ATOM     19  C   UNL     1      -4.095   2.493  24.439  0.00  0.00    +0.225 C 
ATOM     20  O   UNL     1      -3.904   3.101  23.915  0.00  0.00    -0.275 OA
ENDROOT
BRANCH  19  21
ATOM     21  C   UNL     1      -4.810   2.514  24.851  0.00  0.00    +0.077 C 
ATOM     22  C   UNL     1      -4.884   2.984  25.524  0.00  0.00    +0.009 C 
ATOM     23  C   UNL     1      -5.599   3.005  25.936  0.00  0.00    +0.000 C 
ATOM     24  C   UNL     1      -6.238   2.555  25.675  0.00  0.00    +0.000 C 
ATOM     25  C   UNL     1      -6.164   2.084  25.002  0.00  0.00    +0.000 C 
ATOM     26  C   UNL     1      -5.449   2.063  24.590  0.00  0.00    +0.009 C 
ENDBRANCH  19  21
TORSDOF 1
ENDMDL
