MODEL 1
REMARK VINA RESULT:      -9.2      0.000      0.000
REMARK  Name = 
REMARK  8 active torsions:
REMARK  status: ('A' for Active; 'I' for Inactive)
REMARK    1  A    between atoms: C_2  and  N_4
REMARK    2  A    between atoms: N_7  and  C_8
REMARK    3  A    between atoms: C_12  and  C_13
REMARK    4  A    between atoms: N_15  and  C_16
REMARK    5  A    between atoms: C_16  and  C_17
REMARK    6  A    between atoms: C_16  and  C_23
REMARK    7  A    between atoms: C_17  and  C_18
REMARK    8  A    between atoms: C_26  and  C_28
REMARK                            x       y       z     vdW  Elec       q    Type
REMARK                         _______ _______ _______ _____ _____    ______ ____
ROOT
ATOM      8  C   UNL     1      -2.043   0.789  25.135  0.00  0.00    +0.126 C 
ATOM      9  C   UNL     1      -1.712   0.102  25.450  0.00  0.00    +0.045 C 
ATOM     10  C   UNL     1      -2.181  -0.536  25.219  0.00  0.00    +0.096 C 
ATOM     11  N   UNL     1      -2.801  -0.244  24.761  0.00  0.00    -0.267 N 
ATOM     12  C   UNL     1      -2.717   0.575  24.708  0.00  0.00    +0.174 C 
ATOM     26  C   UNL     1      -3.403  -0.692  24.415  0.00  0.00    +0.269 C 
ATOM     27  O   UNL     1      -3.989  -0.321  23.969  0.00  0.00    -0.268 OA
ENDROOT
BRANCH  26  28
ATOM     28  C   UNL     1      -3.415  -1.511  24.516  0.00  0.00    +0.154 A 
ATOM     29  C   UNL     1      -3.663  -1.835  25.233  0.00  0.00    +0.123 A 
ATOM     30  N   UNL     1      -3.675  -2.653  25.332  0.00  0.00    -0.239 NA
ATOM     31  C   UNL     1      -3.440  -3.148  24.716  0.00  0.00    +0.120 A 
ATOM     32  C   UNL     1      -3.193  -2.824  23.999  0.00  0.00    +0.120 A 
ATOM     33  N   UNL     1      -3.180  -2.005  23.898  0.00  0.00    -0.236 NA
ENDBRANCH  26  28
BRANCH   8   7
ATOM      4  N   UNL     1      -0.688   2.439  25.588  0.00  0.00    -0.189 NA
ATOM      5  C   UNL     1      -0.979   1.673  25.494  0.00  0.00    +0.339 C 
ATOM      6  O   UNL     1      -0.499   1.025  25.665  0.00  0.00    -0.249 OA
ATOM      7  N   UNL     1      -1.752   1.555  25.229  0.00  0.00    -0.187 NA
BRANCH   4   2
ATOM      1  C   UNL     1       0.708   2.577  25.314  0.00  0.00    +0.023 C 
ATOM      2  C   UNL     1       0.084   2.558  25.854  0.00  0.00    +0.097 C 
ATOM      3  C   UNL     1       0.231   2.657  26.660  0.00  0.00    +0.023 C 
ENDBRANCH   4   2
ENDBRANCH   8   7
BRANCH  12  13
ATOM     13  C   UNL     1      -3.217   1.091  24.302  0.00  0.00    +0.262 C 
ATOM     14  O   UNL     1      -3.302   1.024  23.485  0.00  0.00    -0.271 OA
ATOM     15  N   UNL     1      -3.632   1.672  24.714  0.00  0.00    -0.196 NA
BRANCH  15  16
ATOM     16  C   UNL     1      -4.132   2.188  24.309  0.00  0.00    +0.179 C 
BRANCH  16  23
ATOM     23  C   UNL     1      -3.813   2.809  23.869  0.00  0.00    +0.281 C 
ATOM     24  N   UNL     1      -3.909   2.824  23.048  0.00  0.00    -0.086 NA
ATOM     25  O   UNL     1      -3.400   3.414  24.247  0.00  0.00    -0.270 OA
ENDBRANCH  16  23
BRANCH  16  17
ATOM     17  C   UNL     1      -4.949   2.083  24.344  0.00  0.00    +0.064 C 
BRANCH  17  18
ATOM     18  C   UNL     1      -5.358   2.258  25.038  0.00  0.00    +0.010 A 
ATOM     19  C   UNL     1      -5.860   1.747  25.448  0.00  0.00    +0.003 A 
ATOM     20  C   UNL     1      -6.149   2.148  26.108  0.00  0.00    +0.007 A 
ATOM     21  C   UNL     1      -5.826   2.906  26.107  0.00  0.00    +0.035 A 
ATOM     22  S   UNL     1      -5.337   2.975  25.446  0.00  0.00    -0.091 S 
ENDBRANCH  17  18
ENDBRANCH  16  17
ENDBRANCH  15  16
ENDBRANCH  12  13
TORSDOF 8
ENDMDL
MODEL 2
REMARK VINA RESULT:      -9.2      1.469      4.632
REMARK  Name = 
REMARK  8 active torsions:
REMARK  status: ('A' for Active; 'I' for Inactive)
REMARK    1  A    between atoms: C_2  and  N_4
REMARK    2  A    between atoms: N_7  and  C_8
REMARK    3  A    between atoms: C_12  and  C_13
REMARK    4  A    between atoms: N_15  and  C_16
REMARK    5  A    between atoms: C_16  and  C_17
REMARK    6  A    between atoms: C_16  and  C_23
REMARK    7  A    between atoms: C_17  and  C_18
REMARK    8  A    between atoms: C_26  and  C_28
REMARK                            x       y       z     vdW  Elec       q    Type
REMARK                         _______ _______ _______ _____ _____    ______ ____
ROOT
ATOM      8  C   UNL     1      -3.510   0.183  24.681  0.00  0.00    +0.126 C 
ATOM      9  C   UNL     1      -4.267   0.228  25.008  0.00  0.00    +0.045 C 
ATOM     10  C   UNL     1      -4.459   1.025  25.099  0.00  0.00    +0.096 C 
ATOM     11  N   UNL     1      -3.821   1.473  24.829  0.00  0.00    -0.267 N 
ATOM     12  C   UNL     1      -3.235   0.953  24.570  0.00  0.00    +0.174 C 
ATOM     26  C   UNL     1      -3.777   2.297  24.818  0.00  0.00    +0.269 C 
ATOM     27  O   UNL     1      -3.100   2.670  24.531  0.00  0.00    -0.268 OA
ENDROOT
BRANCH  26  28
ATOM     28  C   UNL     1      -4.410   2.747  25.097  0.00  0.00    +0.154 A 
ATOM     29  C   UNL     1      -4.356   3.132  25.824  0.00  0.00    +0.123 A 
ATOM     30  N   UNL     1      -4.989   3.581  26.101  0.00  0.00    -0.239 NA
ATOM     31  C   UNL     1      -5.678   3.645  25.651  0.00  0.00    +0.120 A 
ATOM     32  C   UNL     1      -5.732   3.260  24.923  0.00  0.00    +0.120 A 
ATOM     33  N   UNL     1      -5.098   2.811  24.646  0.00  0.00    -0.236 NA
ENDBRANCH  26  28
BRANCH   8   7
ATOM      4  N   UNL     1      -3.076  -1.932  24.360  0.00  0.00    -0.189 NA
ATOM      5  C   UNL     1      -3.484  -1.239  24.544  0.00  0.00    +0.339 C 
ATOM      6  O   UNL     1      -4.275  -1.275  24.774  0.00  0.00    -0.249 OA
ATOM      7  N   UNL     1      -3.102  -0.510  24.497  0.00  0.00    -0.187 NA
BRANCH   4   2
ATOM      1  C   UNL     1      -3.353  -3.140  25.070  0.00  0.00    +0.023 C 
ATOM      2  C   UNL     1      -3.458  -2.661  24.407  0.00  0.00    +0.097 C 
ATOM      3  C   UNL     1      -3.944  -2.911  23.789  0.00  0.00    +0.023 C 
ENDBRANCH   4   2
ENDBRANCH   8   7
BRANCH  12  13
ATOM     13  C   UNL     1      -2.502   1.165  24.256  0.00  0.00    +0.262 C 
ATOM     14  O   UNL     1      -2.451   1.456  23.487  0.00  0.00    -0.271 OA
ATOM     15  N   UNL     1      -1.820   1.085  24.713  0.00  0.00    -0.196 NA
BRANCH  15  16
ATOM     16  C   UNL     1      -1.086   1.296  24.401  0.00  0.00    +0.179 C 
BRANCH  16  23
ATOM     23  C   UNL     1      -0.640   0.740  23.987  0.00  0.00    +0.281 C 
ATOM     24  N   UNL     1      -0.422   0.886  23.204  0.00  0.00    -0.086 NA
ATOM     25  O   UNL     1      -0.411   0.037  24.354  0.00  0.00    -0.270 OA
ENDBRANCH  16  23
BRANCH  16  17
ATOM     17  C   UNL     1      -0.799   2.063  24.502  0.00  0.00    +0.064 C 
BRANCH  17  18
ATOM     18  C   UNL     1      -0.432   2.276  25.209  0.00  0.00    +0.010 A 
ATOM     19  C   UNL     1      -0.326   1.788  25.867  0.00  0.00    +0.003 A 
ATOM     20  C   UNL     1       0.066   2.225  26.447  0.00  0.00    +0.007 A 
ATOM     21  C   UNL     1       0.202   2.981  26.149  0.00  0.00    +0.035 A 
ATOM     22  S   UNL     1      -0.105   3.013  25.384  0.00  0.00    -0.091 S 
ENDBRANCH  17  18
ENDBRANCH  16  17
ENDBRANCH  15  16
ENDBRANCH  12  13
TORSDOF 8
ENDMDL
MODEL 3
REMARK VINA RESULT:      -9.2      1.447      3.388
REMARK  Name = 
REMARK  8 active torsions:
REMARK  status: ('A' for Active; 'I' for Inactive)
REMARK    1  A    between atoms: C_2  and  N_4
REMARK    2  A    between atoms: N_7  and  C_8
REMARK    3  A    between atoms: C_12  and  C_13
REMARK    4  A    between atoms: N_15  and  C_16
REMARK    5  A    between atoms: C_16  and  C_17
REMARK    6  A    between atoms: C_16  and  C_23
REMARK    7  A    between atoms: C_17  and  C_18
REMARK    8  A    between atoms: C_26  and  C_28
REMARK                            x       y       z     vdW  Elec       q    Type
REMARK                         _______ _______ _______ _____ _____    ______ ____
ROOT
ATOM      8  C   UNL     1      -3.856   1.188  24.569  0.00  0.00    +0.126 C 
ATOM      9  C   UNL     1      -4.479   0.686  24.767  0.00  0.00    +0.045 C 
ATOM     10  C   UNL     1      -4.209  -0.092  24.711  0.00  0.00    +0.096 C 
ATOM     11  N   UNL     1      -3.418  -0.070  24.478  0.00  0.00    -0.267 N 
ATOM     12  C   UNL     1      -3.199   0.721  24.391  0.00  0.00    +0.174 C 
ATOM     26  C   UNL     1      -2.929  -0.724  24.354  0.00  0.00    +0.269 C 
ATOM     27  O   UNL     1      -2.146  -0.615  24.121  0.00  0.00    -0.268 OA
ENDROOT
BRANCH  26  28
ATOM     28  C   UNL     1      -3.227  -1.486  24.464  0.00  0.00    +0.154 A 
ATOM     29  C   UNL     1      -3.099  -1.880  25.177  0.00  0.00    +0.123 A 
ATOM     30  N   UNL     1      -3.397  -2.642  25.285  0.00  0.00    -0.239 NA
ATOM     31  C   UNL     1      -3.822  -3.009  24.681  0.00  0.00    +0.120 A 
ATOM     32  C   UNL     1      -3.950  -2.614  23.969  0.00  0.00    +0.120 A 
ATOM     33  N   UNL     1      -3.652  -1.852  23.860  0.00  0.00    -0.236 NA
ENDBRANCH  26  28
BRANCH   8   7
ATOM      4  N   UNL     1      -4.424   3.242  25.041  0.00  0.00    -0.189 NA
ATOM      5  C   UNL     1      -4.396   2.418  25.057  0.00  0.00    +0.339 C 
ATOM      6  O   UNL     1      -4.880   1.999  25.576  0.00  0.00    -0.249 OA
ATOM      7  N   UNL     1      -3.884   2.013  24.553  0.00  0.00    -0.187 NA
BRANCH   4   2
ATOM      1  C   UNL     1      -5.724   3.761  25.329  0.00  0.00    +0.023 C 
ATOM      2  C   UNL     1      -4.936   3.648  25.544  0.00  0.00    +0.097 C 
ATOM      3  C   UNL     1      -4.658   3.941  26.264  0.00  0.00    +0.023 C 
ENDBRANCH   4   2
ENDBRANCH   8   7
BRANCH  12  13
ATOM     13  C   UNL     1      -2.455   0.998  24.164  0.00  0.00    +0.262 C 
ATOM     14  O   UNL     1      -2.227   0.967  23.373  0.00  0.00    -0.271 OA
ATOM     15  N   UNL     1      -1.940   1.304  24.731  0.00  0.00    -0.196 NA
BRANCH  15  16
ATOM     16  C   UNL     1      -1.196   1.581  24.506  0.00  0.00    +0.179 C 
BRANCH  16  23
ATOM     23  C   UNL     1      -0.525   1.125  24.655  0.00  0.00    +0.281 C 
ATOM     24  N   UNL     1       0.014   0.975  24.048  0.00  0.00    -0.086 NA
ATOM     25  O   UNL     1      -0.393   0.819  25.410  0.00  0.00    -0.270 OA
ENDBRANCH  16  23
BRANCH  16  17
ATOM     17  C   UNL     1      -1.123   2.313  24.132  0.00  0.00    +0.064 C 
BRANCH  17  18
ATOM     18  C   UNL     1      -0.984   2.991  24.579  0.00  0.00    +0.010 A 
ATOM     19  C   UNL     1      -0.918   3.026  25.401  0.00  0.00    +0.003 A 
ATOM     20  C   UNL     1      -0.779   3.812  25.613  0.00  0.00    +0.007 A 
ATOM     21  C   UNL     1      -0.760   4.262  24.923  0.00  0.00    +0.035 A 
ATOM     22  S   UNL     1      -0.886   3.756  24.284  0.00  0.00    -0.091 S 
ENDBRANCH  17  18
ENDBRANCH  16  17
ENDBRANCH  15  16
ENDBRANCH  12  13
TORSDOF 8
ENDMDL
MODEL 4
REMARK VINA RESULT:      -9.1      2.240      4.330
REMARK  Name = 
REMARK  8 active torsions:
REMARK  status: ('A' for Active; 'I' for Inactive)
REMARK    1  A    between atoms: C_2  and  N_4
REMARK    2  A    between atoms: N_7  and  C_8
REMARK    3  A    between atoms: C_12  and  C_13
REMARK    4  A    between atoms: N_15  and  C_16
REMARK    5  A    between atoms: C_16  and  C_17
REMARK    6  A    between atoms: C_16  and  C_23
REMARK    7  A    between atoms: C_17  and  C_18
REMARK    8  A    between atoms: C_26  and  C_28
REMARK                            x       y       z     vdW  Elec       q    Type
REMARK                         _______ _______ _______ _____ _____    ______ ____
ROOT
ATOM      8  C   UNL     1      -0.928   0.913  23.864  0.00  0.00    +0.126 C 
ATOM      9  C   UNL     1      -0.957   1.626  23.450  0.00  0.00    +0.045 C 
ATOM     10  C   UNL     1      -1.590   2.066  23.743  0.00  0.00    +0.096 C 
ATOM     11  N   UNL     1      -1.952   1.625  24.339  0.00  0.00    -0.267 N 
ATOM     12  C   UNL     1      -1.543   0.912  24.414  0.00  0.00    +0.174 C 
ATOM     26  C   UNL     1      -2.609   1.855  24.783  0.00  0.00    +0.269 C 
ATOM     27  O   UNL     1      -2.911   1.354  25.363  0.00  0.00    -0.268 OA
ENDROOT
BRANCH  26  28
ATOM     28  C   UNL     1      -2.962   2.588  24.645  0.00  0.00    +0.154 A 
ATOM     29  C   UNL     1      -3.577   2.655  24.099  0.00  0.00    +0.123 A 
ATOM     30  N   UNL     1      -3.929   3.388  23.962  0.00  0.00    -0.239 NA
ATOM     31  C   UNL     1      -3.666   4.055  24.371  0.00  0.00    +0.120 A 
ATOM     32  C   UNL     1      -3.052   3.988  24.917  0.00  0.00    +0.120 A 
ATOM     33  N   UNL     1      -2.699   3.255  25.054  0.00  0.00    -0.236 NA
ENDBRANCH  26  28
BRANCH   8   7
ATOM      4  N   UNL     1       0.860  -0.153  23.207  0.00  0.00    -0.189 NA
ATOM      5  C   UNL     1       0.312   0.452  23.322  0.00  0.00    +0.339 C 
ATOM      6  O   UNL     1       0.454   1.202  23.011  0.00  0.00    -0.249 OA
ATOM      7  N   UNL     1      -0.379   0.307  23.749  0.00  0.00    -0.187 NA
BRANCH   4   2
ATOM      1  C   UNL     1       2.189   0.367  23.143  0.00  0.00    +0.023 C 
ATOM      2  C   UNL     1       1.551  -0.009  22.780  0.00  0.00    +0.097 C 
ATOM      3  C   UNL     1       1.602  -0.242  21.990  0.00  0.00    +0.023 C 
ENDBRANCH   4   2
ENDBRANCH   8   7
BRANCH  12  13
ATOM     13  C   UNL     1      -1.718   0.305  24.945  0.00  0.00    +0.262 C 
ATOM     14  O   UNL     1      -1.596   0.416  25.753  0.00  0.00    -0.271 OA
ATOM     15  N   UNL     1      -2.014  -0.413  24.667  0.00  0.00    -0.196 NA
BRANCH  15  16
ATOM     16  C   UNL     1      -2.189  -1.020  25.197  0.00  0.00    +0.179 C 
BRANCH  16  23
ATOM     23  C   UNL     1      -1.577  -1.439  25.559  0.00  0.00    +0.281 C 
ATOM     24  N   UNL     1      -1.449  -1.361  26.371  0.00  0.00    -0.086 NA
ATOM     25  O   UNL     1      -1.094  -1.935  25.110  0.00  0.00    -0.270 OA
ENDBRANCH  16  23
BRANCH  16  17
ATOM     17  C   UNL     1      -2.975  -1.209  25.365  0.00  0.00    +0.064 C 
BRANCH  17  18
ATOM     18  C   UNL     1      -3.414  -1.656  24.829  0.00  0.00    +0.010 A 
ATOM     19  C   UNL     1      -3.958  -1.362  24.282  0.00  0.00    +0.003 A 
ATOM     20  C   UNL     1      -4.267  -2.001  23.862  0.00  0.00    +0.007 A 
ATOM     21  C   UNL     1      -3.916  -2.689  24.148  0.00  0.00    +0.035 A 
ATOM     22  S   UNL     1      -3.389  -2.476  24.746  0.00  0.00    -0.091 S 
ENDBRANCH  17  18
ENDBRANCH  16  17
ENDBRANCH  15  16
ENDBRANCH  12  13
TORSDOF 8
ENDMDL
MODEL 5
REMARK VINA RESULT:      -9.0      2.199      4.132
REMARK  Name = 
REMARK  8 active torsions:
REMARK  status: ('A' for Active; 'I' for Inactive)
REMARK    1  A    between atoms: C_2  and  N_4
REMARK    2  A    between atoms: N_7  and  C_8
REMARK    3  A    between atoms: C_12  and  C_13
REMARK    4  A    between atoms: N_15  and  C_16
REMARK    5  A    between atoms: C_16  and  C_17
REMARK    6  A    between atoms: C_16  and  C_23
REMARK    7  A    between atoms: C_17  and  C_18
REMARK    8  A    between atoms: C_26  and  C_28
REMARK                            x       y       z     vdW  Elec       q    Type
REMARK                         _______ _______ _______ _____ _____    ______ ____
ROOT
ATOM      8  C   UNL     1      -1.947   1.403  24.455  0.00  0.00    +0.126 C 
ATOM      9  C   UNL     1      -1.452   1.843  23.964  0.00  0.00    +0.045 C 
ATOM     10  C   UNL     1      -0.813   1.367  23.751  0.00  0.00    +0.096 C 
ATOM     11  N   UNL     1      -0.913   0.631  24.110  0.00  0.00    -0.267 N 
ATOM     12  C   UNL     1      -1.613   0.653  24.546  0.00  0.00    +0.174 C 
ATOM     26  C   UNL     1      -0.402  -0.015  24.047  0.00  0.00    +0.269 C 
ATOM     27  O   UNL     1      -0.576  -0.718  24.440  0.00  0.00    -0.268 OA
ENDROOT
BRANCH  26  28
ATOM     28  C   UNL     1       0.282   0.046  23.589  0.00  0.00    +0.154 A 
ATOM     29  C   UNL     1       0.329  -0.343  22.863  0.00  0.00    +0.123 A 
ATOM     30  N   UNL     1       1.013  -0.281  22.407  0.00  0.00    -0.239 NA
ATOM     31  C   UNL     1       1.650   0.168  22.676  0.00  0.00    +0.120 A 
ATOM     32  C   UNL     1       1.603   0.557  23.402  0.00  0.00    +0.120 A 
ATOM     33  N   UNL     1       0.919   0.496  23.859  0.00  0.00    -0.236 NA
ENDBRANCH  26  28
BRANCH   8   7
ATOM      4  N   UNL     1      -3.511   2.736  25.188  0.00  0.00    -0.189 NA
ATOM      5  C   UNL     1      -2.807   2.473  24.848  0.00  0.00    +0.339 C 
ATOM      6  O   UNL     1      -2.260   3.018  24.560  0.00  0.00    -0.249 OA
ATOM      7  N   UNL     1      -2.651   1.665  24.795  0.00  0.00    -0.187 NA
BRANCH   4   2
ATOM      1  C   UNL     1      -4.086   3.924  24.640  0.00  0.00    +0.023 C 
ATOM      2  C   UNL     1      -3.668   3.544  25.241  0.00  0.00    +0.097 C 
ATOM      3  C   UNL     1      -3.407   3.972  25.897  0.00  0.00    +0.023 C 
ENDBRANCH   4   2
ENDBRANCH   8   7
BRANCH  12  13
ATOM     13  C   UNL     1      -1.927   0.035  24.993  0.00  0.00    +0.262 C 
ATOM     14  O   UNL     1      -1.539  -0.220  25.675  0.00  0.00    -0.271 OA
ATOM     15  N   UNL     1      -2.629  -0.329  24.759  0.00  0.00    -0.196 NA
BRANCH  15  16
ATOM     16  C   UNL     1      -2.944  -0.947  25.205  0.00  0.00    +0.179 C 
BRANCH  16  23
ATOM     23  C   UNL     1      -3.401  -0.782  25.871  0.00  0.00    +0.281 C 
ATOM     24  N   UNL     1      -3.164  -1.057  26.613  0.00  0.00    -0.086 NA
ATOM     25  O   UNL     1      -4.095  -0.342  25.797  0.00  0.00    -0.270 OA
ENDBRANCH  16  23
BRANCH  16  17
ATOM     17  C   UNL     1      -2.801  -1.729  24.986  0.00  0.00    +0.064 C 
BRANCH  17  18
ATOM     18  C   UNL     1      -3.330  -2.122  24.492  0.00  0.00    +0.010 A 
ATOM     19  C   UNL     1      -3.851  -1.767  23.958  0.00  0.00    +0.003 A 
ATOM     20  C   UNL     1      -4.275  -2.365  23.580  0.00  0.00    +0.007 A 
ATOM     21  C   UNL     1      -4.017  -3.089  23.878  0.00  0.00    +0.035 A 
ATOM     22  S   UNL     1      -3.433  -2.939  24.442  0.00  0.00    -0.091 S 
ENDBRANCH  17  18
ENDBRANCH  16  17
ENDBRANCH  15  16
ENDBRANCH  12  13
TORSDOF 8
ENDMDL
MODEL 6
REMARK VINA RESULT:      -8.5      2.148      4.123
REMARK  Name = 
REMARK  8 active torsions:
REMARK  status: ('A' for Active; 'I' for Inactive)
REMARK    1  A    between atoms: C_2  and  N_4
REMARK    2  A    between atoms: N_7  and  C_8
REMARK    3  A    between atoms: C_12  and  C_13
REMARK    4  A    between atoms: N_15  and  C_16
REMARK    5  A    between atoms: C_16  and  C_17
REMARK    6  A    between atoms: C_16  and  C_23
REMARK    7  A    between atoms: C_17  and  C_18
REMARK    8  A    between atoms: C_26  and  C_28
REMARK                            x       y       z     vdW  Elec       q    Type
REMARK                         _______ _______ _______ _____ _____    ______ ____
ROOT
ATOM      8  C   UNL     1      -1.421  -0.478  24.487  0.00  0.00    +0.126 C 
ATOM      9  C   UNL     1      -0.746  -0.950  24.515  0.00  0.00    +0.045 C 
ATOM     10  C   UNL     1      -0.132  -0.541  24.146  0.00  0.00    +0.096 C 
ATOM     11  N   UNL     1      -0.428   0.185  23.889  0.00  0.00    -0.267 N 
ATOM     12  C   UNL     1      -1.225   0.224  24.100  0.00  0.00    +0.174 C 
ATOM     26  C   UNL     1      -0.003   0.770  23.492  0.00  0.00    +0.269 C 
ATOM     27  O   UNL     1      -0.375   1.471  23.268  0.00  0.00    -0.268 OA
ENDROOT
BRANCH  26  28
ATOM     28  C   UNL     1       0.795   0.652  23.318  0.00  0.00    +0.154 A 
ATOM     29  C   UNL     1       1.373   1.090  23.712  0.00  0.00    +0.123 A 
ATOM     30  N   UNL     1       2.170   0.972  23.538  0.00  0.00    -0.239 NA
ATOM     31  C   UNL     1       2.390   0.415  22.970  0.00  0.00    +0.120 A 
ATOM     32  C   UNL     1       1.813  -0.023  22.576  0.00  0.00    +0.120 A 
ATOM     33  N   UNL     1       1.015   0.096  22.750  0.00  0.00    -0.236 NA
ENDBRANCH  26  28
BRANCH   8   7
ATOM      4  N   UNL     1      -3.190  -1.639  25.023  0.00  0.00    -0.189 NA
ATOM      5  C   UNL     1      -2.449  -1.444  24.718  0.00  0.00    +0.339 C 
ATOM      6  O   UNL     1      -1.994  -2.018  24.341  0.00  0.00    -0.249 OA
ATOM      7  N   UNL     1      -2.163  -0.673  24.791  0.00  0.00    -0.187 NA
BRANCH   4   2
ATOM      1  C   UNL     1      -3.317  -2.966  25.537  0.00  0.00    +0.023 C 
ATOM      2  C   UNL     1      -3.477  -2.409  24.950  0.00  0.00    +0.097 C 
ATOM      3  C   UNL     1      -3.923  -2.621  24.289  0.00  0.00    +0.023 C 
ENDBRANCH   4   2
ENDBRANCH   8   7
BRANCH  12  13
ATOM     13  C   UNL     1      -1.737   0.854  23.950  0.00  0.00    +0.262 C 
ATOM     14  O   UNL     1      -1.980   1.014  23.179  0.00  0.00    -0.271 OA
ATOM     15  N   UNL     1      -2.005   1.324  24.573  0.00  0.00    -0.196 NA
BRANCH  15  16
ATOM     16  C   UNL     1      -2.517   1.953  24.424  0.00  0.00    +0.179 C 
BRANCH  16  23
ATOM     23  C   UNL     1      -3.331   1.824  24.394  0.00  0.00    +0.281 C 
ATOM     24  N   UNL     1      -3.747   1.978  23.698  0.00  0.00    -0.086 NA
ATOM     25  O   UNL     1      -3.729   1.540  25.059  0.00  0.00    -0.270 OA
ENDBRANCH  16  23
BRANCH  16  17
ATOM     17  C   UNL     1      -2.215   2.712  24.306  0.00  0.00    +0.064 C 
BRANCH  17  18
ATOM     18  C   UNL     1      -2.138   3.229  24.943  0.00  0.00    +0.010 A 
ATOM     19  C   UNL     1      -1.651   3.121  25.601  0.00  0.00    +0.003 A 
ATOM     20  C   UNL     1      -1.748   3.771  26.100  0.00  0.00    +0.007 A 
ATOM     21  C   UNL     1      -2.293   4.281  25.751  0.00  0.00    +0.035 A 
ATOM     22  S   UNL     1      -2.535   3.947  25.037  0.00  0.00    -0.091 S 
ENDBRANCH  17  18
ENDBRANCH  16  17
ENDBRANCH  15  16
ENDBRANCH  12  13
TORSDOF 8
ENDMDL
MODEL 7
REMARK VINA RESULT:      -8.3      1.747      4.952
REMARK  Name = 
REMARK  8 active torsions:
REMARK  status: ('A' for Active; 'I' for Inactive)
REMARK    1  A    between atoms: C_2  and  N_4
REMARK    2  A    between atoms: N_7  and  C_8
REMARK    3  A    between atoms: C_12  and  C_13
REMARK    4  A    between atoms: N_15  and  C_16
REMARK    5  A    between atoms: C_16  and  C_17
REMARK    6  A    between atoms: C_16  and  C_23
REMARK    7  A    between atoms: C_17  and  C_18
REMARK    8  A    between atoms: C_26  and  C_28
REMARK                            x       y       z     vdW  Elec       q    Type
REMARK                         _______ _______ _______ _____ _____    ______ ____
ROOT
ATOM      8  C   UNL     1      -3.395   2.133  24.770  0.00  0.00    +0.126 C 
ATOM      9  C   UNL     1      -3.450   2.947  24.891  0.00  0.00    +0.045 C 
ATOM     10  C   UNL     1      -2.694   3.268  24.817  0.00  0.00    +0.096 C 
ATOM     11  N   UNL     1      -2.171   2.652  24.650  0.00  0.00    -0.267 N 
ATOM     12  C   UNL     1      -2.604   1.950  24.621  0.00  0.00    +0.174 C 
ATOM     26  C   UNL     1      -1.357   2.724  24.533  0.00  0.00    +0.269 C 
ATOM     27  O   UNL     1      -0.904   2.055  24.369  0.00  0.00    -0.268 OA
ENDROOT
BRANCH  26  28
ATOM     28  C   UNL     1      -0.999   3.466  24.579  0.00  0.00    +0.154 A 
ATOM     29  C   UNL     1      -0.893   3.829  25.312  0.00  0.00    +0.123 A 
ATOM     30  N   UNL     1      -0.536   4.570  25.356  0.00  0.00    -0.239 NA
ATOM     31  C   UNL     1      -0.283   4.950  24.668  0.00  0.00    +0.120 A 
ATOM     32  C   UNL     1      -0.389   4.586  23.935  0.00  0.00    +0.120 A 
ATOM     33  N   UNL     1      -0.747   3.844  23.890  0.00  0.00    -0.236 NA
ENDBRANCH  26  28
BRANCH   8   7
ATOM      4  N   UNL     1      -5.399   1.311  25.043  0.00  0.00    -0.189 NA
ATOM      5  C   UNL     1      -4.773   1.849  25.019  0.00  0.00    +0.339 C 
ATOM      6  O   UNL     1      -4.900   2.638  25.219  0.00  0.00    -0.249 OA
ATOM      7  N   UNL     1      -4.021   1.595  24.794  0.00  0.00    -0.187 NA
BRANCH   4   2
ATOM      1  C   UNL     1      -6.691   1.814  24.696  0.00  0.00    +0.023 C 
ATOM      2  C   UNL     1      -6.152   1.564  25.268  0.00  0.00    +0.097 C 
ATOM      3  C   UNL     1      -6.364   1.565  26.065  0.00  0.00    +0.023 C 
ENDBRANCH   4   2
ENDBRANCH   8   7
BRANCH  12  13
ATOM     13  C   UNL     1      -2.301   1.198  24.470  0.00  0.00    +0.262 C 
ATOM     14  O   UNL     1      -2.036   1.003  23.714  0.00  0.00    -0.271 OA
ATOM     15  N   UNL     1      -2.263   0.640  25.077  0.00  0.00    -0.196 NA
BRANCH  15  16
ATOM     16  C   UNL     1      -1.960  -0.113  24.927  0.00  0.00    +0.179 C 
BRANCH  16  23
ATOM     23  C   UNL     1      -1.232  -0.334  25.246  0.00  0.00    +0.281 C 
ATOM     24  N   UNL     1      -0.651  -0.661  24.759  0.00  0.00    -0.086 NA
ATOM     25  O   UNL     1      -1.085  -0.228  26.051  0.00  0.00    -0.270 OA
ENDBRANCH  16  23
BRANCH  16  17
ATOM     17  C   UNL     1      -2.384  -0.643  24.459  0.00  0.00    +0.064 C 
BRANCH  17  18
ATOM     18  C   UNL     1      -2.830  -1.239  24.813  0.00  0.00    +0.010 A 
ATOM     19  C   UNL     1      -3.070  -1.263  25.602  0.00  0.00    +0.003 A 
ATOM     20  C   UNL     1      -3.503  -1.955  25.717  0.00  0.00    +0.007 A 
ATOM     21  C   UNL     1      -3.533  -2.360  24.999  0.00  0.00    +0.035 A 
ATOM     22  S   UNL     1      -3.117  -1.917  24.440  0.00  0.00    -0.091 S 
ENDBRANCH  17  18
ENDBRANCH  16  17
ENDBRANCH  15  16
ENDBRANCH  12  13
TORSDOF 8
ENDMDL
MODEL 8
REMARK VINA RESULT:      -8.3      2.025      2.734
REMARK  Name = 
REMARK  8 active torsions:
REMARK  status: ('A' for Active; 'I' for Inactive)
REMARK    1  A    between atoms: C_2  and  N_4
REMARK    2  A    between atoms: N_7  and  C_8
REMARK    3  A    between atoms: C_12  and  C_13
REMARK    4  A    between atoms: N_15  and  C_16
REMARK    5  A    between atoms: C_16  and  C_17
REMARK    6  A    between atoms: C_16  and  C_23
REMARK    7  A    between atoms: C_17  and  C_18
REMARK    8  A    between atoms: C_26  and  C_28
REMARK                            x       y       z     vdW  Elec       q    Type
REMARK                         _______ _______ _______ _____ _____    ______ ____
ROOT
ATOM      8  C   UNL     1      -0.450  -0.077  23.980  0.00  0.00    +0.126 C 
ATOM      9  C   UNL     1      -0.574  -0.850  23.718  0.00  0.00    +0.045 C 
ATOM     10  C   UNL     1      -1.283  -1.119  24.043  0.00  0.00    +0.096 C 
ATOM     11  N   UNL     1      -1.597  -0.513  24.505  0.00  0.00    -0.267 N 
ATOM     12  C   UNL     1      -1.083   0.131  24.467  0.00  0.00    +0.174 C 
ATOM     26  C   UNL     1      -2.303  -0.543  24.933  0.00  0.00    +0.269 C 
ATOM     27  O   UNL     1      -2.548   0.110  25.372  0.00  0.00    -0.268 OA
ENDROOT
BRANCH  26  28
ATOM     28  C   UNL     1      -2.763  -1.229  24.919  0.00  0.00    +0.154 A 
ATOM     29  C   UNL     1      -2.643  -1.818  25.484  0.00  0.00    +0.123 A 
ATOM     30  N   UNL     1      -3.103  -2.502  25.469  0.00  0.00    -0.239 NA
ATOM     31  C   UNL     1      -3.682  -2.598  24.889  0.00  0.00    +0.120 A 
ATOM     32  C   UNL     1      -3.801  -2.009  24.324  0.00  0.00    +0.120 A 
ATOM     33  N   UNL     1      -3.341  -1.324  24.339  0.00  0.00    -0.236 NA
ENDBRANCH  26  28
BRANCH   8   7
ATOM      4  N   UNL     1       1.467   0.573  23.162  0.00  0.00    -0.189 NA
ATOM      5  C   UNL     1       0.823   0.093  23.354  0.00  0.00    +0.339 C 
ATOM      6  O   UNL     1       0.809  -0.694  23.111  0.00  0.00    -0.249 OA
ATOM      7  N   UNL     1       0.194   0.402  23.788  0.00  0.00    -0.187 NA
BRANCH   4   2
ATOM      1  C   UNL     1       1.969  -0.027  21.967  0.00  0.00    +0.023 C 
ATOM      2  C   UNL     1       2.096   0.264  22.728  0.00  0.00    +0.097 C 
ATOM      3  C   UNL     1       2.853   0.249  23.055  0.00  0.00    +0.023 C 
ENDBRANCH   4   2
ENDBRANCH   8   7
BRANCH  12  13
ATOM     13  C   UNL     1      -1.183   0.857  24.847  0.00  0.00    +0.262 C 
ATOM     14  O   UNL     1      -1.021   0.926  25.652  0.00  0.00    -0.271 OA
ATOM     15  N   UNL     1      -1.444   1.513  24.421  0.00  0.00    -0.196 NA
BRANCH  15  16
ATOM     16  C   UNL     1      -1.544   2.239  24.800  0.00  0.00    +0.179 C 
BRANCH  16  23
ATOM     23  C   UNL     1      -0.916   2.771  24.841  0.00  0.00    +0.281 C 
ATOM     24  N   UNL     1      -0.627   3.012  25.576  0.00  0.00    -0.086 NA
ATOM     25  O   UNL     1      -0.576   3.064  24.148  0.00  0.00    -0.270 OA
ENDBRANCH  16  23
BRANCH  16  17
ATOM     17  C   UNL     1      -2.272   2.431  25.138  0.00  0.00    +0.064 C 
BRANCH  17  18
ATOM     18  C   UNL     1      -2.836   2.840  24.696  0.00  0.00    +0.010 A 
ATOM     19  C   UNL     1      -3.064   2.668  23.922  0.00  0.00    +0.003 A 
ATOM     20  C   UNL     1      -3.640   3.215  23.698  0.00  0.00    +0.007 A 
ATOM     21  C   UNL     1      -3.768   3.724  24.333  0.00  0.00    +0.035 A 
ATOM     22  S   UNL     1      -3.271   3.493  24.950  0.00  0.00    -0.091 S 
ENDBRANCH  17  18
ENDBRANCH  16  17
ENDBRANCH  15  16
ENDBRANCH  12  13
TORSDOF 8
ENDMDL
MODEL 9
REMARK VINA RESULT:      -8.2      0.915      3.751
REMARK  Name = 
REMARK  8 active torsions:
REMARK  status: ('A' for Active; 'I' for Inactive)
REMARK    1  A    between atoms: C_2  and  N_4
REMARK    2  A    between atoms: N_7  and  C_8
REMARK    3  A    between atoms: C_12  and  C_13
REMARK    4  A    between atoms: N_15  and  C_16
REMARK    5  A    between atoms: C_16  and  C_17
REMARK    6  A    between atoms: C_16  and  C_23
REMARK    7  A    between atoms: C_17  and  C_18
REMARK    8  A    between atoms: C_26  and  C_28
REMARK                            x       y       z     vdW  Elec       q    Type
REMARK                         _______ _______ _______ _____ _____    ______ ____
ROOT
ATOM      8  C   UNL     1      -2.656   0.359  24.940  0.00  0.00    +0.126 C 
ATOM      9  C   UNL     1      -1.961   0.066  25.272  0.00  0.00    +0.045 C 
ATOM     10  C   UNL     1      -1.431   0.693  25.355  0.00  0.00    +0.096 C 
ATOM     11  N   UNL     1      -1.800   1.375  25.074  0.00  0.00    -0.267 N 
ATOM     12  C   UNL     1      -2.557   1.170  24.817  0.00  0.00    +0.174 C 
ATOM     26  C   UNL     1      -1.470   2.132  25.053  0.00  0.00    +0.269 C 
ATOM     27  O   UNL     1      -1.908   2.764  24.755  0.00  0.00    -0.268 OA
ENDROOT
BRANCH  26  28
ATOM     28  C   UNL     1      -0.703   2.254  25.330  0.00  0.00    +0.154 A 
ATOM     29  C   UNL     1      -0.060   2.167  24.820  0.00  0.00    +0.123 A 
ATOM     30  N   UNL     1       0.706   2.289  25.099  0.00  0.00    -0.239 NA
ATOM     31  C   UNL     1       0.831   2.499  25.887  0.00  0.00    +0.120 A 
ATOM     32  C   UNL     1       0.188   2.586  26.397  0.00  0.00    +0.120 A 
ATOM     33  N   UNL     1      -0.579   2.464  26.118  0.00  0.00    -0.236 NA
ENDBRANCH  26  28
BRANCH   8   7
ATOM      4  N   UNL     1      -3.950  -1.331  24.458  0.00  0.00    -0.189 NA
ATOM      5  C   UNL     1      -3.274  -0.892  24.636  0.00  0.00    +0.339 C 
ATOM      6  O   UNL     1      -2.542  -1.266  24.690  0.00  0.00    -0.249 OA
ATOM      7  N   UNL     1      -3.332  -0.079  24.762  0.00  0.00    -0.187 NA
BRANCH   4   2
ATOM      1  C   UNL     1      -3.629  -2.638  24.939  0.00  0.00    +0.023 C 
ATOM      2  C   UNL     1      -3.893  -2.144  24.333  0.00  0.00    +0.097 C 
ATOM      3  C   UNL     1      -4.101  -2.463  23.601  0.00  0.00    +0.023 C 
ENDBRANCH   4   2
ENDBRANCH   8   7
BRANCH  12  13
ATOM     13  C   UNL     1      -3.117   1.683  24.495  0.00  0.00    +0.262 C 
ATOM     14  O   UNL     1      -3.121   1.834  23.684  0.00  0.00    -0.271 OA
ATOM     15  N   UNL     1      -3.674   2.045  24.984  0.00  0.00    -0.196 NA
BRANCH  15  16
ATOM     16  C   UNL     1      -4.234   2.559  24.663  0.00  0.00    +0.179 C 
BRANCH  16  23
ATOM     23  C   UNL     1      -4.051   3.357  24.564  0.00  0.00    +0.281 C 
ATOM     24  N   UNL     1      -4.082   3.696  23.811  0.00  0.00    -0.086 NA
ATOM     25  O   UNL     1      -3.838   3.816  25.215  0.00  0.00    -0.270 OA
ENDBRANCH  16  23
BRANCH  16  17
ATOM     17  C   UNL     1      -4.976   2.274  24.442  0.00  0.00    +0.064 C 
BRANCH  17  18
ATOM     18  C   UNL     1      -5.554   2.142  25.015  0.00  0.00    +0.010 A 
ATOM     19  C   UNL     1      -5.584   2.489  25.763  0.00  0.00    +0.003 A 
ATOM     20  C   UNL     1      -6.253   2.200  26.151  0.00  0.00    +0.007 A 
ATOM     21  C   UNL     1      -6.636   1.676  25.643  0.00  0.00    +0.035 A 
ATOM     22  S   UNL     1      -6.204   1.639  24.941  0.00  0.00    -0.091 S 
ENDBRANCH  17  18
ENDBRANCH  16  17
ENDBRANCH  15  16
ENDBRANCH  12  13
TORSDOF 8
ENDMDL
MODEL 10
REMARK VINA RESULT:      -8.1      2.135      4.041
REMARK  Name = 
REMARK  8 active torsions:
REMARK  status: ('A' for Active; 'I' for Inactive)
REMARK    1  A    between atoms: C_2  and  N_4
REMARK    2  A    between atoms: N_7  and  C_8
REMARK    3  A    between atoms: C_12  and  C_13
REMARK    4  A    between atoms: N_15  and  C_16
REMARK    5  A    between atoms: C_16  and  C_17
REMARK    6  A    between atoms: C_16  and  C_23
REMARK    7  A    between atoms: C_17  and  C_18
REMARK    8  A    between atoms: C_26  and  C_28
REMARK                            x       y       z     vdW  Elec       q    Type
REMARK                         _______ _______ _______ _____ _____    ______ ____
ROOT
ATOM      8  C   UNL     1      -2.864   1.075  24.520  0.00  0.00    +0.126 C 
ATOM      9  C   UNL     1      -3.585   0.686  24.427  0.00  0.00    +0.045 C 
ATOM     10  C   UNL     1      -3.456  -0.122  24.536  0.00  0.00    +0.096 C 
ATOM     11  N   UNL     1      -2.654  -0.231  24.697  0.00  0.00    -0.267 N 
ATOM     12  C   UNL     1      -2.288   0.508  24.687  0.00  0.00    +0.174 C 
ATOM     26  C   UNL     1      -2.282  -0.954  24.842  0.00  0.00    +0.269 C 
ATOM     27  O   UNL     1      -1.472  -0.977  24.995  0.00  0.00    -0.268 OA
ENDROOT
BRANCH  26  28
ATOM     28  C   UNL     1      -2.722  -1.652  24.834  0.00  0.00    +0.154 A 
ATOM     29  C   UNL     1      -3.105  -1.907  25.519  0.00  0.00    +0.123 A 
ATOM     30  N   UNL     1      -3.544  -2.605  25.509  0.00  0.00    -0.239 NA
ATOM     31  C   UNL     1      -3.601  -3.048  24.816  0.00  0.00    +0.120 A 
ATOM     32  C   UNL     1      -3.219  -2.792  24.131  0.00  0.00    +0.120 A 
ATOM     33  N   UNL     1      -2.779  -2.094  24.140  0.00  0.00    -0.236 NA
ENDBRANCH  26  28
BRANCH   8   7
ATOM      4  N   UNL     1      -3.220   3.227  24.595  0.00  0.00    -0.189 NA
ATOM      5  C   UNL     1      -3.344   2.414  24.658  0.00  0.00    +0.339 C 
ATOM      6  O   UNL     1      -4.070   2.126  24.921  0.00  0.00    -0.249 OA
ATOM      7  N   UNL     1      -2.740   1.889  24.457  0.00  0.00    -0.187 NA
BRANCH   4   2
ATOM      1  C   UNL     1      -3.941   3.966  25.584  0.00  0.00    +0.023 C 
ATOM      2  C   UNL     1      -3.823   3.753  24.795  0.00  0.00    +0.097 C 
ATOM      3  C   UNL     1      -4.309   4.066  24.206  0.00  0.00    +0.023 C 
ENDBRANCH   4   2
ENDBRANCH   8   7
BRANCH  12  13
ATOM     13  C   UNL     1      -1.487   0.656  24.820  0.00  0.00    +0.262 C 
ATOM     14  O   UNL     1      -1.179   0.605  25.583  0.00  0.00    -0.271 OA
ATOM     15  N   UNL     1      -0.995   0.855  24.189  0.00  0.00    -0.196 NA
BRANCH  15  16
ATOM     16  C   UNL     1      -0.194   1.003  24.321  0.00  0.00    +0.179 C 
BRANCH  16  23
ATOM     23  C   UNL     1       0.059   1.768  24.498  0.00  0.00    +0.281 C 
ATOM     24  N   UNL     1       0.438   1.920  25.216  0.00  0.00    -0.086 NA
ATOM     25  O   UNL     1      -0.066   2.379  23.959  0.00  0.00    -0.270 OA
ENDBRANCH  16  23
BRANCH  16  17
ATOM     17  C   UNL     1       0.353   0.387  24.275  0.00  0.00    +0.064 C 
BRANCH  17  18
ATOM     18  C   UNL     1       0.733   0.225  23.562  0.00  0.00    +0.010 A 
ATOM     19  C   UNL     1       0.387  -0.118  22.895  0.00  0.00    +0.003 A 
ATOM     20  C   UNL     1       0.966  -0.178  22.310  0.00  0.00    +0.007 A 
ATOM     21  C   UNL     1       1.669   0.127  22.614  0.00  0.00    +0.035 A 
ATOM     22  S   UNL     1       1.525   0.376  23.388  0.00  0.00    -0.091 S 
ENDBRANCH  17  18
ENDBRANCH  16  17
ENDBRANCH  15  16
ENDBRANCH  12  13
TORSDOF 8
ENDMDL
