REMARK  Name = 
REMARK  5 active torsions:
REMARK  status: ('A' for Active; 'I' for Inactive)
REMARK    1  A    between atoms: O_2  and  C_3
REMARK    2  A    between atoms: C_6  and  C_7
REMARK    3  A    between atoms: C_7  and  N_8
REMARK    4  A    between atoms: C_9  and  O_11
REMARK    5  A    between atoms: O_11  and  C_12
REMARK                            x       y       z     vdW  Elec       q    Type
REMARK                         _______ _______ _______ _____ _____    ______ ____
ROOT
ATOM     12  C   UNL     1      -1.333  -1.625   0.000  0.00  0.00    +0.220 C 
ATOM     13  C   UNL     1      -1.978  -1.110   0.000  0.00  0.00    +0.187 C 
ATOM     14  O   UNL     1      -1.978  -0.285   0.000  0.00  0.00    -0.348 OA
ATOM     15  C   UNL     1      -1.333   0.229   0.000  0.00  0.00    +0.164 C 
ATOM     16  C   UNL     1      -0.529   0.045   0.000  0.00  0.00    +0.125 C 
ATOM     17  N   UNL     1      -0.171  -0.698   0.000  0.00  0.00    -0.282 N 
ATOM     18  C   UNL     1      -0.529  -1.441   0.000  0.00  0.00    +0.139 C 
ATOM     19  C   UNL     1       0.654  -0.698   0.000  0.00  0.00    +0.163 A 
ATOM     20  N   UNL     1       1.139  -0.030   0.000  0.00  0.00    -0.224 NA
ATOM     21  C   UNL     1       1.923  -0.285   0.000  0.00  0.00    +0.089 A 
ATOM     22  C   UNL     1       2.638   0.127   0.000  0.00  0.00    +0.020 A 
ATOM     23  C   UNL     1       3.352  -0.285   0.000  0.00  0.00    +0.002 A 
ATOM     24  C   UNL     1       3.352  -1.110   0.000  0.00  0.00    +0.001 A 
ATOM     25  C   UNL     1       2.638  -1.523   0.000  0.00  0.00    +0.008 A 
ATOM     26  C   UNL     1       1.923  -1.110   0.000  0.00  0.00    +0.050 A 
ATOM     27  S   UNL     1       1.139  -1.365   0.000  0.00  0.00    -0.052 S 
ENDROOT
BRANCH  12  11
ATOM     11  O   UNL     1      -1.517  -2.429   0.000  0.00  0.00    -0.433 OA
BRANCH  11   9
ATOM      8  N   UNL     1      -2.489  -3.477   0.000  0.00  0.00    -0.164 NA
ATOM      9  C   UNL     1      -2.305  -2.672   0.000  0.00  0.00    +0.421 C 
ATOM     10  O   UNL     1      -2.910  -2.111   0.000  0.00  0.00    -0.225 OA
BRANCH   8   7
ATOM      7  C   UNL     1      -3.277  -3.720   0.000  0.00  0.00    +0.145 C 
BRANCH   7   6
ATOM      3  C   UNL     1      -5.092  -2.036   0.000  0.00  0.00    +0.139 A 
ATOM      4  C   UNL     1      -4.303  -1.793   0.000  0.00  0.00    +0.037 A 
ATOM      5  C   UNL     1      -3.699  -2.354   0.000  0.00  0.00    +0.001 A 
ATOM      6  C   UNL     1      -3.882  -3.159   0.000  0.00  0.00    -0.000 A 
ATOM     28  C   UNL     1      -4.670  -3.402   0.000  0.00  0.00    +0.001 A 
ATOM     29  C   UNL     1      -5.275  -2.841   0.000  0.00  0.00    +0.037 A 
BRANCH   3   2
ATOM      1  C   UNL     1      -6.485  -1.718   0.000  0.00  0.00    +0.252 C 
ATOM      2  O   UNL     1      -5.696  -1.475   0.000  0.00  0.00    -0.471 OA
ENDBRANCH   3   2
ENDBRANCH   7   6
ENDBRANCH   8   7
ENDBRANCH  11   9
ENDBRANCH  12  11
TORSDOF 5
