MODEL 1
REMARK VINA RESULT:     -12.5      0.000      0.000
REMARK  Name = 
REMARK  7 active torsions:
REMARK  status: ('A' for Active; 'I' for Inactive)
REMARK    1  A    between atoms: C_2  and  C_4
REMARK    2  A    between atoms: C_7  and  C_8
REMARK    3  A    between atoms: C_8  and  N_9
REMARK    4  A    between atoms: C_14  and  C_15
REMARK    5  A    between atoms: N_17  and  C_18
REMARK    6  A    between atoms: C_18  and  C_19
REMARK    7  A    between atoms: C_22  and  C_25
REMARK                            x       y       z     vdW  Elec       q    Type
REMARK                         _______ _______ _______ _____ _____    ______ ____
ROOT
ATOM      9  N   UNL     1      -3.073   2.498  24.530  0.00  0.00    -0.257 NA
ATOM     10  C   UNL     1      -3.207   3.145  25.024  0.00  0.00    +0.121 C 
ATOM     11  C   UNL     1      -3.976   3.340  25.251  0.00  0.00    +0.090 A 
ATOM     12  C   UNL     1      -4.611   2.888  24.983  0.00  0.00    +0.077 A 
ATOM     13  C   UNL     1      -4.478   2.240  24.489  0.00  0.00    +0.072 C 
ATOM     14  C   UNL     1      -3.709   2.046  24.263  0.00  0.00    +0.143 C 
ATOM     29  N   UNL     1      -5.303   3.209  25.296  0.00  0.00    -0.227 NA
ATOM     30  C   UNL     1      -5.095   3.861  25.757  0.00  0.00    +0.198 A 
ATOM     31  N   UNL     1      -4.275   3.942  25.728  0.00  0.00    -0.226 NA
ENDROOT
BRANCH  14  15
ATOM     15  C   UNL     1      -3.576   1.398  23.769  0.00  0.00    +0.257 C 
ATOM     16  O   UNL     1      -3.316   1.516  22.995  0.00  0.00    -0.272 OA
ATOM     17  N   UNL     1      -3.704   0.633  24.050  0.00  0.00    -0.199 NA
BRANCH  17  18
ATOM     18  C   UNL     1      -3.572  -0.015  23.556  0.00  0.00    +0.142 C 
BRANCH  18  19
ATOM     19  C   UNL     1      -3.583  -0.779  23.866  0.00  0.00    -0.001 A 
ATOM     20  C   UNL     1      -2.909  -1.088  24.225  0.00  0.00    -0.003 A 
ATOM     21  C   UNL     1      -2.920  -1.853  24.535  0.00  0.00    +0.004 A 
ATOM     22  C   UNL     1      -3.606  -2.309  24.484  0.00  0.00    +0.071 A 
ATOM     23  C   UNL     1      -4.281  -1.999  24.124  0.00  0.00    +0.004 A 
ATOM     24  C   UNL     1      -4.270  -1.234  23.815  0.00  0.00    -0.003 A 
BRANCH  22  25
ATOM     25  C   UNL     1      -3.617  -3.073  24.794  0.00  0.00    +0.419 C 
ATOM     26  F   UNL     1      -3.628  -3.838  25.103  0.00  0.00    -0.166 F 
ATOM     27  F   UNL     1      -3.612  -2.764  25.559  0.00  0.00    -0.166 F 
ATOM     28  F   UNL     1      -3.622  -3.382  24.030  0.00  0.00    -0.166 F 
ENDBRANCH  22  25
ENDBRANCH  18  19
ENDBRANCH  17  18
ENDBRANCH  14  15
BRANCH   9   8
ATOM      8  C   UNL     1      -2.305   2.304  24.304  0.00  0.00    +0.100 C 
BRANCH   8   7
ATOM      4  C   UNL     1      -0.444   2.530  25.920  0.00  0.00    +0.080 A 
ATOM      5  C   UNL     1      -0.875   1.828  25.883  0.00  0.00    +0.006 A 
ATOM      6  C   UNL     1      -1.495   1.753  25.344  0.00  0.00    -0.003 A 
ATOM      7  C   UNL     1      -1.685   2.379  24.842  0.00  0.00    -0.006 A 
ATOM     32  C   UNL     1      -1.253   3.082  24.879  0.00  0.00    -0.003 A 
ATOM     33  C   UNL     1      -0.633   3.158  25.418  0.00  0.00    +0.006 A 
BRANCH   4   2
ATOM      1  O   UNL     1       0.027   2.563  27.269  0.00  0.00    -0.241 OA
ATOM      2  C   UNL     1       0.176   2.606  26.458  0.00  0.00    +0.388 C 
ATOM      3  O   UNL     1       0.946   2.724  26.188  0.00  0.00    -0.241 OA
ENDBRANCH   4   2
ENDBRANCH   8   7
ENDBRANCH   9   8
TORSDOF 7
ENDMDL
MODEL 2
REMARK VINA RESULT:     -11.9      2.611      4.760
REMARK  Name = 
REMARK  7 active torsions:
REMARK  status: ('A' for Active; 'I' for Inactive)
REMARK    1  A    between atoms: C_2  and  C_4
REMARK    2  A    between atoms: C_7  and  C_8
REMARK    3  A    between atoms: C_8  and  N_9
REMARK    4  A    between atoms: C_14  and  C_15
REMARK    5  A    between atoms: N_17  and  C_18
REMARK    6  A    between atoms: C_18  and  C_19
REMARK    7  A    between atoms: C_22  and  C_25
REMARK                            x       y       z     vdW  Elec       q    Type
REMARK                         _______ _______ _______ _____ _____    ______ ____
ROOT
ATOM      9  N   UNL     1      -4.160   1.191  24.356  0.00  0.00    -0.257 NA
ATOM     10  C   UNL     1      -4.905   0.910  24.567  0.00  0.00    +0.121 C 
ATOM     11  C   UNL     1      -5.469   1.425  24.879  0.00  0.00    +0.090 A 
ATOM     12  C   UNL     1      -5.286   2.223  24.980  0.00  0.00    +0.077 A 
ATOM     13  C   UNL     1      -4.540   2.506  24.769  0.00  0.00    +0.072 C 
ATOM     14  C   UNL     1      -3.977   1.990  24.457  0.00  0.00    +0.143 C 
ATOM     29  N   UNL     1      -5.948   2.598  25.298  0.00  0.00    -0.227 NA
ATOM     30  C   UNL     1      -6.540   2.032  25.394  0.00  0.00    +0.198 A 
ATOM     31  N   UNL     1      -6.243   1.308  25.135  0.00  0.00    -0.226 NA
ENDROOT
BRANCH  14  15
ATOM     15  C   UNL     1      -3.231   2.273  24.246  0.00  0.00    +0.257 C 
ATOM     16  O   UNL     1      -3.058   2.430  23.455  0.00  0.00    -0.272 OA
ATOM     17  N   UNL     1      -2.658   2.398  24.828  0.00  0.00    -0.199 NA
BRANCH  17  18
ATOM     18  C   UNL     1      -1.913   2.681  24.617  0.00  0.00    +0.142 C 
BRANCH  18  19
ATOM     19  C   UNL     1      -1.297   2.671  25.166  0.00  0.00    -0.001 A 
ATOM     20  C   UNL     1      -0.697   2.109  25.102  0.00  0.00    -0.003 A 
ATOM     21  C   UNL     1      -0.081   2.099  25.651  0.00  0.00    +0.004 A 
ATOM     22  C   UNL     1      -0.065   2.651  26.263  0.00  0.00    +0.071 A 
ATOM     23  C   UNL     1      -0.666   3.214  26.327  0.00  0.00    +0.004 A 
ATOM     24  C   UNL     1      -1.282   3.224  25.778  0.00  0.00    -0.003 A 
BRANCH  22  25
ATOM     25  C   UNL     1       0.551   2.642  26.812  0.00  0.00    +0.419 C 
ATOM     26  F   UNL     1       1.167   2.632  27.361  0.00  0.00    -0.166 F 
ATOM     27  F   UNL     1       1.055   2.978  26.253  0.00  0.00    -0.166 F 
ATOM     28  F   UNL     1       0.047   2.305  27.371  0.00  0.00    -0.166 F 
ENDBRANCH  22  25
ENDBRANCH  18  19
ENDBRANCH  17  18
ENDBRANCH  14  15
BRANCH   9   8
ATOM      8  C   UNL     1      -3.597   0.676  24.045  0.00  0.00    +0.100 C 
BRANCH   8   7
ATOM      4  C   UNL     1      -3.709  -1.741  24.566  0.00  0.00    +0.080 A 
ATOM      5  C   UNL     1      -3.354  -1.221  25.098  0.00  0.00    +0.006 A 
ATOM      6  C   UNL     1      -3.317  -0.415  24.924  0.00  0.00    -0.003 A 
ATOM      7  C   UNL     1      -3.634  -0.129  24.219  0.00  0.00    -0.006 A 
ATOM     32  C   UNL     1      -3.990  -0.651  23.686  0.00  0.00    -0.003 A 
ATOM     33  C   UNL     1      -4.027  -1.456  23.860  0.00  0.00    +0.006 A 
BRANCH   4   2
ATOM      1  O   UNL     1      -3.522  -2.819  25.487  0.00  0.00    -0.241 OA
ATOM      2  C   UNL     1      -3.747  -2.546  24.740  0.00  0.00    +0.388 C 
ATOM      3  O   UNL     1      -4.008  -3.080  24.168  0.00  0.00    -0.241 OA
ENDBRANCH   4   2
ENDBRANCH   8   7
ENDBRANCH   9   8
TORSDOF 7
ENDMDL
MODEL 3
REMARK VINA RESULT:     -11.9      2.242      3.436
REMARK  Name = 
REMARK  7 active torsions:
REMARK  status: ('A' for Active; 'I' for Inactive)
REMARK    1  A    between atoms: C_2  and  C_4
REMARK    2  A    between atoms: C_7  and  C_8
REMARK    3  A    between atoms: C_8  and  N_9
REMARK    4  A    between atoms: C_14  and  C_15
REMARK    5  A    between atoms: N_17  and  C_18
REMARK    6  A    between atoms: C_18  and  C_19
REMARK    7  A    between atoms: C_22  and  C_25
REMARK                            x       y       z     vdW  Elec       q    Type
REMARK                         _______ _______ _______ _____ _____    ______ ____
ROOT
ATOM      9  N   UNL     1      -0.458   1.113  24.886  0.00  0.00    -0.257 NA
ATOM     10  C   UNL     1       0.111   1.514  24.446  0.00  0.00    +0.121 C 
ATOM     11  C   UNL     1       0.601   1.100  23.927  0.00  0.00    +0.090 A 
ATOM     12  C   UNL     1       0.520   0.283  23.848  0.00  0.00    +0.077 A 
ATOM     13  C   UNL     1      -0.051  -0.120  24.289  0.00  0.00    +0.072 C 
ATOM     14  C   UNL     1      -0.539   0.295  24.807  0.00  0.00    +0.143 C 
ATOM     29  N   UNL     1       1.076   0.023  23.297  0.00  0.00    -0.227 NA
ATOM     30  C   UNL     1       1.501   0.680  23.035  0.00  0.00    +0.198 A 
ATOM     31  N   UNL     1       1.207   1.345  23.425  0.00  0.00    -0.226 NA
ENDROOT
BRANCH  14  15
ATOM     15  C   UNL     1      -1.109  -0.107  25.247  0.00  0.00    +0.257 C 
ATOM     16  O   UNL     1      -1.038  -0.157  26.068  0.00  0.00    -0.272 OA
ATOM     17  N   UNL     1      -1.751  -0.461  24.866  0.00  0.00    -0.199 NA
BRANCH  17  18
ATOM     18  C   UNL     1      -2.320  -0.864  25.306  0.00  0.00    +0.142 C 
BRANCH  18  19
ATOM     19  C   UNL     1      -2.879  -1.335  24.924  0.00  0.00    -0.001 A 
ATOM     20  C   UNL     1      -2.765  -2.150  24.873  0.00  0.00    -0.003 A 
ATOM     21  C   UNL     1      -3.324  -2.622  24.491  0.00  0.00    +0.004 A 
ATOM     22  C   UNL     1      -3.998  -2.279  24.161  0.00  0.00    +0.071 A 
ATOM     23  C   UNL     1      -4.112  -1.463  24.213  0.00  0.00    +0.004 A 
ATOM     24  C   UNL     1      -3.553  -0.991  24.594  0.00  0.00    -0.003 A 
BRANCH  22  25
ATOM     25  C   UNL     1      -4.557  -2.750  23.780  0.00  0.00    +0.419 C 
ATOM     26  F   UNL     1      -5.116  -3.222  23.398  0.00  0.00    -0.166 F 
ATOM     27  F   UNL     1      -4.168  -3.427  24.047  0.00  0.00    -0.166 F 
ATOM     28  F   UNL     1      -4.945  -2.074  23.513  0.00  0.00    -0.166 F 
ENDBRANCH  22  25
ENDBRANCH  18  19
ENDBRANCH  17  18
ENDBRANCH  14  15
BRANCH   9   8
ATOM      8  C   UNL     1      -0.947   1.527  25.405  0.00  0.00    +0.100 C 
BRANCH   8   7
ATOM      4  C   UNL     1      -1.168   3.984  25.200  0.00  0.00    +0.080 A 
ATOM      5  C   UNL     1      -0.613   3.662  25.717  0.00  0.00    +0.006 A 
ATOM      6  C   UNL     1      -0.539   2.843  25.786  0.00  0.00    -0.003 A 
ATOM      7  C   UNL     1      -1.021   2.346  25.336  0.00  0.00    -0.006 A 
ATOM     32  C   UNL     1      -1.576   2.669  24.818  0.00  0.00    -0.003 A 
ATOM     33  C   UNL     1      -1.650   3.488  24.750  0.00  0.00    +0.006 A 
BRANCH   4   2
ATOM      1  O   UNL     1      -1.914   5.182  25.422  0.00  0.00    -0.241 OA
ATOM      2  C   UNL     1      -1.241   4.803  25.131  0.00  0.00    +0.388 C 
ATOM      3  O   UNL     1      -0.643   5.242  24.773  0.00  0.00    -0.241 OA
ENDBRANCH   4   2
ENDBRANCH   8   7
ENDBRANCH   9   8
TORSDOF 7
ENDMDL
MODEL 4
REMARK VINA RESULT:     -11.7      1.539      3.066
REMARK  Name = 
REMARK  7 active torsions:
REMARK  status: ('A' for Active; 'I' for Inactive)
REMARK    1  A    between atoms: C_2  and  C_4
REMARK    2  A    between atoms: C_7  and  C_8
REMARK    3  A    between atoms: C_8  and  N_9
REMARK    4  A    between atoms: C_14  and  C_15
REMARK    5  A    between atoms: N_17  and  C_18
REMARK    6  A    between atoms: C_18  and  C_19
REMARK    7  A    between atoms: C_22  and  C_25
REMARK                            x       y       z     vdW  Elec       q    Type
REMARK                         _______ _______ _______ _____ _____    ______ ____
ROOT
ATOM      9  N   UNL     1      -2.311   2.277  24.580  0.00  0.00    -0.257 NA
ATOM     10  C   UNL     1      -2.094   2.880  25.099  0.00  0.00    +0.121 C 
ATOM     11  C   UNL     1      -1.361   2.855  25.477  0.00  0.00    +0.090 A 
ATOM     12  C   UNL     1      -0.846   2.226  25.337  0.00  0.00    +0.077 A 
ATOM     13  C   UNL     1      -1.063   1.622  24.817  0.00  0.00    +0.072 C 
ATOM     14  C   UNL     1      -1.796   1.648  24.440  0.00  0.00    +0.143 C 
ATOM     29  N   UNL     1      -0.165   2.349  25.785  0.00  0.00    -0.227 NA
ATOM     30  C   UNL     1      -0.259   3.054  26.204  0.00  0.00    +0.198 A 
ATOM     31  N   UNL     1      -0.998   3.366  26.013  0.00  0.00    -0.226 NA
ENDROOT
BRANCH  14  15
ATOM     15  C   UNL     1      -2.013   1.045  23.921  0.00  0.00    +0.257 C 
ATOM     16  O   UNL     1      -2.001   1.176  23.106  0.00  0.00    -0.272 OA
ATOM     17  N   UNL     1      -2.242   0.309  24.217  0.00  0.00    -0.199 NA
BRANCH  17  18
ATOM     18  C   UNL     1      -2.459  -0.295  23.698  0.00  0.00    +0.142 C 
BRANCH  18  19
ATOM     19  C   UNL     1      -2.753  -1.007  23.993  0.00  0.00    -0.001 A 
ATOM     20  C   UNL     1      -2.239  -1.560  24.324  0.00  0.00    -0.003 A 
ATOM     21  C   UNL     1      -2.534  -2.272  24.619  0.00  0.00    +0.004 A 
ATOM     22  C   UNL     1      -3.342  -2.431  24.583  0.00  0.00    +0.071 A 
ATOM     23  C   UNL     1      -3.857  -1.877  24.251  0.00  0.00    +0.004 A 
ATOM     24  C   UNL     1      -3.562  -1.165  23.957  0.00  0.00    -0.003 A 
BRANCH  22  25
ATOM     25  C   UNL     1      -3.637  -3.143  24.877  0.00  0.00    +0.419 C 
ATOM     26  F   UNL     1      -3.931  -3.855  25.172  0.00  0.00    -0.166 F 
ATOM     27  F   UNL     1      -3.602  -2.840  25.644  0.00  0.00    -0.166 F 
ATOM     28  F   UNL     1      -3.671  -3.446  24.112  0.00  0.00    -0.166 F 
ENDBRANCH  22  25
ENDBRANCH  18  19
ENDBRANCH  17  18
ENDBRANCH  14  15
BRANCH   9   8
ATOM      8  C   UNL     1      -3.044   2.302  24.203  0.00  0.00    +0.100 C 
BRANCH   8   7
ATOM      4  C   UNL     1      -5.001   3.277  25.362  0.00  0.00    +0.080 A 
ATOM      5  C   UNL     1      -4.775   2.499  25.518  0.00  0.00    +0.006 A 
ATOM      6  C   UNL     1      -4.123   2.174  25.131  0.00  0.00    -0.003 A 
ATOM      7  C   UNL     1      -3.696   2.627  24.589  0.00  0.00    -0.006 A 
ATOM     32  C   UNL     1      -3.923   3.405  24.433  0.00  0.00    -0.003 A 
ATOM     33  C   UNL     1      -4.575   3.730  24.820  0.00  0.00    +0.006 A 
BRANCH   4   2
ATOM      1  O   UNL     1      -6.125   3.128  26.232  0.00  0.00    -0.241 OA
ATOM      2  C   UNL     1      -5.653   3.602  25.748  0.00  0.00    +0.388 C 
ATOM      3  O   UNL     1      -5.835   4.401  25.652  0.00  0.00    -0.241 OA
ENDBRANCH   4   2
ENDBRANCH   8   7
ENDBRANCH   9   8
TORSDOF 7
ENDMDL
MODEL 5
REMARK VINA RESULT:     -11.6      3.517      6.099
REMARK  Name = 
REMARK  7 active torsions:
REMARK  status: ('A' for Active; 'I' for Inactive)
REMARK    1  A    between atoms: C_2  and  C_4
REMARK    2  A    between atoms: C_7  and  C_8
REMARK    3  A    between atoms: C_8  and  N_9
REMARK    4  A    between atoms: C_14  and  C_15
REMARK    5  A    between atoms: N_17  and  C_18
REMARK    6  A    between atoms: C_18  and  C_19
REMARK    7  A    between atoms: C_22  and  C_25
REMARK                            x       y       z     vdW  Elec       q    Type
REMARK                         _______ _______ _______ _____ _____    ______ ____
ROOT
ATOM      9  N   UNL     1      -0.896   0.019  24.715  0.00  0.00    -0.257 NA
ATOM     10  C   UNL     1      -0.699  -0.520  24.124  0.00  0.00    +0.121 C 
ATOM     11  C   UNL     1      -0.040  -0.387  23.645  0.00  0.00    +0.090 A 
ATOM     12  C   UNL     1       0.422   0.287  23.759  0.00  0.00    +0.077 A 
ATOM     13  C   UNL     1       0.225   0.828  24.351  0.00  0.00    +0.072 C 
ATOM     14  C   UNL     1      -0.434   0.693  24.829  0.00  0.00    +0.143 C 
ATOM     29  N   UNL     1       1.034   0.273  23.207  0.00  0.00    -0.227 NA
ATOM     30  C   UNL     1       0.951  -0.410  22.752  0.00  0.00    +0.198 A 
ATOM     31  N   UNL     1       0.287  -0.817  23.023  0.00  0.00    -0.226 NA
ENDROOT
BRANCH  14  15
ATOM     15  C   UNL     1      -0.631   1.233  25.420  0.00  0.00    +0.257 C 
ATOM     16  O   UNL     1      -0.598   1.008  26.213  0.00  0.00    -0.272 OA
ATOM     17  N   UNL     1      -0.860   2.000  25.218  0.00  0.00    -0.199 NA
BRANCH  17  18
ATOM     18  C   UNL     1      -1.056   2.541  25.810  0.00  0.00    +0.142 C 
BRANCH  18  19
ATOM     19  C   UNL     1      -1.248   3.318  25.612  0.00  0.00    -0.001 A 
ATOM     20  C   UNL     1      -1.993   3.619  25.796  0.00  0.00    -0.003 A 
ATOM     21  C   UNL     1      -2.185   4.396  25.598  0.00  0.00    +0.004 A 
ATOM     22  C   UNL     1      -1.631   4.874  25.216  0.00  0.00    +0.071 A 
ATOM     23  C   UNL     1      -0.885   4.573  25.032  0.00  0.00    +0.004 A 
ATOM     24  C   UNL     1      -0.693   3.795  25.230  0.00  0.00    -0.003 A 
BRANCH  22  25
ATOM     25  C   UNL     1      -1.823   5.651  25.018  0.00  0.00    +0.419 C 
ATOM     26  F   UNL     1      -2.014   6.429  24.820  0.00  0.00    -0.166 F 
ATOM     27  F   UNL     1      -1.131   5.915  25.382  0.00  0.00    -0.166 F 
ATOM     28  F   UNL     1      -2.514   5.389  24.654  0.00  0.00    -0.166 F 
ENDBRANCH  22  25
ENDBRANCH  18  19
ENDBRANCH  17  18
ENDBRANCH  14  15
BRANCH   9   8
ATOM      8  C   UNL     1      -1.554  -0.115  25.193  0.00  0.00    +0.100 C 
BRANCH   8   7
ATOM      4  C   UNL     1      -3.328  -1.671  24.447  0.00  0.00    +0.080 A 
ATOM      5  C   UNL     1      -3.355  -0.878  24.224  0.00  0.00    +0.006 A 
ATOM      6  C   UNL     1      -2.764  -0.359  24.472  0.00  0.00    -0.003 A 
ATOM      7  C   UNL     1      -2.146  -0.634  24.945  0.00  0.00    -0.006 A 
ATOM     32  C   UNL     1      -2.119  -1.428  25.168  0.00  0.00    -0.003 A 
ATOM     33  C   UNL     1      -2.711  -1.947  24.920  0.00  0.00    +0.006 A 
BRANCH   4   2
ATOM      1  O   UNL     1      -4.618  -1.894  23.872  0.00  0.00    -0.241 OA
ATOM      2  C   UNL     1      -3.920  -2.190  24.199  0.00  0.00    +0.388 C 
ATOM      3  O   UNL     1      -3.814  -3.004  24.276  0.00  0.00    -0.241 OA
ENDBRANCH   4   2
ENDBRANCH   8   7
ENDBRANCH   9   8
TORSDOF 7
ENDMDL
MODEL 6
REMARK VINA RESULT:     -10.9      1.794      2.254
REMARK  Name = 
REMARK  7 active torsions:
REMARK  status: ('A' for Active; 'I' for Inactive)
REMARK    1  A    between atoms: C_2  and  C_4
REMARK    2  A    between atoms: C_7  and  C_8
REMARK    3  A    between atoms: C_8  and  N_9
REMARK    4  A    between atoms: C_14  and  C_15
REMARK    5  A    between atoms: N_17  and  C_18
REMARK    6  A    between atoms: C_18  and  C_19
REMARK    7  A    between atoms: C_22  and  C_25
REMARK                            x       y       z     vdW  Elec       q    Type
REMARK                         _______ _______ _______ _____ _____    ______ ____
ROOT
ATOM      9  N   UNL     1      -3.870   2.152  24.765  0.00  0.00    -0.257 NA
ATOM     10  C   UNL     1      -4.237   2.748  25.201  0.00  0.00    +0.121 C 
ATOM     11  C   UNL     1      -4.974   2.612  25.547  0.00  0.00    +0.090 A 
ATOM     12  C   UNL     1      -5.343   1.879  25.456  0.00  0.00    +0.077 A 
ATOM     13  C   UNL     1      -4.975   1.283  25.019  0.00  0.00    +0.072 C 
ATOM     14  C   UNL     1      -4.239   1.420  24.674  0.00  0.00    +0.143 C 
ATOM     29  N   UNL     1      -6.063   1.905  25.857  0.00  0.00    -0.227 NA
ATOM     30  C   UNL     1      -6.140   2.653  26.196  0.00  0.00    +0.198 A 
ATOM     31  N   UNL     1      -5.466   3.089  26.004  0.00  0.00    -0.226 NA
ENDROOT
BRANCH  14  15
ATOM     15  C   UNL     1      -3.872   0.824  24.238  0.00  0.00    +0.257 C 
ATOM     16  O   UNL     1      -3.940   0.812  23.416  0.00  0.00    -0.272 OA
ATOM     17  N   UNL     1      -3.436   0.239  24.624  0.00  0.00    -0.199 NA
BRANCH  17  18
ATOM     18  C   UNL     1      -3.069  -0.357  24.188  0.00  0.00    +0.142 C 
BRANCH  18  19
ATOM     19  C   UNL     1      -2.428  -0.767  24.507  0.00  0.00    -0.001 A 
ATOM     20  C   UNL     1      -2.556  -1.364  25.062  0.00  0.00    -0.003 A 
ATOM     21  C   UNL     1      -1.915  -1.774  25.381  0.00  0.00    +0.004 A 
ATOM     22  C   UNL     1      -1.147  -1.588  25.145  0.00  0.00    +0.071 A 
ATOM     23  C   UNL     1      -1.019  -0.991  24.589  0.00  0.00    +0.004 A 
ATOM     24  C   UNL     1      -1.660  -0.581  24.270  0.00  0.00    -0.003 A 
BRANCH  22  25
ATOM     25  C   UNL     1      -0.506  -1.999  25.464  0.00  0.00    +0.419 C 
ATOM     26  F   UNL     1       0.135  -2.409  25.782  0.00  0.00    -0.166 F 
ATOM     27  F   UNL     1      -0.228  -1.300  25.804  0.00  0.00    -0.166 F 
ATOM     28  F   UNL     1      -0.783  -2.696  25.123  0.00  0.00    -0.166 F 
ENDBRANCH  22  25
ENDBRANCH  18  19
ENDBRANCH  17  18
ENDBRANCH  14  15
BRANCH   9   8
ATOM      8  C   UNL     1      -3.134   2.289  24.419  0.00  0.00    +0.100 C 
BRANCH   8   7
ATOM      4  C   UNL     1      -1.865   4.338  24.980  0.00  0.00    +0.080 A 
ATOM      5  C   UNL     1      -2.419   4.351  24.369  0.00  0.00    +0.006 A 
ATOM      6  C   UNL     1      -2.842   3.667  24.183  0.00  0.00    -0.003 A 
ATOM      7  C   UNL     1      -2.711   2.972  24.606  0.00  0.00    -0.006 A 
ATOM     32  C   UNL     1      -2.156   2.960  25.217  0.00  0.00    -0.003 A 
ATOM     33  C   UNL     1      -1.733   3.643  25.404  0.00  0.00    +0.006 A 
BRANCH   4   2
ATOM      1  O   UNL     1      -0.629   5.055  25.026  0.00  0.00    -0.241 OA
ATOM      2  C   UNL     1      -1.442   5.021  25.166  0.00  0.00    +0.388 C 
ATOM      3  O   UNL     1      -1.830   5.671  25.493  0.00  0.00    -0.241 OA
ENDBRANCH   4   2
ENDBRANCH   8   7
ENDBRANCH   9   8
TORSDOF 7
ENDMDL
MODEL 7
REMARK VINA RESULT:     -10.6      4.585      5.846
REMARK  Name = 
REMARK  7 active torsions:
REMARK  status: ('A' for Active; 'I' for Inactive)
REMARK    1  A    between atoms: C_2  and  C_4
REMARK    2  A    between atoms: C_7  and  C_8
REMARK    3  A    between atoms: C_8  and  N_9
REMARK    4  A    between atoms: C_14  and  C_15
REMARK    5  A    between atoms: N_17  and  C_18
REMARK    6  A    between atoms: C_18  and  C_19
REMARK    7  A    between atoms: C_22  and  C_25
REMARK                            x       y       z     vdW  Elec       q    Type
REMARK                         _______ _______ _______ _____ _____    ______ ____
ROOT
ATOM      9  N   UNL     1      -0.157   0.617  24.184  0.00  0.00    -0.257 NA
ATOM     10  C   UNL     1      -0.690   0.496  24.801  0.00  0.00    +0.121 C 
ATOM     11  C   UNL     1      -0.881  -0.272  25.038  0.00  0.00    +0.090 A 
ATOM     12  C   UNL     1      -0.537  -0.917  24.657  0.00  0.00    +0.077 A 
ATOM     13  C   UNL     1      -0.002  -0.796  24.039  0.00  0.00    +0.072 C 
ATOM     14  C   UNL     1       0.187  -0.029  23.803  0.00  0.00    +0.143 C 
ATOM     29  N   UNL     1      -0.828  -1.605  25.007  0.00  0.00    -0.227 NA
ATOM     30  C   UNL     1      -1.351  -1.384  25.605  0.00  0.00    +0.198 A 
ATOM     31  N   UNL     1      -1.384  -0.560  25.623  0.00  0.00    -0.226 NA
ENDROOT
BRANCH  14  15
ATOM     15  C   UNL     1       0.721   0.092  23.186  0.00  0.00    +0.257 C 
ATOM     16  O   UNL     1       0.444   0.248  22.425  0.00  0.00    -0.272 OA
ATOM     17  N   UNL     1       1.533   0.057  23.331  0.00  0.00    -0.199 NA
BRANCH  17  18
ATOM     18  C   UNL     1       2.067   0.177  22.714  0.00  0.00    +0.142 C 
BRANCH  18  19
ATOM     19  C   UNL     1       2.877   0.204  22.868  0.00  0.00    -0.001 A 
ATOM     20  C   UNL     1       3.260  -0.457  23.177  0.00  0.00    -0.003 A 
ATOM     21  C   UNL     1       4.070  -0.430  23.331  0.00  0.00    +0.004 A 
ATOM     22  C   UNL     1       4.497   0.258  23.175  0.00  0.00    +0.071 A 
ATOM     23  C   UNL     1       4.113   0.920  22.866  0.00  0.00    +0.004 A 
ATOM     24  C   UNL     1       3.303   0.894  22.712  0.00  0.00    -0.003 A 
BRANCH  22  25
ATOM     25  C   UNL     1       5.307   0.285  23.329  0.00  0.00    +0.419 C 
ATOM     26  F   UNL     1       6.117   0.312  23.483  0.00  0.00    -0.166 F 
ATOM     27  F   UNL     1       5.152   0.505  24.109  0.00  0.00    -0.166 F 
ATOM     28  F   UNL     1       5.462   0.065  22.550  0.00  0.00    -0.166 F 
ENDBRANCH  22  25
ENDBRANCH  18  19
ENDBRANCH  17  18
ENDBRANCH  14  15
BRANCH   9   8
ATOM      8  C   UNL     1       0.033   1.384  23.948  0.00  0.00    +0.100 C 
BRANCH   8   7
ATOM      4  C   UNL     1      -1.060   3.320  25.036  0.00  0.00    +0.080 A 
ATOM      5  C   UNL     1      -0.357   3.017  25.343  0.00  0.00    +0.006 A 
ATOM      6  C   UNL     1       0.007   2.372  24.980  0.00  0.00    -0.003 A 
ATOM      7  C   UNL     1      -0.331   2.029  24.311  0.00  0.00    -0.006 A 
ATOM     32  C   UNL     1      -1.035   2.332  24.004  0.00  0.00    -0.003 A 
ATOM     33  C   UNL     1      -1.399   2.978  24.366  0.00  0.00    +0.006 A 
BRANCH   4   2
ATOM      1  O   UNL     1      -2.060   3.846  25.912  0.00  0.00    -0.241 OA
ATOM      2  C   UNL     1      -1.424   3.965  25.399  0.00  0.00    +0.388 C 
ATOM      3  O   UNL     1      -1.154   4.730  25.249  0.00  0.00    -0.241 OA
ENDBRANCH   4   2
ENDBRANCH   8   7
ENDBRANCH   9   8
TORSDOF 7
ENDMDL
MODEL 8
REMARK VINA RESULT:     -10.5      2.631      4.189
REMARK  Name = 
REMARK  7 active torsions:
REMARK  status: ('A' for Active; 'I' for Inactive)
REMARK    1  A    between atoms: C_2  and  C_4
REMARK    2  A    between atoms: C_7  and  C_8
REMARK    3  A    between atoms: C_8  and  N_9
REMARK    4  A    between atoms: C_14  and  C_15
REMARK    5  A    between atoms: N_17  and  C_18
REMARK    6  A    between atoms: C_18  and  C_19
REMARK    7  A    between atoms: C_22  and  C_25
REMARK                            x       y       z     vdW  Elec       q    Type
REMARK                         _______ _______ _______ _____ _____    ______ ____
ROOT
ATOM      9  N   UNL     1      -1.065   1.657  24.719  0.00  0.00    -0.257 NA
ATOM     10  C   UNL     1      -0.375   1.559  25.161  0.00  0.00    +0.121 C 
ATOM     11  C   UNL     1      -0.084   2.183  25.616  0.00  0.00    +0.090 A 
ATOM     12  C   UNL     1      -0.483   2.905  25.630  0.00  0.00    +0.077 A 
ATOM     13  C   UNL     1      -1.174   3.003  25.188  0.00  0.00    +0.072 C 
ATOM     14  C   UNL     1      -1.464   2.379  24.733  0.00  0.00    +0.143 C 
ATOM     29  N   UNL     1      -0.069   3.416  26.126  0.00  0.00    -0.227 NA
ATOM     30  C   UNL     1       0.587   3.011  26.420  0.00  0.00    +0.198 A 
ATOM     31  N   UNL     1       0.577   2.249  26.104  0.00  0.00    -0.226 NA
ENDROOT
BRANCH  14  15
ATOM     15  C   UNL     1      -2.154   2.478  24.292  0.00  0.00    +0.257 C 
ATOM     16  O   UNL     1      -2.112   2.563  23.473  0.00  0.00    -0.272 OA
ATOM     17  N   UNL     1      -2.887   2.492  24.671  0.00  0.00    -0.199 NA
BRANCH  17  18
ATOM     18  C   UNL     1      -3.577   2.591  24.230  0.00  0.00    +0.142 C 
BRANCH  18  19
ATOM     19  C   UNL     1      -4.311   2.418  24.566  0.00  0.00    -0.001 A 
ATOM     20  C   UNL     1      -4.643   1.670  24.466  0.00  0.00    -0.003 A 
ATOM     21  C   UNL     1      -5.377   1.497  24.802  0.00  0.00    +0.004 A 
ATOM     22  C   UNL     1      -5.777   2.071  25.237  0.00  0.00    +0.071 A 
ATOM     23  C   UNL     1      -5.444   2.820  25.337  0.00  0.00    +0.004 A 
ATOM     24  C   UNL     1      -4.711   2.993  25.001  0.00  0.00    -0.003 A 
BRANCH  22  25
ATOM     25  C   UNL     1      -6.511   1.898  25.573  0.00  0.00    +0.419 C 
ATOM     26  F   UNL     1      -7.244   1.725  25.909  0.00  0.00    -0.166 F 
ATOM     27  F   UNL     1      -6.190   1.997  26.326  0.00  0.00    -0.166 F 
ATOM     28  F   UNL     1      -6.832   1.799  24.821  0.00  0.00    -0.166 F 
ENDBRANCH  22  25
ENDBRANCH  18  19
ENDBRANCH  17  18
ENDBRANCH  14  15
BRANCH   9   8
ATOM      8  C   UNL     1      -1.355   1.034  24.264  0.00  0.00    +0.100 C 
BRANCH   8   7
ATOM      4  C   UNL     1      -0.856  -1.303  24.905  0.00  0.00    +0.080 A 
ATOM      5  C   UNL     1      -1.475  -0.899  25.271  0.00  0.00    +0.006 A 
ATOM      6  C   UNL     1      -1.641  -0.120  25.057  0.00  0.00    -0.003 A 
ATOM      7  C   UNL     1      -1.189   0.255  24.478  0.00  0.00    -0.006 A 
ATOM     32  C   UNL     1      -0.570  -0.150  24.112  0.00  0.00    -0.003 A 
ATOM     33  C   UNL     1      -0.403  -0.929  24.326  0.00  0.00    +0.006 A 
BRANCH   4   2
ATOM      1  O   UNL     1      -0.000  -2.258  25.537  0.00  0.00    -0.241 OA
ATOM      2  C   UNL     1      -0.690  -2.083  25.119  0.00  0.00    +0.388 C 
ATOM      3  O   UNL     1      -1.213  -2.687  24.915  0.00  0.00    -0.241 OA
ENDBRANCH   4   2
ENDBRANCH   8   7
ENDBRANCH   9   8
TORSDOF 7
ENDMDL
