MODEL 1
REMARK VINA RESULT:      -9.5      0.000      0.000
REMARK  Name = 
REMARK  8 active torsions:
REMARK  status: ('A' for Active; 'I' for Inactive)
REMARK    1  A    between atoms: O_2  and  C_3
REMARK    2  A    between atoms: C_3  and  C_4
REMARK    3  A    between atoms: C_4  and  O_5
REMARK    4  A    between atoms: O_5  and  C_6
REMARK    5  A    between atoms: C_9  and  C_12
REMARK    6  A    between atoms: C_15  and  C_17
REMARK    7  A    between atoms: N_21  and  C_22
REMARK    8  A    between atoms: C_22  and  C_23
REMARK                            x       y       z     vdW  Elec       q    Type
REMARK                         _______ _______ _______ _____ _____    ______ ____
ROOT
ATOM     12  C   UNL     1      -0.954  -0.084  24.434  0.00  0.00    +0.205 A 
ATOM     13  N   UNL     1      -1.017  -0.030  25.255  0.00  0.00    -0.056 NA
ATOM     14  O   UNL     1      -1.805  -0.166  25.460  0.00  0.00    -0.336 OA
ATOM     15  C   UNL     1      -2.229  -0.305  24.766  0.00  0.00    +0.251 A 
ATOM     16  N   UNL     1      -1.703  -0.254  24.132  0.00  0.00    -0.190 NA
ENDROOT
BRANCH  12   9
ATOM      6  C   UNL     1       1.117   0.211  23.112  0.00  0.00    +0.225 A 
ATOM      7  C   UNL     1       0.709   0.871  23.394  0.00  0.00    +0.058 A 
ATOM      8  C   UNL     1       0.019   0.773  23.834  0.00  0.00    +0.010 A 
ATOM      9  C   UNL     1      -0.264   0.014  23.993  0.00  0.00    +0.058 A 
ATOM     10  C   UNL     1       0.143  -0.645  23.712  0.00  0.00    +0.105 A 
ATOM     11  N   UNL     1       0.833  -0.547  23.271  0.00  0.00    -0.210 NA
BRANCH   6   5
ATOM      5  O   UNL     1       1.807   0.309  22.671  0.00  0.00    -0.457 OA
BRANCH   5   4
ATOM      4  C   UNL     1       2.521   0.465  23.053  0.00  0.00    +0.239 C 
BRANCH   4   3
ATOM      3  C   UNL     1       3.225   0.477  22.622  0.00  0.00    +0.189 C 
BRANCH   3   2
ATOM      1  C   UNL     1       4.606   0.500  22.992  0.00  0.00    +0.174 C 
ATOM      2  O   UNL     1       3.880   0.886  22.914  0.00  0.00    -0.347 OA
ENDBRANCH   3   2
ENDBRANCH   4   3
ENDBRANCH   5   4
ENDBRANCH   6   5
ENDBRANCH  12   9
BRANCH  15  17
ATOM     17  C   UNL     1      -3.036  -0.465  24.714  0.00  0.00    +0.138 C 
ATOM     18  C   UNL     1      -3.379  -1.214  24.667  0.00  0.00    +0.027 C 
ATOM     19  C   UNL     1      -4.198  -1.118  24.624  0.00  0.00    +0.019 C 
ATOM     20  C   UNL     1      -4.360  -0.309  24.644  0.00  0.00    +0.073 C 
ATOM     21  N   UNL     1      -3.642   0.094  24.700  0.00  0.00    -0.263 NA
BRANCH  21  22
ATOM     22  C   UNL     1      -3.548   0.913  24.735  0.00  0.00    +0.103 C 
BRANCH  22  23
ATOM     23  C   UNL     1      -4.207   1.401  24.821  0.00  0.00    +0.033 A 
ATOM     24  C   UNL     1      -4.268   2.093  24.377  0.00  0.00    +0.193 A 
ATOM     25  O   UNL     1      -3.671   2.297  23.846  0.00  0.00    -0.287 OA
ATOM     26  C   UNL     1      -4.927   2.581  24.463  0.00  0.00    +0.042 A 
ATOM     27  C   UNL     1      -5.525   2.378  24.993  0.00  0.00    +0.003 A 
ATOM     28  C   UNL     1      -5.464   1.686  25.438  0.00  0.00    -0.000 A 
ATOM     29  C   UNL     1      -4.805   1.197  25.352  0.00  0.00    +0.000 A 
ENDBRANCH  22  23
ENDBRANCH  21  22
ENDBRANCH  15  17
TORSDOF 8
ENDMDL
MODEL 2
REMARK VINA RESULT:      -9.1      1.032      2.397
REMARK  Name = 
REMARK  8 active torsions:
REMARK  status: ('A' for Active; 'I' for Inactive)
REMARK    1  A    between atoms: O_2  and  C_3
REMARK    2  A    between atoms: C_3  and  C_4
REMARK    3  A    between atoms: C_4  and  O_5
REMARK    4  A    between atoms: O_5  and  C_6
REMARK    5  A    between atoms: C_9  and  C_12
REMARK    6  A    between atoms: C_15  and  C_17
REMARK    7  A    between atoms: N_21  and  C_22
REMARK    8  A    between atoms: C_22  and  C_23
REMARK                            x       y       z     vdW  Elec       q    Type
REMARK                         _______ _______ _______ _____ _____    ______ ____
ROOT
ATOM     12  C   UNL     1      -0.784   0.661  24.527  0.00  0.00    +0.205 A 
ATOM     13  N   UNL     1      -0.821   0.787  25.342  0.00  0.00    -0.056 NA
ATOM     14  O   UNL     1      -1.617   0.807  25.561  0.00  0.00    -0.336 OA
ATOM     15  C   UNL     1      -2.071   0.693  24.882  0.00  0.00    +0.251 A 
ATOM     16  N   UNL     1      -1.556   0.603  24.243  0.00  0.00    -0.190 NA
ENDROOT
BRANCH  12   9
ATOM      6  C   UNL     1       1.281   0.486  23.175  0.00  0.00    +0.225 A 
ATOM      7  C   UNL     1       0.795  -0.174  23.273  0.00  0.00    +0.058 A 
ATOM      8  C   UNL     1       0.106  -0.116  23.724  0.00  0.00    +0.010 A 
ATOM      9  C   UNL     1      -0.096   0.602  24.077  0.00  0.00    +0.058 A 
ATOM     10  C   UNL     1       0.390   1.261  23.979  0.00  0.00    +0.105 A 
ATOM     11  N   UNL     1       1.078   1.203  23.528  0.00  0.00    -0.210 NA
BRANCH   6   5
ATOM      5  O   UNL     1       1.970   0.428  22.724  0.00  0.00    -0.457 OA
BRANCH   5   4
ATOM      4  C   UNL     1       2.704   0.559  23.075  0.00  0.00    +0.239 C 
BRANCH   4   3
ATOM      3  C   UNL     1       3.395   0.468  22.633  0.00  0.00    +0.189 C 
BRANCH   3   2
ATOM      1  C   UNL     1       4.767   0.392  23.026  0.00  0.00    +0.174 C 
ATOM      2  O   UNL     1       4.091   0.840  22.873  0.00  0.00    -0.347 OA
ENDBRANCH   3   2
ENDBRANCH   4   3
ENDBRANCH   5   4
ENDBRANCH   6   5
ENDBRANCH  12   9
BRANCH  15  17
ATOM     17  C   UNL     1      -2.895   0.673  24.847  0.00  0.00    +0.138 C 
ATOM     18  C   UNL     1      -3.391   1.323  24.733  0.00  0.00    +0.027 C 
ATOM     19  C   UNL     1      -4.171   1.051  24.736  0.00  0.00    +0.019 C 
ATOM     20  C   UNL     1      -4.156   0.235  24.851  0.00  0.00    +0.073 C 
ATOM     21  N   UNL     1      -3.367   0.001  24.919  0.00  0.00    -0.263 NA
BRANCH  21  22
ATOM     22  C   UNL     1      -3.099  -0.770  25.039  0.00  0.00    +0.103 C 
BRANCH  22  23
ATOM     23  C   UNL     1      -3.486  -1.402  24.678  0.00  0.00    +0.033 A 
ATOM     24  C   UNL     1      -3.402  -2.165  24.982  0.00  0.00    +0.193 A 
ATOM     25  O   UNL     1      -2.932  -2.294  25.647  0.00  0.00    -0.287 OA
ATOM     26  C   UNL     1      -3.789  -2.797  24.621  0.00  0.00    +0.042 A 
ATOM     27  C   UNL     1      -4.259  -2.668  23.955  0.00  0.00    +0.003 A 
ATOM     28  C   UNL     1      -4.343  -1.906  23.651  0.00  0.00    -0.000 A 
ATOM     29  C   UNL     1      -3.956  -1.273  24.013  0.00  0.00    +0.000 A 
ENDBRANCH  22  23
ENDBRANCH  21  22
ENDBRANCH  15  17
TORSDOF 8
ENDMDL
MODEL 3
REMARK VINA RESULT:      -8.6      2.630      4.206
REMARK  Name = 
REMARK  8 active torsions:
REMARK  status: ('A' for Active; 'I' for Inactive)
REMARK    1  A    between atoms: O_2  and  C_3
REMARK    2  A    between atoms: C_3  and  C_4
REMARK    3  A    between atoms: C_4  and  O_5
REMARK    4  A    between atoms: O_5  and  C_6
REMARK    5  A    between atoms: C_9  and  C_12
REMARK    6  A    between atoms: C_15  and  C_17
REMARK    7  A    between atoms: N_21  and  C_22
REMARK    8  A    between atoms: C_22  and  C_23
REMARK                            x       y       z     vdW  Elec       q    Type
REMARK                         _______ _______ _______ _____ _____    ______ ____
ROOT
ATOM     12  C   UNL     1      -0.591   1.673  25.446  0.00  0.00    +0.205 A 
ATOM     13  N   UNL     1      -0.051   1.984  25.988  0.00  0.00    -0.056 NA
ATOM     14  O   UNL     1      -0.129   2.806  25.982  0.00  0.00    -0.336 OA
ATOM     15  C   UNL     1      -0.715   3.002  25.436  0.00  0.00    +0.251 A 
ATOM     16  N   UNL     1      -1.001   2.302  25.105  0.00  0.00    -0.190 NA
ENDROOT
BRANCH  12   9
ATOM      6  C   UNL     1      -0.919  -0.726  24.936  0.00  0.00    +0.225 A 
ATOM      7  C   UNL     1      -1.135  -0.428  25.675  0.00  0.00    +0.058 A 
ATOM      8  C   UNL     1      -1.026   0.372  25.845  0.00  0.00    +0.010 A 
ATOM      9  C   UNL     1      -0.700   0.873  25.276  0.00  0.00    +0.058 A 
ATOM     10  C   UNL     1      -0.484   0.576  24.538  0.00  0.00    +0.105 A 
ATOM     11  N   UNL     1      -0.594  -0.224  24.368  0.00  0.00    -0.210 NA
BRANCH   6   5
ATOM      5  O   UNL     1      -1.029  -1.526  24.765  0.00  0.00    -0.457 OA
BRANCH   5   4
ATOM      4  C   UNL     1      -1.754  -1.790  24.476  0.00  0.00    +0.239 C 
BRANCH   4   3
ATOM      3  C   UNL     1      -1.945  -2.592  24.512  0.00  0.00    +0.189 C 
BRANCH   3   2
ATOM      1  C   UNL     1      -3.325  -2.963  24.462  0.00  0.00    +0.174 C 
ATOM      2  O   UNL     1      -2.593  -2.882  24.090  0.00  0.00    -0.347 OA
ENDBRANCH   3   2
ENDBRANCH   4   3
ENDBRANCH   5   4
ENDBRANCH   6   5
ENDBRANCH  12   9
BRANCH  15  17
ATOM     17  C   UNL     1      -0.972   3.764  25.253  0.00  0.00    +0.138 C 
ATOM     18  C   UNL     1      -0.521   4.355  24.894  0.00  0.00    +0.027 C 
ATOM     19  C   UNL     1      -0.995   5.026  24.815  0.00  0.00    +0.019 C 
ATOM     20  C   UNL     1      -1.738   4.850  25.126  0.00  0.00    +0.073 C 
ATOM     21  N   UNL     1      -1.724   4.071  25.397  0.00  0.00    -0.263 NA
BRANCH  21  22
ATOM     22  C   UNL     1      -2.352   3.669  25.749  0.00  0.00    +0.103 C 
BRANCH  22  23
ATOM     23  C   UNL     1      -3.117   3.761  25.456  0.00  0.00    +0.033 A 
ATOM     24  C   UNL     1      -3.750   3.861  25.977  0.00  0.00    +0.193 A 
ATOM     25  O   UNL     1      -3.616   3.870  26.791  0.00  0.00    -0.287 OA
ATOM     26  C   UNL     1      -4.515   3.953  25.684  0.00  0.00    +0.042 A 
ATOM     27  C   UNL     1      -4.649   3.945  24.870  0.00  0.00    +0.003 A 
ATOM     28  C   UNL     1      -4.018   3.845  24.349  0.00  0.00    -0.000 A 
ATOM     29  C   UNL     1      -3.252   3.752  24.642  0.00  0.00    +0.000 A 
ENDBRANCH  22  23
ENDBRANCH  21  22
ENDBRANCH  15  17
TORSDOF 8
ENDMDL
MODEL 4
REMARK VINA RESULT:      -8.5      1.673      2.402
REMARK  Name = 
REMARK  8 active torsions:
REMARK  status: ('A' for Active; 'I' for Inactive)
REMARK    1  A    between atoms: O_2  and  C_3
REMARK    2  A    between atoms: C_3  and  C_4
REMARK    3  A    between atoms: C_4  and  O_5
REMARK    4  A    between atoms: O_5  and  C_6
REMARK    5  A    between atoms: C_9  and  C_12
REMARK    6  A    between atoms: C_15  and  C_17
REMARK    7  A    between atoms: N_21  and  C_22
REMARK    8  A    between atoms: C_22  and  C_23
REMARK                            x       y       z     vdW  Elec       q    Type
REMARK                         _______ _______ _______ _____ _____    ______ ____
ROOT
ATOM     12  C   UNL     1      -0.709   1.947  24.888  0.00  0.00    +0.205 A 
ATOM     13  N   UNL     1      -0.835   1.844  25.698  0.00  0.00    -0.056 NA
ATOM     14  O   UNL     1      -1.447   2.348  25.927  0.00  0.00    -0.336 OA
ATOM     15  C   UNL     1      -1.700   2.762  25.259  0.00  0.00    +0.251 A 
ATOM     16  N   UNL     1      -1.244   2.514  24.618  0.00  0.00    -0.190 NA
ENDROOT
BRANCH  12   9
ATOM      6  C   UNL     1       0.975   0.763  23.515  0.00  0.00    +0.225 A 
ATOM      7  C   UNL     1       0.215   0.450  23.597  0.00  0.00    +0.058 A 
ATOM      8  C   UNL     1      -0.346   0.845  24.054  0.00  0.00    +0.010 A 
ATOM      9  C   UNL     1      -0.148   1.552  24.431  0.00  0.00    +0.058 A 
ATOM     10  C   UNL     1       0.611   1.865  24.349  0.00  0.00    +0.105 A 
ATOM     11  N   UNL     1       1.172   1.470  23.892  0.00  0.00    -0.210 NA
BRANCH   6   5
ATOM      5  O   UNL     1       1.537   0.368  23.058  0.00  0.00    -0.457 OA
BRANCH   5   4
ATOM      4  C   UNL     1       2.315   0.639  23.036  0.00  0.00    +0.239 C 
BRANCH   4   3
ATOM      3  C   UNL     1       2.884   0.224  22.607  0.00  0.00    +0.189 C 
BRANCH   3   2
ATOM      1  C   UNL     1       4.299   0.419  22.672  0.00  0.00    +0.174 C 
ATOM      2  O   UNL     1       3.566   0.609  22.345  0.00  0.00    -0.347 OA
ENDBRANCH   3   2
ENDBRANCH   4   3
ENDBRANCH   5   4
ENDBRANCH   6   5
ENDBRANCH  12   9
BRANCH  15  17
ATOM     17  C   UNL     1      -2.303   3.324  25.237  0.00  0.00    +0.138 C 
ATOM     18  C   UNL     1      -2.205   4.142  25.288  0.00  0.00    +0.027 C 
ATOM     19  C   UNL     1      -2.951   4.492  25.242  0.00  0.00    +0.019 C 
ATOM     20  C   UNL     1      -3.510   3.890  25.163  0.00  0.00    +0.073 C 
ATOM     21  N   UNL     1      -3.109   3.168  25.160  0.00  0.00    -0.263 NA
BRANCH  21  22
ATOM     22  C   UNL     1      -3.455   2.423  25.091  0.00  0.00    +0.103 C 
BRANCH  22  23
ATOM     23  C   UNL     1      -4.272   2.338  25.162  0.00  0.00    +0.033 A 
ATOM     24  C   UNL     1      -4.673   1.791  24.692  0.00  0.00    +0.193 A 
ATOM     25  O   UNL     1      -4.255   1.328  24.152  0.00  0.00    -0.287 OA
ATOM     26  C   UNL     1      -5.490   1.707  24.763  0.00  0.00    +0.042 A 
ATOM     27  C   UNL     1      -5.907   2.169  25.303  0.00  0.00    +0.003 A 
ATOM     28  C   UNL     1      -5.507   2.717  25.773  0.00  0.00    -0.000 A 
ATOM     29  C   UNL     1      -4.689   2.801  25.702  0.00  0.00    +0.000 A 
ENDBRANCH  22  23
ENDBRANCH  21  22
ENDBRANCH  15  17
TORSDOF 8
ENDMDL
MODEL 5
REMARK VINA RESULT:      -8.4      1.764      2.145
REMARK  Name = 
REMARK  8 active torsions:
REMARK  status: ('A' for Active; 'I' for Inactive)
REMARK    1  A    between atoms: O_2  and  C_3
REMARK    2  A    between atoms: C_3  and  C_4
REMARK    3  A    between atoms: C_4  and  O_5
REMARK    4  A    between atoms: O_5  and  C_6
REMARK    5  A    between atoms: C_9  and  C_12
REMARK    6  A    between atoms: C_15  and  C_17
REMARK    7  A    between atoms: N_21  and  C_22
REMARK    8  A    between atoms: C_22  and  C_23
REMARK                            x       y       z     vdW  Elec       q    Type
REMARK                         _______ _______ _______ _____ _____    ______ ____
ROOT
ATOM     12  C   UNL     1      -0.360   0.585  23.852  0.00  0.00    +0.205 A 
ATOM     13  N   UNL     1      -0.653   0.190  24.515  0.00  0.00    -0.056 NA
ATOM     14  O   UNL     1      -1.425   0.449  24.647  0.00  0.00    -0.336 OA
ATOM     15  C   UNL     1      -1.610   1.005  24.066  0.00  0.00    +0.251 A 
ATOM     16  N   UNL     1      -0.952   1.089  23.575  0.00  0.00    -0.190 NA
ENDROOT
BRANCH  12   9
ATOM      6  C   UNL     1       1.895   0.309  22.871  0.00  0.00    +0.225 A 
ATOM      7  C   UNL     1       1.309  -0.255  22.726  0.00  0.00    +0.058 A 
ATOM      8  C   UNL     1       0.558  -0.163  23.053  0.00  0.00    +0.010 A 
ATOM      9  C   UNL     1       0.391   0.493  23.525  0.00  0.00    +0.058 A 
ATOM     10  C   UNL     1       0.976   1.056  23.670  0.00  0.00    +0.105 A 
ATOM     11  N   UNL     1       1.727   0.964  23.343  0.00  0.00    -0.210 NA
BRANCH   6   5
ATOM      5  O   UNL     1       2.647   0.217  22.544  0.00  0.00    -0.457 OA
BRANCH   5   4
ATOM      4  C   UNL     1       3.304   0.534  22.926  0.00  0.00    +0.239 C 
BRANCH   4   3
ATOM      3  C   UNL     1       4.064   0.305  22.700  0.00  0.00    +0.189 C 
BRANCH   3   2
ATOM      1  C   UNL     1       5.335   0.159  23.336  0.00  0.00    +0.174 C 
ATOM      2  O   UNL     1       4.723   0.641  23.066  0.00  0.00    -0.347 OA
ENDBRANCH   3   2
ENDBRANCH   4   3
ENDBRANCH   5   4
ENDBRANCH   6   5
ENDBRANCH  12   9
BRANCH  15  17
ATOM     17  C   UNL     1      -2.326   1.406  23.989  0.00  0.00    +0.138 C 
ATOM     18  C   UNL     1      -2.984   1.147  23.562  0.00  0.00    +0.027 C 
ATOM     19  C   UNL     1      -3.575   1.718  23.634  0.00  0.00    +0.019 C 
ATOM     20  C   UNL     1      -3.284   2.329  24.105  0.00  0.00    +0.073 C 
ATOM     21  N   UNL     1      -2.512   2.137  24.324  0.00  0.00    -0.263 NA
BRANCH  21  22
ATOM     22  C   UNL     1      -2.013   2.594  24.796  0.00  0.00    +0.103 C 
BRANCH  22  23
ATOM     23  C   UNL     1      -2.312   3.250  25.196  0.00  0.00    +0.033 A 
ATOM     24  C   UNL     1      -1.893   3.962  25.193  0.00  0.00    +0.193 A 
ATOM     25  O   UNL     1      -1.177   4.016  24.789  0.00  0.00    -0.287 OA
ATOM     26  C   UNL     1      -2.192   4.617  25.594  0.00  0.00    +0.042 A 
ATOM     27  C   UNL     1      -2.909   4.563  25.998  0.00  0.00    +0.003 A 
ATOM     28  C   UNL     1      -3.328   3.852  26.002  0.00  0.00    -0.000 A 
ATOM     29  C   UNL     1      -3.029   3.196  25.601  0.00  0.00    +0.000 A 
ENDBRANCH  22  23
ENDBRANCH  21  22
ENDBRANCH  15  17
TORSDOF 8
ENDMDL
MODEL 6
REMARK VINA RESULT:      -8.4      3.176      5.105
REMARK  Name = 
REMARK  8 active torsions:
REMARK  status: ('A' for Active; 'I' for Inactive)
REMARK    1  A    between atoms: O_2  and  C_3
REMARK    2  A    between atoms: C_3  and  C_4
REMARK    3  A    between atoms: C_4  and  O_5
REMARK    4  A    between atoms: O_5  and  C_6
REMARK    5  A    between atoms: C_9  and  C_12
REMARK    6  A    between atoms: C_15  and  C_17
REMARK    7  A    between atoms: N_21  and  C_22
REMARK    8  A    between atoms: C_22  and  C_23
REMARK                            x       y       z     vdW  Elec       q    Type
REMARK                         _______ _______ _______ _____ _____    ______ ____
ROOT
ATOM     12  C   UNL     1      -4.238   1.662  24.612  0.00  0.00    +0.205 A 
ATOM     13  N   UNL     1      -4.657   2.214  24.164  0.00  0.00    -0.056 NA
ATOM     14  O   UNL     1      -4.529   2.960  24.494  0.00  0.00    -0.336 OA
ATOM     15  C   UNL     1      -4.032   2.868  25.146  0.00  0.00    +0.251 A 
ATOM     16  N   UNL     1      -3.852   2.066  25.219  0.00  0.00    -0.190 NA
ENDROOT
BRANCH  12   9
ATOM      6  C   UNL     1      -4.155  -0.778  24.207  0.00  0.00    +0.225 A 
ATOM      7  C   UNL     1      -4.534  -0.484  24.879  0.00  0.00    +0.058 A 
ATOM      8  C   UNL     1      -4.562   0.329  25.014  0.00  0.00    +0.010 A 
ATOM      9  C   UNL     1      -4.210   0.848  24.477  0.00  0.00    +0.058 A 
ATOM     10  C   UNL     1      -3.832   0.555  23.806  0.00  0.00    +0.105 A 
ATOM     11  N   UNL     1      -3.805  -0.259  23.671  0.00  0.00    -0.210 NA
BRANCH   6   5
ATOM      5  O   UNL     1      -4.128  -1.592  24.072  0.00  0.00    -0.457 OA
BRANCH   5   4
ATOM      4  C   UNL     1      -3.613  -2.065  24.509  0.00  0.00    +0.239 C 
BRANCH   4   3
ATOM      3  C   UNL     1      -3.271  -2.731  24.162  0.00  0.00    +0.189 C 
BRANCH   3   2
ATOM      1  C   UNL     1      -1.886  -2.956  24.438  0.00  0.00    +0.174 C 
ATOM      2  O   UNL     1      -2.680  -3.147  24.561  0.00  0.00    -0.347 OA
ENDBRANCH   3   2
ENDBRANCH   4   3
ENDBRANCH   5   4
ENDBRANCH   6   5
ENDBRANCH  12   9
BRANCH  15  17
ATOM     17  C   UNL     1      -3.762   3.472  25.638  0.00  0.00    +0.138 C 
ATOM     18  C   UNL     1      -4.194   3.839  26.238  0.00  0.00    +0.027 C 
ATOM     19  C   UNL     1      -3.712   4.409  26.588  0.00  0.00    +0.019 C 
ATOM     20  C   UNL     1      -2.981   4.395  26.205  0.00  0.00    +0.073 C 
ATOM     21  N   UNL     1      -3.012   3.816  25.618  0.00  0.00    -0.263 NA
BRANCH  21  22
ATOM     22  C   UNL     1      -2.401   3.616  25.102  0.00  0.00    +0.103 C 
BRANCH  22  23
ATOM     23  C   UNL     1      -1.753   4.119  25.015  0.00  0.00    +0.033 A 
ATOM     24  C   UNL     1      -0.993   3.805  24.948  0.00  0.00    +0.193 A 
ATOM     25  O   UNL     1      -0.881   2.988  24.969  0.00  0.00    -0.287 OA
ATOM     26  C   UNL     1      -0.345   4.307  24.862  0.00  0.00    +0.042 A 
ATOM     27  C   UNL     1      -0.456   5.124  24.842  0.00  0.00    +0.003 A 
ATOM     28  C   UNL     1      -1.216   5.439  24.908  0.00  0.00    -0.000 A 
ATOM     29  C   UNL     1      -1.864   4.936  24.995  0.00  0.00    +0.000 A 
ENDBRANCH  22  23
ENDBRANCH  21  22
ENDBRANCH  15  17
TORSDOF 8
ENDMDL
MODEL 7
REMARK VINA RESULT:      -8.3      2.610      3.796
REMARK  Name = 
REMARK  8 active torsions:
REMARK  status: ('A' for Active; 'I' for Inactive)
REMARK    1  A    between atoms: O_2  and  C_3
REMARK    2  A    between atoms: C_3  and  C_4
REMARK    3  A    between atoms: C_4  and  O_5
REMARK    4  A    between atoms: O_5  and  C_6
REMARK    5  A    between atoms: C_9  and  C_12
REMARK    6  A    between atoms: C_15  and  C_17
REMARK    7  A    between atoms: N_21  and  C_22
REMARK    8  A    between atoms: C_22  and  C_23
REMARK                            x       y       z     vdW  Elec       q    Type
REMARK                         _______ _______ _______ _____ _____    ______ ____
ROOT
ATOM     12  C   UNL     1      -1.866   1.907  24.951  0.00  0.00    +0.205 A 
ATOM     13  N   UNL     1      -1.971   2.027  24.141  0.00  0.00    -0.056 NA
ATOM     14  O   UNL     1      -2.710   1.725  23.932  0.00  0.00    -0.336 OA
ATOM     15  C   UNL     1      -3.062   1.419  24.613  0.00  0.00    +0.251 A 
ATOM     16  N   UNL     1      -2.540   1.532  25.242  0.00  0.00    -0.190 NA
ENDROOT
BRANCH  12   9
ATOM      6  C   UNL     1       0.122   2.560  26.272  0.00  0.00    +0.225 A 
ATOM      7  C   UNL     1      -0.537   3.057  26.245  0.00  0.00    +0.058 A 
ATOM      8  C   UNL     1      -1.200   2.839  25.805  0.00  0.00    +0.010 A 
ATOM      9  C   UNL     1      -1.203   2.125  25.391  0.00  0.00    +0.058 A 
ATOM     10  C   UNL     1      -0.545   1.629  25.417  0.00  0.00    +0.105 A 
ATOM     11  N   UNL     1       0.118   1.847  25.858  0.00  0.00    -0.210 NA
BRANCH   6   5
ATOM      5  O   UNL     1       0.785   2.778  26.712  0.00  0.00    -0.457 OA
BRANCH   5   4
ATOM      4  C   UNL     1       0.831   2.582  27.512  0.00  0.00    +0.239 C 
BRANCH   4   3
ATOM      3  C   UNL     1       1.513   2.760  27.941  0.00  0.00    +0.189 C 
BRANCH   3   2
ATOM      1  C   UNL     1       2.261   2.687  29.157  0.00  0.00    +0.174 C 
ATOM      2  O   UNL     1       1.557   2.570  28.744  0.00  0.00    -0.347 OA
ENDBRANCH   3   2
ENDBRANCH   4   3
ENDBRANCH   5   4
ENDBRANCH   6   5
ENDBRANCH  12   9
BRANCH  15  17
ATOM     17  C   UNL     1      -3.805   1.064  24.657  0.00  0.00    +0.138 C 
ATOM     18  C   UNL     1      -4.531   1.456  24.665  0.00  0.00    +0.027 C 
ATOM     19  C   UNL     1      -5.127   0.888  24.714  0.00  0.00    +0.019 C 
ATOM     20  C   UNL     1      -4.770   0.145  24.736  0.00  0.00    +0.073 C 
ATOM     21  N   UNL     1      -3.952   0.253  24.701  0.00  0.00    -0.263 NA
BRANCH  21  22
ATOM     22  C   UNL     1      -3.384  -0.344  24.708  0.00  0.00    +0.103 C 
BRANCH  22  23
ATOM     23  C   UNL     1      -3.599  -1.121  24.538  0.00  0.00    +0.033 A 
ATOM     24  C   UNL     1      -3.366  -1.734  25.041  0.00  0.00    +0.193 A 
ATOM     25  O   UNL     1      -2.918  -1.567  25.712  0.00  0.00    -0.287 OA
ATOM     26  C   UNL     1      -3.582  -2.511  24.871  0.00  0.00    +0.042 A 
ATOM     27  C   UNL     1      -4.030  -2.678  24.199  0.00  0.00    +0.003 A 
ATOM     28  C   UNL     1      -4.264  -2.066  23.696  0.00  0.00    -0.000 A 
ATOM     29  C   UNL     1      -4.048  -1.288  23.866  0.00  0.00    +0.000 A 
ENDBRANCH  22  23
ENDBRANCH  21  22
ENDBRANCH  15  17
TORSDOF 8
ENDMDL
