MODEL 1
REMARK VINA RESULT:     -14.2      0.000      0.000
REMARK  Name = 
REMARK  3 active torsions:
REMARK  status: ('A' for Active; 'I' for Inactive)
REMARK    1  A    between atoms: N_9  and  S_11
REMARK    2  A    between atoms: S_11  and  C_14
REMARK    3  A    between atoms: C_23  and  C_24
REMARK                            x       y       z     vdW  Elec       q    Type
REMARK                         _______ _______ _______ _____ _____    ______ ____
ROOT
ATOM      1  O   UNL     1      -2.655  -0.024  24.641  0.00  0.00    -0.267 OA
ATOM      2  C   UNL     1      -2.920   0.758  24.645  0.00  0.00    +0.261 A 
ATOM      3  N   UNL     1      -3.724   0.920  24.742  0.00  0.00    -0.299 N 
ATOM      4  C   UNL     1      -3.395   1.685  24.670  0.00  0.00    +0.110 C 
ATOM      5  C   UNL     1      -4.217   2.227  24.754  0.00  0.00    +0.041 C 
ATOM      6  C   UNL     1      -4.789   2.805  24.805  0.00  0.00    +0.011 C 
ATOM      7  C   UNL     1      -4.756   2.104  24.828  0.00  0.00    +0.056 C 
ATOM      8  C   UNL     1      -5.288   1.361  24.925  0.00  0.00    +0.102 C 
ATOM      9  N   UNL     1      -4.715   0.787  24.874  0.00  0.00    -0.155 NA
ATOM     10  C   UNL     1      -4.764   1.444  24.855  0.00  0.00    +0.098 C 
ATOM     20  C   UNL     1      -3.989   1.701  24.745  0.00  0.00    +0.041 A 
ATOM     21  C   UNL     1      -3.451   2.319  24.652  0.00  0.00    +0.013 A 
ATOM     22  C   UNL     1      -2.649   2.158  24.555  0.00  0.00    +0.006 A 
ATOM     23  C   UNL     1      -2.383   1.377  24.552  0.00  0.00    +0.062 A 
ENDROOT
BRANCH  23  24
ATOM     24  C   UNL     1      -1.580   1.214  24.455  0.00  0.00    +0.034 A 
ATOM     25  C   UNL     1      -1.204   1.038  23.742  0.00  0.00    +0.007 A 
ATOM     26  C   UNL     1      -0.403   0.914  23.900  0.00  0.00    +0.007 A 
ATOM     27  C   UNL     1      -0.285   1.015  24.711  0.00  0.00    +0.035 A 
ATOM     28  S   UNL     1      -1.012   1.200  25.053  0.00  0.00    -0.086 S 
ENDBRANCH  23  24
BRANCH   9  11
ATOM     11  S   UNL     1      -4.371   0.038  24.859  0.00  0.00    +0.063 S 
ATOM     12  O   UNL     1      -4.459   0.013  24.039  0.00  0.00    -0.153 OA
ATOM     13  O   UNL     1      -4.284   0.061  25.679  0.00  0.00    -0.153 OA
BRANCH  11  14
ATOM     14  C   UNL     1      -4.027  -0.712  24.845  0.00  0.00    +0.122 A 
ATOM     15  C   UNL     1      -3.727  -1.042  25.538  0.00  0.00    +0.020 A 
ATOM     16  C   UNL     1      -3.383  -1.792  25.524  0.00  0.00    +0.001 A 
ATOM     17  C   UNL     1      -3.339  -2.211  24.814  0.00  0.00    +0.000 A 
ATOM     18  C   UNL     1      -3.639  -1.882  24.121  0.00  0.00    +0.001 A 
ATOM     19  C   UNL     1      -3.983  -1.132  24.135  0.00  0.00    +0.020 A 
ENDBRANCH  11  14
ENDBRANCH   9  11
TORSDOF 3
ENDMDL
MODEL 2
REMARK VINA RESULT:     -14.1      1.237      2.934
REMARK  Name = 
REMARK  3 active torsions:
REMARK  status: ('A' for Active; 'I' for Inactive)
REMARK    1  A    between atoms: N_9  and  S_11
REMARK    2  A    between atoms: S_11  and  C_14
REMARK    3  A    between atoms: C_23  and  C_24
REMARK                            x       y       z     vdW  Elec       q    Type
REMARK                         _______ _______ _______ _____ _____    ______ ____
ROOT
ATOM      1  O   UNL     1      -3.179   0.832  24.214  0.00  0.00    -0.267 OA
ATOM      2  C   UNL     1      -3.890   0.997  24.599  0.00  0.00    +0.261 A 
ATOM      3  N   UNL     1      -4.135   1.779  24.696  0.00  0.00    -0.299 N 
ATOM      4  C   UNL     1      -4.754   1.353  25.059  0.00  0.00    +0.110 C 
ATOM      5  C   UNL     1      -5.330   2.105  25.340  0.00  0.00    +0.041 C 
ATOM      6  C   UNL     1      -5.905   2.602  25.634  0.00  0.00    +0.011 C 
ATOM      7  C   UNL     1      -5.294   2.660  25.293  0.00  0.00    +0.056 C 
ATOM      8  C   UNL     1      -4.719   3.286  24.945  0.00  0.00    +0.102 C 
ATOM      9  N   UNL     1      -4.148   2.788  24.654  0.00  0.00    -0.155 NA
ATOM     10  C   UNL     1      -4.723   2.752  24.973  0.00  0.00    +0.098 C 
ATOM     20  C   UNL     1      -4.845   1.944  25.080  0.00  0.00    +0.041 A 
ATOM     21  C   UNL     1      -5.311   1.327  25.368  0.00  0.00    +0.013 A 
ATOM     22  C   UNL     1      -5.067   0.546  25.271  0.00  0.00    +0.006 A 
ATOM     23  C   UNL     1      -4.356   0.381  24.886  0.00  0.00    +0.062 A 
ENDROOT
BRANCH  23  24
ATOM     24  C   UNL     1      -4.111  -0.401  24.789  0.00  0.00    +0.034 A 
ATOM     25  C   UNL     1      -4.255  -0.876  24.130  0.00  0.00    +0.007 A 
ATOM     26  C   UNL     1      -3.912  -1.614  24.267  0.00  0.00    +0.007 A 
ATOM     27  C   UNL     1      -3.557  -1.595  25.012  0.00  0.00    +0.035 A 
ATOM     28  S   UNL     1      -3.680  -0.846  25.334  0.00  0.00    -0.086 S 
ENDBRANCH  23  24
BRANCH   9  11
ATOM     11  S   UNL     1      -3.454   2.540  24.283  0.00  0.00    +0.063 S 
ATOM     12  O   UNL     1      -3.851   2.508  23.560  0.00  0.00    -0.153 OA
ATOM     13  O   UNL     1      -3.056   2.572  25.005  0.00  0.00    -0.153 OA
BRANCH  11  14
ATOM     14  C   UNL     1      -2.760   2.292  23.911  0.00  0.00    +0.122 A 
ATOM     15  C   UNL     1      -2.760   2.129  23.103  0.00  0.00    +0.020 A 
ATOM     16  C   UNL     1      -2.065   1.881  22.732  0.00  0.00    +0.001 A 
ATOM     17  C   UNL     1      -1.372   1.797  23.170  0.00  0.00    +0.000 A 
ATOM     18  C   UNL     1      -1.371   1.961  23.978  0.00  0.00    +0.001 A 
ATOM     19  C   UNL     1      -2.066   2.209  24.350  0.00  0.00    +0.020 A 
ENDBRANCH  11  14
ENDBRANCH   9  11
TORSDOF 3
ENDMDL
MODEL 3
REMARK VINA RESULT:     -13.9      1.220      3.534
REMARK  Name = 
REMARK  3 active torsions:
REMARK  status: ('A' for Active; 'I' for Inactive)
REMARK    1  A    between atoms: N_9  and  S_11
REMARK    2  A    between atoms: S_11  and  C_14
REMARK    3  A    between atoms: C_23  and  C_24
REMARK                            x       y       z     vdW  Elec       q    Type
REMARK                         _______ _______ _______ _____ _____    ______ ____
ROOT
ATOM      1  O   UNL     1      -2.596   0.636  24.803  0.00  0.00    -0.267 OA
ATOM      2  C   UNL     1      -3.094  -0.009  24.675  0.00  0.00    +0.261 A 
ATOM      3  N   UNL     1      -2.784  -0.774  24.664  0.00  0.00    -0.299 N 
ATOM      4  C   UNL     1      -3.597  -0.910  24.528  0.00  0.00    +0.110 C 
ATOM      5  C   UNL     1      -3.590  -1.895  24.452  0.00  0.00    +0.041 C 
ATOM      6  C   UNL     1      -3.751  -2.689  24.366  0.00  0.00    +0.011 C 
ATOM      7  C   UNL     1      -3.190  -2.283  24.484  0.00  0.00    +0.056 C 
ATOM      8  C   UNL     1      -2.283  -2.330  24.621  0.00  0.00    +0.102 C 
ATOM      9  N   UNL     1      -2.126  -1.538  24.707  0.00  0.00    -0.155 NA
ATOM     10  C   UNL     1      -2.641  -1.934  24.596  0.00  0.00    +0.098 C 
ATOM     20  C   UNL     1      -3.282  -1.418  24.537  0.00  0.00    +0.041 A 
ATOM     21  C   UNL     1      -4.090  -1.299  24.421  0.00  0.00    +0.013 A 
ATOM     22  C   UNL     1      -4.400  -0.536  24.433  0.00  0.00    +0.006 A 
ATOM     23  C   UNL     1      -3.902   0.110  24.560  0.00  0.00    +0.062 A 
ENDROOT
BRANCH  23  24
ATOM     24  C   UNL     1      -4.212   0.874  24.571  0.00  0.00    +0.034 A 
ATOM     25  C   UNL     1      -4.111   1.447  23.986  0.00  0.00    +0.007 A 
ATOM     26  C   UNL     1      -4.514   2.127  24.222  0.00  0.00    +0.007 A 
ATOM     27  C   UNL     1      -4.864   1.975  24.954  0.00  0.00    +0.035 A 
ATOM     28  S   UNL     1      -4.677   1.200  25.169  0.00  0.00    -0.086 S 
ENDBRANCH  23  24
BRANCH   9  11
ATOM     11  S   UNL     1      -1.698  -0.844  24.827  0.00  0.00    +0.063 S 
ATOM     12  O   UNL     1      -1.831  -0.900  25.639  0.00  0.00    -0.153 OA
ATOM     13  O   UNL     1      -1.563  -0.785  24.015  0.00  0.00    -0.153 OA
BRANCH  11  14
ATOM     14  C   UNL     1      -1.268  -0.148  24.947  0.00  0.00    +0.122 A 
ATOM     15  C   UNL     1      -1.187   0.160  25.707  0.00  0.00    +0.020 A 
ATOM     16  C   UNL     1      -0.758   0.855  25.827  0.00  0.00    +0.001 A 
ATOM     17  C   UNL     1      -0.411   1.241  25.185  0.00  0.00    +0.000 A 
ATOM     18  C   UNL     1      -0.493   0.933  24.425  0.00  0.00    +0.001 A 
ATOM     19  C   UNL     1      -0.922   0.238  24.305  0.00  0.00    +0.020 A 
ENDBRANCH  11  14
ENDBRANCH   9  11
TORSDOF 3
ENDMDL
MODEL 4
REMARK VINA RESULT:     -13.7      1.794      3.229
REMARK  Name = 
REMARK  3 active torsions:
REMARK  status: ('A' for Active; 'I' for Inactive)
REMARK    1  A    between atoms: N_9  and  S_11
REMARK    2  A    between atoms: S_11  and  C_14
REMARK    3  A    between atoms: C_23  and  C_24
REMARK                            x       y       z     vdW  Elec       q    Type
REMARK                         _______ _______ _______ _____ _____    ______ ____
ROOT
ATOM      1  O   UNL     1      -2.720   2.358  24.988  0.00  0.00    -0.267 OA
ATOM      2  C   UNL     1      -3.447   1.970  24.949  0.00  0.00    +0.261 A 
ATOM      3  N   UNL     1      -4.145   2.387  25.092  0.00  0.00    -0.299 N 
ATOM      4  C   UNL     1      -4.428   1.617  24.935  0.00  0.00    +0.110 C 
ATOM      5  C   UNL     1      -5.398   1.772  25.038  0.00  0.00    +0.041 C 
ATOM      6  C   UNL     1      -6.210   1.735  25.085  0.00  0.00    +0.011 C 
ATOM      7  C   UNL     1      -5.708   2.219  25.161  0.00  0.00    +0.056 C 
ATOM      8  C   UNL     1      -5.588   3.109  25.357  0.00  0.00    +0.102 C 
ATOM      9  N   UNL     1      -4.778   3.143  25.309  0.00  0.00    -0.155 NA
ATOM     10  C   UNL     1      -5.263   2.701  25.241  0.00  0.00    +0.098 C 
ATOM     20  C   UNL     1      -4.871   2.000  25.054  0.00  0.00    +0.041 A 
ATOM     21  C   UNL     1      -4.901   1.196  24.872  0.00  0.00    +0.013 A 
ATOM     22  C   UNL     1      -4.205   0.779  24.728  0.00  0.00    +0.006 A 
ATOM     23  C   UNL     1      -3.477   1.166  24.767  0.00  0.00    +0.062 A 
ENDROOT
BRANCH  23  24
ATOM     24  C   UNL     1      -2.780   0.749  24.623  0.00  0.00    +0.034 A 
ATOM     25  C   UNL     1      -2.357   0.742  23.915  0.00  0.00    +0.007 A 
ATOM     26  C   UNL     1      -1.698   0.255  24.016  0.00  0.00    +0.007 A 
ATOM     27  C   UNL     1      -1.715  -0.038  24.788  0.00  0.00    +0.035 A 
ATOM     28  S   UNL     1      -2.383   0.267  25.162  0.00  0.00    -0.086 S 
ENDBRANCH  23  24
BRANCH   9  11
ATOM     11  S   UNL     1      -4.015   3.455  25.328  0.00  0.00    +0.063 S 
ATOM     12  O   UNL     1      -4.065   3.627  24.523  0.00  0.00    -0.153 OA
ATOM     13  O   UNL     1      -3.964   3.283  26.133  0.00  0.00    -0.153 OA
BRANCH  11  14
ATOM     14  C   UNL     1      -3.251   3.767  25.347  0.00  0.00    +0.122 A 
ATOM     15  C   UNL     1      -2.916   4.080  24.662  0.00  0.00    +0.020 A 
ATOM     16  C   UNL     1      -2.152   4.393  24.681  0.00  0.00    +0.001 A 
ATOM     17  C   UNL     1      -1.725   4.391  25.387  0.00  0.00    +0.000 A 
ATOM     18  C   UNL     1      -2.059   4.078  26.072  0.00  0.00    +0.001 A 
ATOM     19  C   UNL     1      -2.823   3.765  26.053  0.00  0.00    +0.020 A 
ENDBRANCH  11  14
ENDBRANCH   9  11
TORSDOF 3
ENDMDL
MODEL 5
REMARK VINA RESULT:     -13.6      1.043      2.795
REMARK  Name = 
REMARK  3 active torsions:
REMARK  status: ('A' for Active; 'I' for Inactive)
REMARK    1  A    between atoms: N_9  and  S_11
REMARK    2  A    between atoms: S_11  and  C_14
REMARK    3  A    between atoms: C_23  and  C_24
REMARK                            x       y       z     vdW  Elec       q    Type
REMARK                         _______ _______ _______ _____ _____    ______ ____
ROOT
ATOM      1  O   UNL     1      -2.462   1.802  24.688  0.00  0.00    -0.267 OA
ATOM      2  C   UNL     1      -2.388   1.012  24.913  0.00  0.00    +0.261 A 
ATOM      3  N   UNL     1      -3.042   0.510  24.878  0.00  0.00    -0.299 N 
ATOM      4  C   UNL     1      -2.443   0.001  25.162  0.00  0.00    +0.110 C 
ATOM      5  C   UNL     1      -2.963  -0.835  25.248  0.00  0.00    +0.041 C 
ATOM      6  C   UNL     1      -3.244  -1.589  25.373  0.00  0.00    +0.011 C 
ATOM      7  C   UNL     1      -3.494  -0.973  25.149  0.00  0.00    +0.056 C 
ATOM      8  C   UNL     1      -4.266  -0.574  24.850  0.00  0.00    +0.102 C 
ATOM      9  N   UNL     1      -3.982   0.176  24.726  0.00  0.00    -0.155 NA
ATOM     10  C   UNL     1      -3.764  -0.410  24.934  0.00  0.00    +0.098 C 
ATOM     20  C   UNL     1      -2.968  -0.280  25.102  0.00  0.00    +0.041 A 
ATOM     21  C   UNL     1      -2.240  -0.568  25.362  0.00  0.00    +0.013 A 
ATOM     22  C   UNL     1      -1.587  -0.067  25.397  0.00  0.00    +0.006 A 
ATOM     23  C   UNL     1      -1.660   0.723  25.173  0.00  0.00    +0.062 A 
ENDROOT
BRANCH  23  24
ATOM     24  C   UNL     1      -1.006   1.225  25.208  0.00  0.00    +0.034 A 
ATOM     25  C   UNL     1      -0.817   1.731  25.831  0.00  0.00    +0.007 A 
ATOM     26  C   UNL     1      -0.121   2.128  25.635  0.00  0.00    +0.007 A 
ATOM     27  C   UNL     1       0.120   1.867  24.890  0.00  0.00    +0.035 A 
ATOM     28  S   UNL     1      -0.427   1.309  24.627  0.00  0.00    -0.086 S 
ENDBRANCH  23  24
BRANCH   9  11
ATOM     11  S   UNL     1      -3.974   0.975  24.520  0.00  0.00    +0.063 S 
ATOM     12  O   UNL     1      -3.760   0.775  23.749  0.00  0.00    -0.153 OA
ATOM     13  O   UNL     1      -4.187   1.176  25.292  0.00  0.00    -0.153 OA
BRANCH  11  14
ATOM     14  C   UNL     1      -3.965   1.774  24.315  0.00  0.00    +0.122 A 
ATOM     15  C   UNL     1      -3.758   2.001  23.550  0.00  0.00    +0.020 A 
ATOM     16  C   UNL     1      -3.749   2.801  23.344  0.00  0.00    +0.001 A 
ATOM     17  C   UNL     1      -3.948   3.372  23.905  0.00  0.00    +0.000 A 
ATOM     18  C   UNL     1      -4.155   3.145  24.670  0.00  0.00    +0.001 A 
ATOM     19  C   UNL     1      -4.164   2.346  24.875  0.00  0.00    +0.020 A 
ENDBRANCH  11  14
ENDBRANCH   9  11
TORSDOF 3
ENDMDL
