MODEL 1
REMARK VINA RESULT:     -15.1      0.000      0.000
REMARK  Name = 
REMARK  4 active torsions:
REMARK  status: ('A' for Active; 'I' for Inactive)
REMARK    1  A    between atoms: C_2  and  C_3
REMARK    2  A    between atoms: C_2  and  C_25
REMARK    3  A    between atoms: C_10  and  N_11
REMARK    4  A    between atoms: C_12  and  C_14
REMARK                            x       y       z     vdW  Elec       q    Type
REMARK                         _______ _______ _______ _____ _____    ______ ____
ROOT
ATOM      3  C   UNL     1      -4.259   0.186  24.676  0.00  0.00    +0.039 C 
ATOM      4  C   UNL     1      -4.972   0.413  25.026  0.00  0.00    +0.003 C 
ATOM      5  C   UNL     1      -5.097   1.201  25.232  0.00  0.00    +0.000 C 
ATOM      6  C   UNL     1      -4.511   1.763  25.088  0.00  0.00    +0.002 C 
ATOM      7  C   UNL     1      -5.222   1.990  25.437  0.00  0.00    +0.000 C 
ATOM      8  C   UNL     1      -4.636   2.552  25.293  0.00  0.00    +0.002 C 
ATOM      9  C   UNL     1      -4.050   3.114  25.150  0.00  0.00    +0.022 C 
ATOM     10  C   UNL     1      -3.337   2.887  24.800  0.00  0.00    +0.096 C 
ATOM     20  C   UNL     1      -3.212   2.099  24.594  0.00  0.00    +0.022 C 
ATOM     21  C   UNL     1      -2.500   1.872  24.245  0.00  0.00    +0.002 C 
ATOM     22  C   UNL     1      -3.798   1.536  24.738  0.00  0.00    +0.032 C 
ATOM     23  C   UNL     1      -3.673   0.747  24.532  0.00  0.00    +0.152 C 
ATOM     24  O   UNL     1      -2.961   0.521  24.183  0.00  0.00    -0.223 OA
ENDROOT
BRANCH  10  11
ATOM     11  N   UNL     1      -2.751   3.450  24.656  0.00  0.00    -0.203 NA
ATOM     12  C   UNL     1      -2.453   3.904  25.277  0.00  0.00    +0.265 C 
ATOM     13  O   UNL     1      -2.742   3.795  26.043  0.00  0.00    -0.268 OA
BRANCH  12  14
ATOM     14  C   UNL     1      -1.867   4.466  25.133  0.00  0.00    +0.055 A 
ATOM     15  C   UNL     1      -2.062   5.266  25.099  0.00  0.00    +0.005 A 
ATOM     16  C   UNL     1      -1.476   5.829  24.956  0.00  0.00    +0.000 A 
ATOM     17  C   UNL     1      -0.694   5.591  24.846  0.00  0.00    +0.000 A 
ATOM     18  C   UNL     1      -0.498   4.789  24.879  0.00  0.00    +0.000 A 
ATOM     19  C   UNL     1      -1.085   4.228  25.023  0.00  0.00    +0.005 A 
ENDBRANCH  12  14
ENDBRANCH  10  11
BRANCH   3   2
ATOM      1  C   UNL     1      -4.258  -0.854  23.694  0.00  0.00    +0.010 C 
ATOM      2  C   UNL     1      -4.134  -0.604  24.470  0.00  0.00    +0.079 C 
BRANCH   2  25
ATOM     25  C   UNL     1      -3.884  -1.144  25.042  0.00  0.00    +0.225 C 
ATOM     26  O   UNL     1      -3.802  -0.905  25.828  0.00  0.00    -0.275 OA
ATOM     27  N   UNL     1      -3.717  -1.923  24.828  0.00  0.00    -0.280 N 
ATOM     28  C   UNL     1      -3.463  -2.521  25.336  0.00  0.00    +0.093 C 
ATOM     29  C   UNL     1      -3.363  -3.209  24.891  0.00  0.00    +0.023 C 
ATOM     30  C   UNL     1      -3.555  -3.035  24.108  0.00  0.00    +0.023 C 
ATOM     31  C   UNL     1      -3.773  -2.240  24.069  0.00  0.00    +0.093 C 
ENDBRANCH   2  25
ENDBRANCH   3   2
TORSDOF 4
ENDMDL
MODEL 2
REMARK VINA RESULT:     -14.6      0.891      5.530
REMARK  Name = 
REMARK  4 active torsions:
REMARK  status: ('A' for Active; 'I' for Inactive)
REMARK    1  A    between atoms: C_2  and  C_3
REMARK    2  A    between atoms: C_2  and  C_25
REMARK    3  A    between atoms: C_10  and  N_11
REMARK    4  A    between atoms: C_12  and  C_14
REMARK                            x       y       z     vdW  Elec       q    Type
REMARK                         _______ _______ _______ _____ _____    ______ ____
ROOT
ATOM      3  C   UNL     1      -2.769   3.148  25.481  0.00  0.00    +0.039 C 
ATOM      4  C   UNL     1      -3.527   3.470  25.419  0.00  0.00    +0.003 C 
ATOM      5  C   UNL     1      -4.153   3.003  25.157  0.00  0.00    +0.000 C 
ATOM      6  C   UNL     1      -4.023   2.214  24.957  0.00  0.00    +0.002 C 
ATOM      7  C   UNL     1      -4.780   2.535  24.895  0.00  0.00    +0.000 C 
ATOM      8  C   UNL     1      -4.650   1.745  24.694  0.00  0.00    +0.002 C 
ATOM      9  C   UNL     1      -4.520   0.956  24.494  0.00  0.00    +0.022 C 
ATOM     10  C   UNL     1      -3.762   0.634  24.556  0.00  0.00    +0.096 C 
ATOM     20  C   UNL     1      -3.136   1.102  24.818  0.00  0.00    +0.022 C 
ATOM     21  C   UNL     1      -2.379   0.780  24.880  0.00  0.00    +0.002 C 
ATOM     22  C   UNL     1      -3.265   1.891  25.018  0.00  0.00    +0.032 C 
ATOM     23  C   UNL     1      -2.639   2.359  25.280  0.00  0.00    +0.152 C 
ATOM     24  O   UNL     1      -1.882   2.037  25.342  0.00  0.00    -0.223 OA
ENDROOT
BRANCH  10  11
ATOM     11  N   UNL     1      -3.633  -0.156  24.355  0.00  0.00    -0.203 NA
ATOM     12  C   UNL     1      -4.065  -0.752  24.727  0.00  0.00    +0.265 C 
ATOM     13  O   UNL     1      -4.627  -0.559  25.300  0.00  0.00    -0.268 OA
BRANCH  12  14
ATOM     14  C   UNL     1      -3.935  -1.542  24.526  0.00  0.00    +0.055 A 
ATOM     15  C   UNL     1      -3.468  -2.020  25.009  0.00  0.00    +0.005 A 
ATOM     16  C   UNL     1      -3.339  -2.810  24.809  0.00  0.00    +0.000 A 
ATOM     17  C   UNL     1      -3.677  -3.121  24.124  0.00  0.00    +0.000 A 
ATOM     18  C   UNL     1      -4.145  -2.643  23.639  0.00  0.00    +0.000 A 
ATOM     19  C   UNL     1      -4.273  -1.854  23.841  0.00  0.00    +0.005 A 
ENDBRANCH  12  14
ENDBRANCH  10  11
BRANCH   3   2
ATOM      1  C   UNL     1      -1.510   3.273  26.148  0.00  0.00    +0.010 C 
ATOM      2  C   UNL     1      -2.142   3.616  25.743  0.00  0.00    +0.079 C 
BRANCH   2  25
ATOM     25  C   UNL     1      -2.147   4.429  25.600  0.00  0.00    +0.225 C 
ATOM     26  O   UNL     1      -2.779   4.891  25.864  0.00  0.00    -0.275 OA
ATOM     27  N   UNL     1      -1.521   4.781  25.193  0.00  0.00    -0.280 N 
ATOM     28  C   UNL     1      -1.450   5.582  25.011  0.00  0.00    +0.093 C 
ATOM     29  C   UNL     1      -0.741   5.689  24.602  0.00  0.00    +0.023 C 
ATOM     30  C   UNL     1      -0.374   4.953  24.533  0.00  0.00    +0.023 C 
ATOM     31  C   UNL     1      -0.856   4.392  24.898  0.00  0.00    +0.093 C 
ENDBRANCH   2  25
ENDBRANCH   3   2
TORSDOF 4
ENDMDL
MODEL 3
REMARK VINA RESULT:     -13.3      1.553      2.441
REMARK  Name = 
REMARK  4 active torsions:
REMARK  status: ('A' for Active; 'I' for Inactive)
REMARK    1  A    between atoms: C_2  and  C_3
REMARK    2  A    between atoms: C_2  and  C_25
REMARK    3  A    between atoms: C_10  and  N_11
REMARK    4  A    between atoms: C_12  and  C_14
REMARK                            x       y       z     vdW  Elec       q    Type
REMARK                         _______ _______ _______ _____ _____    ______ ____
ROOT
ATOM      3  C   UNL     1      -2.191  -0.800  25.132  0.00  0.00    +0.039 C 
ATOM      4  C   UNL     1      -1.424  -1.082  25.015  0.00  0.00    +0.003 C 
ATOM      5  C   UNL     1      -0.810  -0.554  24.859  0.00  0.00    +0.000 C 
ATOM      6  C   UNL     1      -0.963   0.255  24.820  0.00  0.00    +0.002 C 
ATOM      7  C   UNL     1      -0.197  -0.026  24.703  0.00  0.00    +0.000 C 
ATOM      8  C   UNL     1      -0.349   0.784  24.663  0.00  0.00    +0.002 C 
ATOM      9  C   UNL     1      -0.502   1.594  24.624  0.00  0.00    +0.022 C 
ATOM     10  C   UNL     1      -1.269   1.875  24.741  0.00  0.00    +0.096 C 
ATOM     20  C   UNL     1      -1.883   1.347  24.897  0.00  0.00    +0.022 C 
ATOM     21  C   UNL     1      -2.649   1.628  25.014  0.00  0.00    +0.002 C 
ATOM     22  C   UNL     1      -1.731   0.537  24.937  0.00  0.00    +0.032 C 
ATOM     23  C   UNL     1      -2.344   0.009  25.093  0.00  0.00    +0.152 C 
ATOM     24  O   UNL     1      -3.111   0.290  25.210  0.00  0.00    -0.223 OA
ENDROOT
BRANCH  10  11
ATOM     11  N   UNL     1      -1.421   2.685  24.701  0.00  0.00    -0.203 NA
ATOM     12  C   UNL     1      -0.964   3.213  25.139  0.00  0.00    +0.265 C 
ATOM     13  O   UNL     1      -0.352   2.931  25.617  0.00  0.00    -0.268 OA
BRANCH  12  14
ATOM     14  C   UNL     1      -1.116   4.023  25.099  0.00  0.00    +0.055 A 
ATOM     15  C   UNL     1      -0.585   4.525  24.715  0.00  0.00    +0.005 A 
ATOM     16  C   UNL     1      -0.738   5.335  24.676  0.00  0.00    +0.000 A 
ATOM     17  C   UNL     1      -1.421   5.643  25.020  0.00  0.00    +0.000 A 
ATOM     18  C   UNL     1      -1.952   5.141  25.404  0.00  0.00    +0.000 A 
ATOM     19  C   UNL     1      -1.799   4.332  25.443  0.00  0.00    +0.005 A 
ENDBRANCH  12  14
ENDBRANCH  10  11
BRANCH   3   2
ATOM      1  C   UNL     1      -3.403  -1.125  25.820  0.00  0.00    +0.010 C 
ATOM      2  C   UNL     1      -2.805  -1.329  25.289  0.00  0.00    +0.079 C 
BRANCH   2  25
ATOM     25  C   UNL     1      -2.821  -2.064  24.913  0.00  0.00    +0.225 C 
ATOM     26  O   UNL     1      -2.204  -2.600  25.028  0.00  0.00    -0.275 OA
ATOM     27  N   UNL     1      -3.455  -2.263  24.422  0.00  0.00    -0.280 N 
ATOM     28  C   UNL     1      -3.546  -2.973  24.013  0.00  0.00    +0.093 C 
ATOM     29  C   UNL     1      -4.255  -2.936  23.593  0.00  0.00    +0.023 C 
ATOM     30  C   UNL     1      -4.601  -2.202  23.743  0.00  0.00    +0.023 C 
ATOM     31  C   UNL     1      -4.107  -1.786  24.256  0.00  0.00    +0.093 C 
ENDBRANCH   2  25
ENDBRANCH   3   2
TORSDOF 4
ENDMDL
MODEL 4
REMARK VINA RESULT:     -12.0      1.735      6.022
REMARK  Name = 
REMARK  4 active torsions:
REMARK  status: ('A' for Active; 'I' for Inactive)
REMARK    1  A    between atoms: C_2  and  C_3
REMARK    2  A    between atoms: C_2  and  C_25
REMARK    3  A    between atoms: C_10  and  N_11
REMARK    4  A    between atoms: C_12  and  C_14
REMARK                            x       y       z     vdW  Elec       q    Type
REMARK                         _______ _______ _______ _____ _____    ______ ____
ROOT
ATOM      3  C   UNL     1      -0.759   2.403  25.204  0.00  0.00    +0.039 C 
ATOM      4  C   UNL     1      -0.014   2.169  24.936  0.00  0.00    +0.003 C 
ATOM      5  C   UNL     1       0.089   1.421  24.604  0.00  0.00    +0.000 C 
ATOM      6  C   UNL     1      -0.553   0.907  24.541  0.00  0.00    +0.002 C 
ATOM      7  C   UNL     1       0.191   0.674  24.273  0.00  0.00    +0.000 C 
ATOM      8  C   UNL     1      -0.451   0.159  24.209  0.00  0.00    +0.002 C 
ATOM      9  C   UNL     1      -1.092  -0.356  24.145  0.00  0.00    +0.022 C 
ATOM     10  C   UNL     1      -1.837  -0.121  24.413  0.00  0.00    +0.096 C 
ATOM     20  C   UNL     1      -1.939   0.626  24.745  0.00  0.00    +0.022 C 
ATOM     21  C   UNL     1      -2.684   0.860  25.013  0.00  0.00    +0.002 C 
ATOM     22  C   UNL     1      -1.298   1.141  24.809  0.00  0.00    +0.032 C 
ATOM     23  C   UNL     1      -1.400   1.889  25.141  0.00  0.00    +0.152 C 
ATOM     24  O   UNL     1      -2.144   2.123  25.409  0.00  0.00    -0.223 OA
ENDROOT
BRANCH  10  11
ATOM     11  N   UNL     1      -2.479  -0.636  24.349  0.00  0.00    -0.203 NA
ATOM     12  C   UNL     1      -2.362  -1.450  24.409  0.00  0.00    +0.265 C 
ATOM     13  O   UNL     1      -1.603  -1.751  24.532  0.00  0.00    -0.268 OA
BRANCH  12  14
ATOM     14  C   UNL     1      -3.004  -1.965  24.345  0.00  0.00    +0.055 A 
ATOM     15  C   UNL     1      -3.652  -1.762  23.877  0.00  0.00    +0.005 A 
ATOM     16  C   UNL     1      -4.293  -2.277  23.813  0.00  0.00    +0.000 A 
ATOM     17  C   UNL     1      -4.286  -2.996  24.217  0.00  0.00    +0.000 A 
ATOM     18  C   UNL     1      -3.638  -3.200  24.686  0.00  0.00    +0.000 A 
ATOM     19  C   UNL     1      -2.997  -2.684  24.749  0.00  0.00    +0.005 A 
ENDBRANCH  12  14
ENDBRANCH  10  11
BRANCH   3   2
ATOM      1  C   UNL     1      -1.199   3.230  26.285  0.00  0.00    +0.010 C 
ATOM      2  C   UNL     1      -0.861   3.152  25.536  0.00  0.00    +0.079 C 
BRANCH   2  25
ATOM     25  C   UNL     1      -0.624   3.823  25.119  0.00  0.00    +0.225 C 
ATOM     26  O   UNL     1       0.088   3.819  24.701  0.00  0.00    -0.275 OA
ATOM     27  N   UNL     1      -1.098   4.499  25.120  0.00  0.00    -0.280 N 
ATOM     28  C   UNL     1      -0.934   5.207  24.730  0.00  0.00    +0.093 C 
ATOM     29  C   UNL     1      -1.554   5.730  24.880  0.00  0.00    +0.023 C 
ATOM     30  C   UNL     1      -2.101   5.344  25.362  0.00  0.00    +0.023 C 
ATOM     31  C   UNL     1      -1.820   4.583  25.510  0.00  0.00    +0.093 C 
ENDBRANCH   2  25
ENDBRANCH   3   2
TORSDOF 4
ENDMDL
MODEL 5
REMARK VINA RESULT:     -11.5      2.711      4.350
REMARK  Name = 
REMARK  4 active torsions:
REMARK  status: ('A' for Active; 'I' for Inactive)
REMARK    1  A    between atoms: C_2  and  C_3
REMARK    2  A    between atoms: C_2  and  C_25
REMARK    3  A    between atoms: C_10  and  N_11
REMARK    4  A    between atoms: C_12  and  C_14
REMARK                            x       y       z     vdW  Elec       q    Type
REMARK                         _______ _______ _______ _____ _____    ______ ____
ROOT
ATOM      3  C   UNL     1      -3.325   3.395  24.905  0.00  0.00    +0.039 C 
ATOM      4  C   UNL     1      -2.997   3.850  25.511  0.00  0.00    +0.003 C 
ATOM      5  C   UNL     1      -2.185   3.824  25.652  0.00  0.00    +0.000 C 
ATOM      6  C   UNL     1      -1.700   3.345  25.189  0.00  0.00    +0.002 C 
ATOM      7  C   UNL     1      -1.373   3.799  25.793  0.00  0.00    +0.000 C 
ATOM      8  C   UNL     1      -0.888   3.319  25.330  0.00  0.00    +0.002 C 
ATOM      9  C   UNL     1      -0.403   2.839  24.866  0.00  0.00    +0.022 C 
ATOM     10  C   UNL     1      -0.731   2.385  24.259  0.00  0.00    +0.096 C 
ATOM     20  C   UNL     1      -1.543   2.410  24.118  0.00  0.00    +0.022 C 
ATOM     21  C   UNL     1      -1.871   1.956  23.512  0.00  0.00    +0.002 C 
ATOM     22  C   UNL     1      -2.029   2.890  24.582  0.00  0.00    +0.032 C 
ATOM     23  C   UNL     1      -2.840   2.916  24.441  0.00  0.00    +0.152 C 
ATOM     24  O   UNL     1      -3.168   2.461  23.835  0.00  0.00    -0.223 OA
ENDROOT
BRANCH  10  11
ATOM     11  N   UNL     1      -0.246   1.905  23.795  0.00  0.00    -0.203 NA
ATOM     12  C   UNL     1       0.248   1.350  24.152  0.00  0.00    +0.265 C 
ATOM     13  O   UNL     1       0.258   1.273  24.974  0.00  0.00    -0.268 OA
BRANCH  12  14
ATOM     14  C   UNL     1       0.733   0.870  23.688  0.00  0.00    +0.055 A 
ATOM     15  C   UNL     1       0.455   0.145  23.411  0.00  0.00    +0.005 A 
ATOM     16  C   UNL     1       0.940  -0.335  22.947  0.00  0.00    +0.000 A 
ATOM     17  C   UNL     1       1.705  -0.088  22.760  0.00  0.00    +0.000 A 
ATOM     18  C   UNL     1       1.984   0.638  23.037  0.00  0.00    +0.000 A 
ATOM     19  C   UNL     1       1.498   1.116  23.501  0.00  0.00    +0.005 A 
ENDBRANCH  12  14
ENDBRANCH  10  11
BRANCH   3   2
ATOM      1  C   UNL     1      -4.421   3.491  23.992  0.00  0.00    +0.010 C 
ATOM      2  C   UNL     1      -4.137   3.421  24.764  0.00  0.00    +0.079 C 
BRANCH   2  25
ATOM     25  C   UNL     1      -4.667   3.377  25.395  0.00  0.00    +0.225 C 
ATOM     26  O   UNL     1      -4.617   3.922  26.014  0.00  0.00    -0.275 OA
ATOM     27  N   UNL     1      -5.246   2.789  25.408  0.00  0.00    -0.280 N 
ATOM     28  C   UNL     1      -5.810   2.678  25.999  0.00  0.00    +0.093 C 
ATOM     29  C   UNL     1      -6.275   2.029  25.789  0.00  0.00    +0.023 C 
ATOM     30  C   UNL     1      -5.998   1.741  25.067  0.00  0.00    +0.023 C 
ATOM     31  C   UNL     1      -5.362   2.211  24.832  0.00  0.00    +0.093 C 
ENDBRANCH   2  25
ENDBRANCH   3   2
TORSDOF 4
ENDMDL
