MODEL 1
REMARK VINA RESULT:      -9.6      0.000      0.000
REMARK  Name = 
REMARK  6 active torsions:
REMARK  status: ('A' for Active; 'I' for Inactive)
REMARK    1  A    between atoms: O_2  and  C_3
REMARK    2  A    between atoms: C_3  and  C_5
REMARK    3  A    between atoms: C_5  and  O_6
REMARK    4  A    between atoms: O_6  and  C_7
REMARK    5  A    between atoms: C_11  and  N_15
REMARK    6  A    between atoms: C_18  and  C_22
REMARK                            x       y       z     vdW  Elec       q    Type
REMARK                         _______ _______ _______ _____ _____    ______ ____
ROOT
ATOM      7  C   UNL     1       0.590   0.639  23.598  0.00  0.00    +0.175 C 
ATOM      8  C   UNL     1       0.146  -0.053  23.667  0.00  0.00    +0.174 C 
ATOM      9  O   UNL     1      -0.567   0.139  24.035  0.00  0.00    -0.349 OA
ATOM     10  C   UNL     1      -0.564   0.947  24.193  0.00  0.00    +0.167 C 
ATOM     11  C   UNL     1      -1.002   1.566  24.518  0.00  0.00    +0.154 C 
ATOM     12  C   UNL     1      -0.558   2.258  24.449  0.00  0.00    +0.166 C 
ATOM     13  O   UNL     1       0.155   2.067  24.081  0.00  0.00    -0.349 OA
ATOM     14  C   UNL     1       0.152   1.257  23.923  0.00  0.00    +0.173 C 
ENDROOT
BRANCH  11  15
ATOM     15  N   UNL     1      -1.753   1.504  24.854  0.00  0.00    -0.200 NA
ATOM     16  C   UNL     1      -2.388   1.915  24.523  0.00  0.00    +0.237 A 
ATOM     17  N   UNL     1      -3.139   1.852  24.859  0.00  0.00    -0.212 NA
ATOM     18  C   UNL     1      -3.774   2.263  24.529  0.00  0.00    +0.086 A 
ATOM     19  C   UNL     1      -3.658   2.736  23.863  0.00  0.00    +0.040 A 
ATOM     20  C   UNL     1      -2.906   2.798  23.527  0.00  0.00    +0.103 A 
ATOM     21  N   UNL     1      -2.272   2.388  23.858  0.00  0.00    -0.211 NA
BRANCH  18  22
ATOM     22  C   UNL     1      -4.525   2.201  24.864  0.00  0.00    +0.020 A 
ATOM     23  C   UNL     1      -4.974   1.517  24.747  0.00  0.00    +0.002 A 
ATOM     24  C   UNL     1      -5.724   1.455  25.082  0.00  0.00    +0.002 A 
ATOM     25  C   UNL     1      -6.028   2.075  25.534  0.00  0.00    +0.030 A 
ATOM     26  C   UNL     1      -5.580   2.758  25.650  0.00  0.00    +0.140 A 
ATOM     27  F   UNL     1      -5.882   3.379  26.101  0.00  0.00    -0.204 F 
ATOM     28  C   UNL     1      -4.828   2.820  25.315  0.00  0.00    +0.031 A 
ENDBRANCH  18  22
ENDBRANCH  11  15
BRANCH   7   6
ATOM      6  O   UNL     1       1.342   0.701  23.262  0.00  0.00    -0.340 OA
BRANCH   6   5
ATOM      5  C   UNL     1       1.701   0.038  22.928  0.00  0.00    +0.252 C 
BRANCH   5   3
ATOM      3  C   UNL     1       2.403   0.118  22.504  0.00  0.00    +0.348 C 
ATOM      4  O   UNL     1       2.415  -0.029  21.692  0.00  0.00    -0.247 OA
BRANCH   3   2
ATOM      1  C   UNL     1       3.777   0.511  22.456  0.00  0.00    +0.256 C 
ATOM      2  O   UNL     1       3.096   0.347  22.891  0.00  0.00    -0.443 OA
ENDBRANCH   3   2
ENDBRANCH   5   3
ENDBRANCH   6   5
ENDBRANCH   7   6
TORSDOF 6
ENDMDL
MODEL 2
REMARK VINA RESULT:      -9.0      2.323      2.926
REMARK  Name = 
REMARK  6 active torsions:
REMARK  status: ('A' for Active; 'I' for Inactive)
REMARK    1  A    between atoms: O_2  and  C_3
REMARK    2  A    between atoms: C_3  and  C_5
REMARK    3  A    between atoms: C_5  and  O_6
REMARK    4  A    between atoms: O_6  and  C_7
REMARK    5  A    between atoms: C_11  and  N_15
REMARK    6  A    between atoms: C_18  and  C_22
REMARK                            x       y       z     vdW  Elec       q    Type
REMARK                         _______ _______ _______ _____ _____    ______ ____
ROOT
ATOM      7  C   UNL     1       2.183   0.553  22.997  0.00  0.00    +0.175 C 
ATOM      8  C   UNL     1       1.921  -0.042  22.490  0.00  0.00    +0.174 C 
ATOM      9  O   UNL     1       1.106  -0.119  22.588  0.00  0.00    -0.349 OA
ATOM     10  C   UNL     1       0.864   0.428  23.155  0.00  0.00    +0.167 C 
ATOM     11  C   UNL     1       0.211   0.719  23.567  0.00  0.00    +0.154 C 
ATOM     12  C   UNL     1       0.473   1.314  24.074  0.00  0.00    +0.166 C 
ATOM     13  O   UNL     1       1.288   1.392  23.976  0.00  0.00    -0.349 OA
ATOM     14  C   UNL     1       1.530   0.844  23.408  0.00  0.00    +0.173 C 
ENDROOT
BRANCH  11  15
ATOM     15  N   UNL     1      -0.568   0.459  23.486  0.00  0.00    -0.200 NA
ATOM     16  C   UNL     1      -0.979   0.175  24.142  0.00  0.00    +0.237 A 
ATOM     17  N   UNL     1      -1.758  -0.084  24.062  0.00  0.00    -0.212 NA
ATOM     18  C   UNL     1      -2.169  -0.368  24.718  0.00  0.00    +0.086 A 
ATOM     19  C   UNL     1      -1.801  -0.392  25.456  0.00  0.00    +0.040 A 
ATOM     20  C   UNL     1      -1.022  -0.132  25.537  0.00  0.00    +0.103 A 
ATOM     21  N   UNL     1      -0.611   0.151  24.880  0.00  0.00    -0.211 NA
BRANCH  18  22
ATOM     22  C   UNL     1      -2.947  -0.627  24.637  0.00  0.00    +0.020 A 
ATOM     23  C   UNL     1      -3.570  -0.087  24.691  0.00  0.00    +0.002 A 
ATOM     24  C   UNL     1      -4.349  -0.347  24.610  0.00  0.00    +0.002 A 
ATOM     25  C   UNL     1      -4.506  -1.145  24.475  0.00  0.00    +0.030 A 
ATOM     26  C   UNL     1      -3.884  -1.685  24.422  0.00  0.00    +0.140 A 
ATOM     27  F   UNL     1      -4.040  -2.483  24.288  0.00  0.00    -0.204 F 
ATOM     28  C   UNL     1      -3.105  -1.425  24.503  0.00  0.00    +0.031 A 
ENDBRANCH  18  22
ENDBRANCH  11  15
BRANCH   7   6
ATOM      6  O   UNL     1       2.962   0.813  23.078  0.00  0.00    -0.340 OA
BRANCH   6   5
ATOM      5  C   UNL     1       3.584   0.344  22.807  0.00  0.00    +0.252 C 
BRANCH   5   3
ATOM      3  C   UNL     1       4.354   0.488  23.066  0.00  0.00    +0.348 C 
ATOM      4  O   UNL     1       4.617   1.264  23.164  0.00  0.00    -0.247 OA
BRANCH   3   2
ATOM      1  C   UNL     1       5.603  -0.002  23.557  0.00  0.00    +0.256 C 
ATOM      2  O   UNL     1       4.860  -0.143  23.228  0.00  0.00    -0.443 OA
ENDBRANCH   3   2
ENDBRANCH   5   3
ENDBRANCH   6   5
ENDBRANCH   7   6
TORSDOF 6
ENDMDL
MODEL 3
REMARK VINA RESULT:      -8.6      3.023      4.383
REMARK  Name = 
REMARK  6 active torsions:
REMARK  status: ('A' for Active; 'I' for Inactive)
REMARK    1  A    between atoms: O_2  and  C_3
REMARK    2  A    between atoms: C_3  and  C_5
REMARK    3  A    between atoms: C_5  and  O_6
REMARK    4  A    between atoms: O_6  and  C_7
REMARK    5  A    between atoms: C_11  and  N_15
REMARK    6  A    between atoms: C_18  and  C_22
REMARK                            x       y       z     vdW  Elec       q    Type
REMARK                         _______ _______ _______ _____ _____    ______ ____
ROOT
ATOM      7  C   UNL     1      -0.803   3.045  24.419  0.00  0.00    +0.175 C 
ATOM      8  C   UNL     1      -0.367   2.505  24.864  0.00  0.00    +0.174 C 
ATOM      9  O   UNL     1      -0.679   1.754  24.730  0.00  0.00    -0.349 OA
ATOM     10  C   UNL     1      -1.308   1.829  24.203  0.00  0.00    +0.167 C 
ATOM     11  C   UNL     1      -1.891   1.412  23.794  0.00  0.00    +0.154 C 
ATOM     12  C   UNL     1      -2.327   1.952  23.348  0.00  0.00    +0.166 C 
ATOM     13  O   UNL     1      -2.015   2.703  23.482  0.00  0.00    -0.349 OA
ATOM     14  C   UNL     1      -1.385   2.628  24.010  0.00  0.00    +0.173 C 
ENDROOT
BRANCH  11  15
ATOM     15  N   UNL     1      -2.015   0.597  23.825  0.00  0.00    -0.200 NA
ATOM     16  C   UNL     1      -2.744   0.299  24.070  0.00  0.00    +0.237 A 
ATOM     17  N   UNL     1      -2.869  -0.515  24.101  0.00  0.00    -0.212 NA
ATOM     18  C   UNL     1      -3.598  -0.813  24.346  0.00  0.00    +0.086 A 
ATOM     19  C   UNL     1      -4.204  -0.295  24.560  0.00  0.00    +0.040 A 
ATOM     20  C   UNL     1      -4.080   0.520  24.529  0.00  0.00    +0.103 A 
ATOM     21  N   UNL     1      -3.350   0.817  24.284  0.00  0.00    -0.211 NA
BRANCH  18  22
ATOM     22  C   UNL     1      -3.722  -1.628  24.377  0.00  0.00    +0.020 A 
ATOM     23  C   UNL     1      -4.142  -2.004  23.773  0.00  0.00    +0.002 A 
ATOM     24  C   UNL     1      -4.267  -2.819  23.805  0.00  0.00    +0.002 A 
ATOM     25  C   UNL     1      -3.972  -3.258  24.438  0.00  0.00    +0.030 A 
ATOM     26  C   UNL     1      -3.553  -2.881  25.041  0.00  0.00    +0.140 A 
ATOM     27  F   UNL     1      -3.258  -3.319  25.674  0.00  0.00    -0.204 F 
ATOM     28  C   UNL     1      -3.428  -2.066  25.010  0.00  0.00    +0.031 A 
ENDBRANCH  18  22
ENDBRANCH  11  15
BRANCH   7   6
ATOM      6  O   UNL     1      -0.679   3.861  24.388  0.00  0.00    -0.340 OA
BRANCH   6   5
ATOM      5  C   UNL     1      -0.739   4.314  25.074  0.00  0.00    +0.252 C 
BRANCH   5   3
ATOM      3  C   UNL     1      -0.905   5.120  25.024  0.00  0.00    +0.348 C 
ATOM      4  O   UNL     1      -0.383   5.625  24.633  0.00  0.00    -0.247 OA
BRANCH   3   2
ATOM      1  C   UNL     1      -1.924   6.121  25.076  0.00  0.00    +0.256 C 
ATOM      2  O   UNL     1      -1.593   5.422  25.364  0.00  0.00    -0.443 OA
ENDBRANCH   3   2
ENDBRANCH   5   3
ENDBRANCH   6   5
ENDBRANCH   7   6
TORSDOF 6
ENDMDL
MODEL 4
REMARK VINA RESULT:      -7.2      2.862      6.352
REMARK  Name = 
REMARK  6 active torsions:
REMARK  status: ('A' for Active; 'I' for Inactive)
REMARK    1  A    between atoms: O_2  and  C_3
REMARK    2  A    between atoms: C_3  and  C_5
REMARK    3  A    between atoms: C_5  and  O_6
REMARK    4  A    between atoms: O_6  and  C_7
REMARK    5  A    between atoms: C_11  and  N_15
REMARK    6  A    between atoms: C_18  and  C_22
REMARK                            x       y       z     vdW  Elec       q    Type
REMARK                         _______ _______ _______ _____ _____    ______ ____
ROOT
ATOM      7  C   UNL     1      -3.400   2.620  24.819  0.00  0.00    +0.175 C 
ATOM      8  C   UNL     1      -3.395   2.751  24.005  0.00  0.00    +0.174 C 
ATOM      9  O   UNL     1      -2.650   2.544  23.719  0.00  0.00    -0.349 OA
ATOM     10  C   UNL     1      -2.194   2.287  24.356  0.00  0.00    +0.167 C 
ATOM     11  C   UNL     1      -1.452   2.000  24.574  0.00  0.00    +0.154 C 
ATOM     12  C   UNL     1      -1.457   1.869  25.389  0.00  0.00    +0.166 C 
ATOM     13  O   UNL     1      -2.203   2.075  25.674  0.00  0.00    -0.349 OA
ATOM     14  C   UNL     1      -2.658   2.334  25.036  0.00  0.00    +0.173 C 
ENDROOT
BRANCH  11  15
ATOM     15  N   UNL     1      -0.815   1.867  24.066  0.00  0.00    -0.200 NA
ATOM     16  C   UNL     1      -0.473   1.117  24.020  0.00  0.00    +0.237 A 
ATOM     17  N   UNL     1       0.163   0.984  23.512  0.00  0.00    -0.212 NA
ATOM     18  C   UNL     1       0.505   0.235  23.467  0.00  0.00    +0.086 A 
ATOM     19  C   UNL     1       0.211  -0.381  23.929  0.00  0.00    +0.040 A 
ATOM     20  C   UNL     1      -0.426  -0.248  24.438  0.00  0.00    +0.103 A 
ATOM     21  N   UNL     1      -0.767   0.501  24.483  0.00  0.00    -0.211 NA
BRANCH  18  22
ATOM     22  C   UNL     1       1.141   0.102  22.959  0.00  0.00    +0.020 A 
ATOM     23  C   UNL     1       1.911   0.263  23.211  0.00  0.00    +0.002 A 
ATOM     24  C   UNL     1       2.547   0.130  22.703  0.00  0.00    +0.002 A 
ATOM     25  C   UNL     1       2.415  -0.164  21.944  0.00  0.00    +0.030 A 
ATOM     26  C   UNL     1       1.646  -0.326  21.693  0.00  0.00    +0.140 A 
ATOM     27  F   UNL     1       1.512  -0.620  20.934  0.00  0.00    -0.204 F 
ATOM     28  C   UNL     1       1.009  -0.192  22.201  0.00  0.00    +0.031 A 
ENDBRANCH  18  22
ENDBRANCH  11  15
BRANCH   7   6
ATOM      6  O   UNL     1      -4.037   2.753  25.328  0.00  0.00    -0.340 OA
BRANCH   6   5
ATOM      5  C   UNL     1      -4.807   2.768  25.030  0.00  0.00    +0.252 C 
BRANCH   5   3
ATOM      3  C   UNL     1      -5.449   2.782  25.547  0.00  0.00    +0.348 C 
ATOM      4  O   UNL     1      -5.741   3.502  25.823  0.00  0.00    -0.247 OA
BRANCH   3   2
ATOM      1  C   UNL     1      -6.474   2.090  26.262  0.00  0.00    +0.256 C 
ATOM      2  O   UNL     1      -5.799   2.075  25.790  0.00  0.00    -0.443 OA
ENDBRANCH   3   2
ENDBRANCH   5   3
ENDBRANCH   6   5
ENDBRANCH   7   6
TORSDOF 6
ENDMDL
