MODEL 1
REMARK VINA RESULT:      -9.1      0.000      0.000
REMARK  Name = 
REMARK  8 active torsions:
REMARK  status: ('A' for Active; 'I' for Inactive)
REMARK    1  A    between atoms: S_2  and  C_3
REMARK    2  A    between atoms: C_3  and  C_4
REMARK    3  A    between atoms: C_8  and  N_19
REMARK    4  A    between atoms: C_10  and  C_11
REMARK    5  A    between atoms: N_13  and  C_15
REMARK    6  A    between atoms: C_15  and  C_16
REMARK    7  A    between atoms: N_22  and  C_23
REMARK    8  A    between atoms: C_25  and  S_26
REMARK                            x       y       z     vdW  Elec       q    Type
REMARK                         _______ _______ _______ _____ _____    ______ ____
ROOT
ATOM      4  C   UNL     1      -2.499   3.316  24.916  0.00  0.00    +0.237 C 
ATOM      5  O   UNL     1      -2.808   4.016  25.226  0.00  0.00    -0.274 OA
ATOM      6  N   UNL     1      -2.995   2.776  24.540  0.00  0.00    -0.270 N 
ATOM      7  C   UNL     1      -2.766   2.057  24.206  0.00  0.00    +0.116 C 
ATOM      8  C   UNL     1      -3.438   1.697  23.891  0.00  0.00    +0.119 C 
ATOM      9  C   UNL     1      -4.083   2.193  24.031  0.00  0.00    +0.053 C 
ATOM     10  C   UNL     1      -3.809   2.860  24.432  0.00  0.00    +0.154 C 
ENDROOT
BRANCH  10  11
ATOM     11  C   UNL     1      -4.269   3.499  24.681  0.00  0.00    +0.244 C 
ATOM     12  O   UNL     1      -4.083   4.262  24.429  0.00  0.00    -0.273 OA
ATOM     13  N   UNL     1      -4.912   3.373  25.180  0.00  0.00    -0.268 N 
ATOM     14  C   UNL     1      -5.371   4.012  25.429  0.00  0.00    +0.115 C 
BRANCH  13  15
ATOM     15  C   UNL     1      -5.098   2.610  25.432  0.00  0.00    +0.183 C 
BRANCH  15  16
ATOM     16  C   UNL     1      -5.756   2.481  25.911  0.00  0.00    +0.281 C 
ATOM     17  N   UNL     1      -6.429   2.118  25.601  0.00  0.00    -0.086 NA
ATOM     18  O   UNL     1      -5.742   2.716  26.702  0.00  0.00    -0.270 OA
ENDBRANCH  15  16
ENDBRANCH  13  15
ENDBRANCH  10  11
BRANCH   8  19
ATOM     19  N   UNL     1      -3.462   0.969  23.505  0.00  0.00    -0.187 NA
ATOM     20  C   UNL     1      -3.406   0.269  23.939  0.00  0.00    +0.343 C 
ATOM     21  O   UNL     1      -3.326   0.298  24.760  0.00  0.00    -0.249 OA
ATOM     22  N   UNL     1      -3.429  -0.459  23.551  0.00  0.00    -0.161 NA
BRANCH  22  23
ATOM     23  C   UNL     1      -3.373  -1.159  23.986  0.00  0.00    +0.075 A 
ATOM     24  C   UNL     1      -2.648  -1.548  24.047  0.00  0.00    +0.023 A 
ATOM     25  C   UNL     1      -2.592  -2.247  24.481  0.00  0.00    +0.027 A 
ATOM     28  C   UNL     1      -3.259  -2.557  24.855  0.00  0.00    +0.006 A 
ATOM     29  C   UNL     1      -3.984  -2.167  24.794  0.00  0.00    +0.002 A 
ATOM     30  C   UNL     1      -4.040  -1.468  24.359  0.00  0.00    +0.017 A 
BRANCH  25  26
ATOM     26  S   UNL     1      -1.867  -2.637  24.543  0.00  0.00    -0.113 S 
ATOM     27  C   UNL     1      -1.266  -2.321  25.011  0.00  0.00    +0.074 C 
ENDBRANCH  25  26
ENDBRANCH  22  23
ENDBRANCH   8  19
BRANCH   4   3
ATOM      3  C   UNL     1      -1.691   3.158  24.984  0.00  0.00    +0.143 C 
BRANCH   3   2
ATOM      1  C   UNL     1      -0.386   3.549  25.414  0.00  0.00    +0.070 C 
ATOM      2  S   UNL     1      -1.197   3.693  25.372  0.00  0.00    -0.130 S 
ENDBRANCH   3   2
ENDBRANCH   4   3
TORSDOF 8
ENDMDL
MODEL 2
REMARK VINA RESULT:      -8.9      2.344      5.056
REMARK  Name = 
REMARK  8 active torsions:
REMARK  status: ('A' for Active; 'I' for Inactive)
REMARK    1  A    between atoms: S_2  and  C_3
REMARK    2  A    between atoms: C_3  and  C_4
REMARK    3  A    between atoms: C_8  and  N_19
REMARK    4  A    between atoms: C_10  and  C_11
REMARK    5  A    between atoms: N_13  and  C_15
REMARK    6  A    between atoms: C_15  and  C_16
REMARK    7  A    between atoms: N_22  and  C_23
REMARK    8  A    between atoms: C_25  and  S_26
REMARK                            x       y       z     vdW  Elec       q    Type
REMARK                         _______ _______ _______ _____ _____    ______ ____
ROOT
ATOM      4  C   UNL     1       0.054  -0.337  23.945  0.00  0.00    +0.237 C 
ATOM      5  O   UNL     1       0.135  -1.158  23.909  0.00  0.00    -0.274 OA
ATOM      6  N   UNL     1      -0.453   0.004  24.498  0.00  0.00    -0.270 N 
ATOM      7  C   UNL     1      -0.590   0.812  24.598  0.00  0.00    +0.116 C 
ATOM      8  C   UNL     1      -1.134   0.905  25.211  0.00  0.00    +0.119 C 
ATOM      9  C   UNL     1      -1.334   0.154  25.490  0.00  0.00    +0.053 C 
ATOM     10  C   UNL     1      -0.914  -0.402  25.050  0.00  0.00    +0.154 C 
ENDROOT
BRANCH  10  11
ATOM     11  C   UNL     1      -0.947  -1.221  25.144  0.00  0.00    +0.244 C 
ATOM     12  O   UNL     1      -0.267  -1.641  25.348  0.00  0.00    -0.273 OA
ATOM     13  N   UNL     1      -1.660  -1.620  25.034  0.00  0.00    -0.268 N 
ATOM     14  C   UNL     1      -1.694  -2.439  25.129  0.00  0.00    +0.115 C 
BRANCH  13  15
ATOM     15  C   UNL     1      -2.341  -1.200  24.830  0.00  0.00    +0.183 C 
BRANCH  15  16
ATOM     16  C   UNL     1      -3.054  -1.599  24.717  0.00  0.00    +0.281 C 
ATOM     17  N   UNL     1      -3.560  -1.730  25.355  0.00  0.00    -0.086 NA
ATOM     18  O   UNL     1      -3.260  -1.868  23.965  0.00  0.00    -0.270 OA
ENDBRANCH  15  16
ENDBRANCH  13  15
ENDBRANCH  10  11
BRANCH   8  19
ATOM     19  N   UNL     1      -1.427   1.621  25.495  0.00  0.00    -0.187 NA
ATOM     20  C   UNL     1      -2.099   1.958  25.153  0.00  0.00    +0.343 C 
ATOM     21  O   UNL     1      -2.478   1.576  24.527  0.00  0.00    -0.249 OA
ATOM     22  N   UNL     1      -2.391   2.674  25.438  0.00  0.00    -0.161 NA
BRANCH  22  23
ATOM     23  C   UNL     1      -3.064   3.010  25.096  0.00  0.00    +0.075 A 
ATOM     24  C   UNL     1      -3.782   2.997  25.502  0.00  0.00    +0.023 A 
ATOM     25  C   UNL     1      -4.454   3.332  25.160  0.00  0.00    +0.027 A 
ATOM     28  C   UNL     1      -4.408   3.680  24.414  0.00  0.00    +0.006 A 
ATOM     29  C   UNL     1      -3.689   3.692  24.008  0.00  0.00    +0.002 A 
ATOM     30  C   UNL     1      -3.018   3.357  24.350  0.00  0.00    +0.017 A 
BRANCH  25  26
ATOM     26  S   UNL     1      -5.172   3.320  25.566  0.00  0.00    -0.113 S 
ATOM     27  C   UNL     1      -5.692   2.686  25.467  0.00  0.00    +0.074 C 
ENDBRANCH  25  26
ENDBRANCH  22  23
ENDBRANCH   8  19
BRANCH   4   3
ATOM      3  C   UNL     1       0.481   0.142  23.426  0.00  0.00    +0.143 C 
BRANCH   3   2
ATOM      1  C   UNL     1       1.637   0.192  22.588  0.00  0.00    +0.070 C 
ATOM      2  S   UNL     1       0.962  -0.202  22.850  0.00  0.00    -0.130 S 
ENDBRANCH   3   2
ENDBRANCH   4   3
TORSDOF 8
ENDMDL
MODEL 3
REMARK VINA RESULT:      -8.6      1.224      2.670
REMARK  Name = 
REMARK  8 active torsions:
REMARK  status: ('A' for Active; 'I' for Inactive)
REMARK    1  A    between atoms: S_2  and  C_3
REMARK    2  A    between atoms: C_3  and  C_4
REMARK    3  A    between atoms: C_8  and  N_19
REMARK    4  A    between atoms: C_10  and  C_11
REMARK    5  A    between atoms: N_13  and  C_15
REMARK    6  A    between atoms: C_15  and  C_16
REMARK    7  A    between atoms: N_22  and  C_23
REMARK    8  A    between atoms: C_25  and  S_26
REMARK                            x       y       z     vdW  Elec       q    Type
REMARK                         _______ _______ _______ _____ _____    ______ ____
ROOT
ATOM      4  C   UNL     1      -3.906   3.368  25.185  0.00  0.00    +0.237 C 
ATOM      5  O   UNL     1      -3.535   4.047  25.471  0.00  0.00    -0.274 OA
ATOM      6  N   UNL     1      -3.487   2.834  24.716  0.00  0.00    -0.270 N 
ATOM      7  C   UNL     1      -3.783   2.135  24.393  0.00  0.00    +0.116 C 
ATOM      8  C   UNL     1      -3.177   1.775  23.965  0.00  0.00    +0.119 C 
ATOM      9  C   UNL     1      -2.505   2.252  24.023  0.00  0.00    +0.053 C 
ATOM     10  C   UNL     1      -2.697   2.906  24.487  0.00  0.00    +0.154 C 
ENDROOT
BRANCH  10  11
ATOM     11  C   UNL     1      -2.188   3.524  24.688  0.00  0.00    +0.244 C 
ATOM     12  O   UNL     1      -2.393   4.302  24.503  0.00  0.00    -0.273 OA
ATOM     13  N   UNL     1      -1.477   3.364  25.072  0.00  0.00    -0.268 N 
ATOM     14  C   UNL     1      -0.968   3.982  25.272  0.00  0.00    +0.115 C 
BRANCH  13  15
ATOM     15  C   UNL     1      -1.273   2.586  25.257  0.00  0.00    +0.183 C 
BRANCH  15  16
ATOM     16  C   UNL     1      -0.578   2.429  25.671  0.00  0.00    +0.281 C 
ATOM     17  N   UNL     1       0.099   2.187  25.267  0.00  0.00    -0.086 NA
ATOM     18  O   UNL     1      -0.559   2.515  26.492  0.00  0.00    -0.270 OA
ENDBRANCH  15  16
ENDBRANCH  13  15
ENDBRANCH  10  11
BRANCH   8  19
ATOM     19  N   UNL     1      -3.231   1.064  23.551  0.00  0.00    -0.187 NA
ATOM     20  C   UNL     1      -3.253   0.348  23.961  0.00  0.00    +0.343 C 
ATOM     21  O   UNL     1      -3.220   0.344  24.785  0.00  0.00    -0.249 OA
ATOM     22  N   UNL     1      -3.308  -0.363  23.546  0.00  0.00    -0.161 NA
BRANCH  22  23
ATOM     23  C   UNL     1      -3.330  -1.079  23.957  0.00  0.00    +0.075 A 
ATOM     24  C   UNL     1      -2.637  -1.517  24.057  0.00  0.00    +0.023 A 
ATOM     25  C   UNL     1      -2.659  -2.232  24.467  0.00  0.00    +0.027 A 
ATOM     28  C   UNL     1      -3.371  -2.509  24.778  0.00  0.00    +0.006 A 
ATOM     29  C   UNL     1      -4.063  -2.070  24.678  0.00  0.00    +0.002 A 
ATOM     30  C   UNL     1      -4.041  -1.356  24.267  0.00  0.00    +0.017 A 
BRANCH  25  26
ATOM     26  S   UNL     1      -1.967  -2.671  24.568  0.00  0.00    -0.113 S 
ATOM     27  C   UNL     1      -1.338  -2.357  24.999  0.00  0.00    +0.074 C 
ENDBRANCH  25  26
ENDBRANCH  22  23
ENDBRANCH   8  19
BRANCH   4   3
ATOM      3  C   UNL     1      -4.697   3.222  25.370  0.00  0.00    +0.143 C 
BRANCH   3   2
ATOM      1  C   UNL     1      -5.967   3.738  25.772  0.00  0.00    +0.070 C 
ATOM      2  S   UNL     1      -5.145   3.802  25.749  0.00  0.00    -0.130 S 
ENDBRANCH   3   2
ENDBRANCH   4   3
TORSDOF 8
ENDMDL
MODEL 4
REMARK VINA RESULT:      -8.5      2.127      4.868
REMARK  Name = 
REMARK  8 active torsions:
REMARK  status: ('A' for Active; 'I' for Inactive)
REMARK    1  A    between atoms: S_2  and  C_3
REMARK    2  A    between atoms: C_3  and  C_4
REMARK    3  A    between atoms: C_8  and  N_19
REMARK    4  A    between atoms: C_10  and  C_11
REMARK    5  A    between atoms: N_13  and  C_15
REMARK    6  A    between atoms: C_15  and  C_16
REMARK    7  A    between atoms: N_22  and  C_23
REMARK    8  A    between atoms: C_25  and  S_26
REMARK                            x       y       z     vdW  Elec       q    Type
REMARK                         _______ _______ _______ _____ _____    ______ ____
ROOT
ATOM      4  C   UNL     1      -1.135  -0.455  24.364  0.00  0.00    +0.237 C 
ATOM      5  O   UNL     1      -0.318  -0.538  24.445  0.00  0.00    -0.274 OA
ATOM      6  N   UNL     1      -1.453   0.254  24.088  0.00  0.00    -0.270 N 
ATOM      7  C   UNL     1      -2.254   0.417  23.979  0.00  0.00    +0.116 C 
ATOM      8  C   UNL     1      -2.321   1.189  23.696  0.00  0.00    +0.119 C 
ATOM      9  C   UNL     1      -1.561   1.503  23.630  0.00  0.00    +0.053 C 
ATOM     10  C   UNL     1      -1.024   0.926  23.872  0.00  0.00    +0.154 C 
ENDROOT
BRANCH  10  11
ATOM     11  C   UNL     1      -0.203   1.005  23.894  0.00  0.00    +0.244 C 
ATOM     12  O   UNL     1       0.271   0.516  23.429  0.00  0.00    -0.273 OA
ATOM     13  N   UNL     1       0.142   1.574  24.381  0.00  0.00    -0.268 N 
ATOM     14  C   UNL     1       0.963   1.653  24.403  0.00  0.00    +0.115 C 
BRANCH  13  15
ATOM     15  C   UNL     1      -0.332   2.064  24.846  0.00  0.00    +0.183 C 
BRANCH  15  16
ATOM     16  C   UNL     1       0.015   2.604  25.363  0.00  0.00    +0.281 C 
ATOM     17  N   UNL     1      -0.027   3.413  25.204  0.00  0.00    -0.086 NA
ATOM     18  O   UNL     1       0.404   2.337  26.039  0.00  0.00    -0.270 OA
ENDBRANCH  15  16
ENDBRANCH  13  15
ENDBRANCH  10  11
BRANCH   8  19
ATOM     19  N   UNL     1      -3.024   1.579  23.511  0.00  0.00    -0.187 NA
ATOM     20  C   UNL     1      -3.484   1.910  24.112  0.00  0.00    +0.343 C 
ATOM     21  O   UNL     1      -3.239   1.851  24.898  0.00  0.00    -0.249 OA
ATOM     22  N   UNL     1      -4.187   2.299  23.926  0.00  0.00    -0.161 NA
BRANCH  22  23
ATOM     23  C   UNL     1      -4.645   2.630  24.528  0.00  0.00    +0.075 A 
ATOM     24  C   UNL     1      -5.283   2.208  24.839  0.00  0.00    +0.023 A 
ATOM     25  C   UNL     1      -5.741   2.539  25.440  0.00  0.00    +0.027 A 
ATOM     28  C   UNL     1      -5.563   3.290  25.730  0.00  0.00    +0.006 A 
ATOM     29  C   UNL     1      -4.925   3.712  25.418  0.00  0.00    +0.002 A 
ATOM     30  C   UNL     1      -4.467   3.381  24.818  0.00  0.00    +0.017 A 
BRANCH  25  26
ATOM     26  S   UNL     1      -6.378   2.117  25.751  0.00  0.00    -0.113 S 
ATOM     27  C   UNL     1      -6.347   1.831  26.524  0.00  0.00    +0.074 C 
ENDBRANCH  25  26
ENDBRANCH  22  23
ENDBRANCH   8  19
BRANCH   4   3
ATOM      3  C   UNL     1      -1.635  -1.082  24.560  0.00  0.00    +0.143 C 
BRANCH   3   2
ATOM      1  C   UNL     1      -1.785  -2.485  24.788  0.00  0.00    +0.070 C 
ATOM      2  S   UNL     1      -1.314  -1.808  24.788  0.00  0.00    -0.130 S 
ENDBRANCH   3   2
ENDBRANCH   4   3
TORSDOF 8
ENDMDL
MODEL 5
REMARK VINA RESULT:      -8.1      2.303      5.683
REMARK  Name = 
REMARK  8 active torsions:
REMARK  status: ('A' for Active; 'I' for Inactive)
REMARK    1  A    between atoms: S_2  and  C_3
REMARK    2  A    between atoms: C_3  and  C_4
REMARK    3  A    between atoms: C_8  and  N_19
REMARK    4  A    between atoms: C_10  and  C_11
REMARK    5  A    between atoms: N_13  and  C_15
REMARK    6  A    between atoms: C_15  and  C_16
REMARK    7  A    between atoms: N_22  and  C_23
REMARK    8  A    between atoms: C_25  and  S_26
REMARK                            x       y       z     vdW  Elec       q    Type
REMARK                         _______ _______ _______ _____ _____    ______ ____
ROOT
ATOM      4  C   UNL     1      -2.116  -1.412  24.478  0.00  0.00    +0.237 C 
ATOM      5  O   UNL     1      -1.527  -1.953  24.679  0.00  0.00    -0.274 OA
ATOM      6  N   UNL     1      -1.924  -0.619  24.356  0.00  0.00    -0.270 N 
ATOM      7  C   UNL     1      -2.451  -0.018  24.152  0.00  0.00    +0.116 C 
ATOM      8  C   UNL     1      -2.023   0.685  24.086  0.00  0.00    +0.119 C 
ATOM      9  C   UNL     1      -1.231   0.517  24.249  0.00  0.00    +0.053 C 
ATOM     10  C   UNL     1      -1.170  -0.288  24.415  0.00  0.00    +0.154 C 
ENDROOT
BRANCH  10  11
ATOM     11  C   UNL     1      -0.477  -0.692  24.607  0.00  0.00    +0.244 C 
ATOM     12  O   UNL     1      -0.447  -1.160  25.287  0.00  0.00    -0.273 OA
ATOM     13  N   UNL     1       0.186  -0.629  24.120  0.00  0.00    -0.268 N 
ATOM     14  C   UNL     1       0.879  -1.033  24.312  0.00  0.00    +0.115 C 
BRANCH  13  15
ATOM     15  C   UNL     1       0.156  -0.162  23.440  0.00  0.00    +0.183 C 
BRANCH  15  16
ATOM     16  C   UNL     1       0.819  -0.096  22.955  0.00  0.00    +0.281 C 
ATOM     17  N   UNL     1       1.399   0.467  23.122  0.00  0.00    -0.086 NA
ATOM     18  O   UNL     1       0.903  -0.594  22.302  0.00  0.00    -0.270 OA
ENDBRANCH  15  16
ENDBRANCH  13  15
ENDBRANCH  10  11
BRANCH   8  19
ATOM     19  N   UNL     1      -2.332   1.424  23.892  0.00  0.00    -0.187 NA
ATOM     20  C   UNL     1      -2.687   1.890  24.474  0.00  0.00    +0.343 C 
ATOM     21  O   UNL     1      -2.732   1.614  25.251  0.00  0.00    -0.249 OA
ATOM     22  N   UNL     1      -2.995   2.629  24.279  0.00  0.00    -0.161 NA
BRANCH  22  23
ATOM     23  C   UNL     1      -3.350   3.094  24.862  0.00  0.00    +0.075 A 
ATOM     24  C   UNL     1      -4.173   3.125  24.920  0.00  0.00    +0.023 A 
ATOM     25  C   UNL     1      -4.527   3.589  25.502  0.00  0.00    +0.027 A 
ATOM     28  C   UNL     1      -4.060   4.023  26.026  0.00  0.00    +0.006 A 
ATOM     29  C   UNL     1      -3.237   3.992  25.968  0.00  0.00    +0.002 A 
ATOM     30  C   UNL     1      -2.883   3.527  25.386  0.00  0.00    +0.017 A 
BRANCH  25  26
ATOM     26  S   UNL     1      -5.350   3.620  25.560  0.00  0.00    -0.113 S 
ATOM     27  C   UNL     1      -5.765   2.985  25.883  0.00  0.00    +0.074 C 
ENDBRANCH  25  26
ENDBRANCH  22  23
ENDBRANCH   8  19
BRANCH   4   3
ATOM      3  C   UNL     1      -2.898  -1.664  24.399  0.00  0.00    +0.143 C 
BRANCH   3   2
ATOM      1  C   UNL     1      -3.852  -2.727  24.354  0.00  0.00    +0.070 C 
ATOM      2  S   UNL     1      -3.088  -2.459  24.512  0.00  0.00    -0.130 S 
ENDBRANCH   3   2
ENDBRANCH   4   3
TORSDOF 8
ENDMDL
