MODEL 1
REMARK VINA RESULT:     -11.4      0.000      0.000
REMARK  Name = 
REMARK  8 active torsions:
REMARK  status: ('A' for Active; 'I' for Inactive)
REMARK    1  A    between atoms: C_2  and  C_4
REMARK    2  A    between atoms: C_6  and  C_7
REMARK    3  A    between atoms: C_7  and  C_8
REMARK    4  A    between atoms: N_10  and  C_12
REMARK    5  A    between atoms: C_12  and  C_13
REMARK    6  A    between atoms: C_22  and  C_23
REMARK    7  A    between atoms: C_23  and  N_24
REMARK    8  A    between atoms: C_25  and  C_27
REMARK                            x       y       z     vdW  Elec       q    Type
REMARK                         _______ _______ _______ _____ _____    ______ ____
ROOT
ATOM      4  C   UNL     1      -3.419   1.490  23.901  0.00  0.00    +0.006 C 
ATOM      5  C   UNL     1      -3.523   2.230  24.250  0.00  0.00    +0.005 C 
ATOM      6  C   UNL     1      -4.139   2.351  24.786  0.00  0.00    +0.027 C 
ATOM     19  C   UNL     1      -4.650   1.731  24.974  0.00  0.00    -0.048 C 
ATOM     20  C   UNL     1      -5.265   1.850  25.510  0.00  0.00    +0.026 C 
ATOM     21  C   UNL     1      -4.546   0.990  24.625  0.00  0.00    -0.033 C 
ATOM     22  C   UNL     1      -3.930   0.870  24.089  0.00  0.00    +0.043 C 
ENDROOT
BRANCH   4   2
ATOM      1  C   UNL     1      -2.930   1.493  22.559  0.00  0.00    +0.000 C 
ATOM      2  C   UNL     1      -2.804   1.370  23.365  0.00  0.00    +0.000 C 
ATOM      3  C   UNL     1      -2.063   1.128  23.635  0.00  0.00    +0.000 C 
ENDBRANCH   4   2
BRANCH   6   7
ATOM      7  C   UNL     1      -4.243   3.091  25.134  0.00  0.00    +0.089 C 
BRANCH   7   8
ATOM      8  C   UNL     1      -3.640   3.419  25.593  0.00  0.00    +0.226 C 
ATOM      9  O   UNL     1      -3.366   3.020  26.261  0.00  0.00    -0.275 OA
ATOM     10  N   UNL     1      -3.312   4.146  25.382  0.00  0.00    -0.274 N 
ATOM     11  C   UNL     1      -3.586   4.545  24.715  0.00  0.00    +0.115 C 
BRANCH  10  12
ATOM     12  C   UNL     1      -2.709   4.474  25.841  0.00  0.00    +0.120 C 
BRANCH  12  13
ATOM     13  C   UNL     1      -1.993   4.685  25.490  0.00  0.00    -0.002 A 
ATOM     14  C   UNL     1      -1.365   4.150  25.477  0.00  0.00    -0.003 A 
ATOM     15  C   UNL     1      -0.650   4.362  25.126  0.00  0.00    -0.000 A 
ATOM     16  C   UNL     1      -0.561   5.108  24.787  0.00  0.00    -0.000 A 
ATOM     17  C   UNL     1      -1.188   5.643  24.799  0.00  0.00    -0.000 A 
ATOM     18  C   UNL     1      -1.904   5.433  25.150  0.00  0.00    -0.003 A 
ENDBRANCH  12  13
ENDBRANCH  10  12
ENDBRANCH   7   8
ENDBRANCH   6   7
BRANCH  22  23
ATOM     23  C   UNL     1      -3.826   0.129  23.741  0.00  0.00    +0.120 C 
BRANCH  23  24
ATOM     24  N   UNL     1      -3.669  -0.530  24.213  0.00  0.00    -0.201 NA
ATOM     25  C   UNL     1      -3.845  -1.287  23.935  0.00  0.00    +0.265 C 
ATOM     26  O   UNL     1      -4.178  -1.385  23.186  0.00  0.00    -0.268 OA
BRANCH  25  27
ATOM     27  C   UNL     1      -3.689  -1.945  24.407  0.00  0.00    +0.058 A 
ATOM     28  C   UNL     1      -3.765  -2.704  24.093  0.00  0.00    +0.025 A 
ATOM     29  C   UNL     1      -3.608  -3.363  24.565  0.00  0.00    +0.099 A 
ATOM     30  N   UNL     1      -3.375  -3.263  25.350  0.00  0.00    -0.242 NA
ATOM     31  C   UNL     1      -3.299  -2.503  25.664  0.00  0.00    +0.099 A 
ATOM     32  C   UNL     1      -3.456  -1.845  25.192  0.00  0.00    +0.025 A 
ENDBRANCH  25  27
ENDBRANCH  23  24
ENDBRANCH  22  23
TORSDOF 8
ENDMDL
MODEL 2
REMARK VINA RESULT:     -11.1      2.732      4.409
REMARK  Name = 
REMARK  8 active torsions:
REMARK  status: ('A' for Active; 'I' for Inactive)
REMARK    1  A    between atoms: C_2  and  C_4
REMARK    2  A    between atoms: C_6  and  C_7
REMARK    3  A    between atoms: C_7  and  C_8
REMARK    4  A    between atoms: N_10  and  C_12
REMARK    5  A    between atoms: C_12  and  C_13
REMARK    6  A    between atoms: C_22  and  C_23
REMARK    7  A    between atoms: C_23  and  N_24
REMARK    8  A    between atoms: C_25  and  C_27
REMARK                            x       y       z     vdW  Elec       q    Type
REMARK                         _______ _______ _______ _____ _____    ______ ____
ROOT
ATOM      4  C   UNL     1      -1.535   1.008  24.693  0.00  0.00    +0.006 C 
ATOM      5  C   UNL     1      -1.988   1.669  24.889  0.00  0.00    +0.005 C 
ATOM      6  C   UNL     1      -1.698   2.427  24.738  0.00  0.00    +0.027 C 
ATOM     19  C   UNL     1      -0.956   2.523  24.392  0.00  0.00    -0.048 C 
ATOM     20  C   UNL     1      -0.666   3.281  24.240  0.00  0.00    +0.026 C 
ATOM     21  C   UNL     1      -0.502   1.862  24.196  0.00  0.00    -0.033 C 
ATOM     22  C   UNL     1      -0.792   1.104  24.347  0.00  0.00    +0.043 C 
ENDROOT
BRANCH   4   2
ATOM      1  C   UNL     1      -1.648  -0.123  25.559  0.00  0.00    +0.000 C 
ATOM      2  C   UNL     1      -1.825   0.251  24.845  0.00  0.00    +0.000 C 
ATOM      3  C   UNL     1      -2.291  -0.133  24.282  0.00  0.00    +0.000 C 
ENDBRANCH   4   2
BRANCH   6   7
ATOM      7  C   UNL     1      -2.152   3.088  24.933  0.00  0.00    +0.089 C 
BRANCH   7   8
ATOM      8  C   UNL     1      -2.914   3.169  24.627  0.00  0.00    +0.226 C 
ATOM      9  O   UNL     1      -3.051   3.051  23.822  0.00  0.00    -0.275 OA
ATOM     10  N   UNL     1      -3.539   3.369  25.126  0.00  0.00    -0.274 N 
ATOM     11  C   UNL     1      -3.403   3.488  25.931  0.00  0.00    +0.115 C 
BRANCH  10  12
ATOM     12  C   UNL     1      -4.302   3.451  24.820  0.00  0.00    +0.120 C 
BRANCH  12  13
ATOM     13  C   UNL     1      -4.915   2.984  25.113  0.00  0.00    -0.002 A 
ATOM     14  C   UNL     1      -5.246   3.151  25.850  0.00  0.00    -0.003 A 
ATOM     15  C   UNL     1      -5.860   2.683  26.142  0.00  0.00    -0.000 A 
ATOM     16  C   UNL     1      -6.142   2.049  25.698  0.00  0.00    -0.000 A 
ATOM     17  C   UNL     1      -5.811   1.881  24.962  0.00  0.00    -0.000 A 
ATOM     18  C   UNL     1      -5.198   2.348  24.668  0.00  0.00    -0.003 A 
ENDBRANCH  12  13
ENDBRANCH  10  12
ENDBRANCH   7   8
ENDBRANCH   6   7
BRANCH  22  23
ATOM     23  C   UNL     1      -0.338   0.444  24.152  0.00  0.00    +0.120 C 
BRANCH  23  24
ATOM     24  N   UNL     1       0.304   0.522  23.639  0.00  0.00    -0.201 NA
ATOM     25  C   UNL     1       0.774  -0.134  23.463  0.00  0.00    +0.265 C 
ATOM     26  O   UNL     1       0.602  -0.867  23.801  0.00  0.00    -0.268 OA
BRANCH  25  27
ATOM     27  C   UNL     1       1.415  -0.056  22.951  0.00  0.00    +0.058 A 
ATOM     28  C   UNL     1       1.348  -0.306  22.167  0.00  0.00    +0.025 A 
ATOM     29  C   UNL     1       1.990  -0.228  21.654  0.00  0.00    +0.099 A 
ATOM     30  N   UNL     1       2.697   0.100  21.924  0.00  0.00    -0.242 NA
ATOM     31  C   UNL     1       2.763   0.350  22.708  0.00  0.00    +0.099 A 
ATOM     32  C   UNL     1       2.122   0.272  23.221  0.00  0.00    +0.025 A 
ENDBRANCH  25  27
ENDBRANCH  23  24
ENDBRANCH  22  23
TORSDOF 8
ENDMDL
MODEL 3
REMARK VINA RESULT:     -10.6      1.030      5.851
REMARK  Name = 
REMARK  8 active torsions:
REMARK  status: ('A' for Active; 'I' for Inactive)
REMARK    1  A    between atoms: C_2  and  C_4
REMARK    2  A    between atoms: C_6  and  C_7
REMARK    3  A    between atoms: C_7  and  C_8
REMARK    4  A    between atoms: N_10  and  C_12
REMARK    5  A    between atoms: C_12  and  C_13
REMARK    6  A    between atoms: C_22  and  C_23
REMARK    7  A    between atoms: C_23  and  N_24
REMARK    8  A    between atoms: C_25  and  C_27
REMARK                            x       y       z     vdW  Elec       q    Type
REMARK                         _______ _______ _______ _____ _____    ______ ____
ROOT
ATOM      4  C   UNL     1      -4.606   2.339  25.151  0.00  0.00    +0.006 C 
ATOM      5  C   UNL     1      -4.780   1.574  24.897  0.00  0.00    +0.005 C 
ATOM      6  C   UNL     1      -4.234   1.158  24.438  0.00  0.00    +0.027 C 
ATOM     19  C   UNL     1      -3.515   1.508  24.234  0.00  0.00    -0.048 C 
ATOM     20  C   UNL     1      -2.969   1.093  23.776  0.00  0.00    +0.026 C 
ATOM     21  C   UNL     1      -3.341   2.274  24.489  0.00  0.00    -0.033 C 
ATOM     22  C   UNL     1      -3.887   2.689  24.947  0.00  0.00    +0.043 C 
ENDROOT
BRANCH   4   2
ATOM      1  C   UNL     1      -5.658   3.301  25.254  0.00  0.00    +0.000 C 
ATOM      2  C   UNL     1      -5.152   2.754  25.610  0.00  0.00    +0.000 C 
ATOM      3  C   UNL     1      -5.192   2.623  26.423  0.00  0.00    +0.000 C 
ENDBRANCH   4   2
BRANCH   6   7
ATOM      7  C   UNL     1      -4.408   0.393  24.184  0.00  0.00    +0.089 C 
BRANCH   7   8
ATOM      8  C   UNL     1      -4.287  -0.247  24.691  0.00  0.00    +0.226 C 
ATOM      9  O   UNL     1      -4.237  -0.125  25.506  0.00  0.00    -0.275 OA
ATOM     10  N   UNL     1      -4.215  -1.009  24.383  0.00  0.00    -0.274 N 
ATOM     11  C   UNL     1      -4.264  -1.131  23.569  0.00  0.00    +0.115 C 
BRANCH  10  12
ATOM     12  C   UNL     1      -4.094  -1.649  24.890  0.00  0.00    +0.120 C 
BRANCH  12  13
ATOM     13  C   UNL     1      -3.499  -2.197  24.727  0.00  0.00    -0.002 A 
ATOM     14  C   UNL     1      -2.730  -2.063  24.992  0.00  0.00    -0.003 A 
ATOM     15  C   UNL     1      -2.136  -2.612  24.828  0.00  0.00    -0.000 A 
ATOM     16  C   UNL     1      -2.311  -3.294  24.399  0.00  0.00    -0.000 A 
ATOM     17  C   UNL     1      -3.080  -3.428  24.134  0.00  0.00    -0.000 A 
ATOM     18  C   UNL     1      -3.675  -2.880  24.298  0.00  0.00    -0.003 A 
ENDBRANCH  12  13
ENDBRANCH  10  12
ENDBRANCH   7   8
ENDBRANCH   6   7
BRANCH  22  23
ATOM     23  C   UNL     1      -3.713   3.454  25.201  0.00  0.00    +0.120 C 
BRANCH  23  24
ATOM     24  N   UNL     1      -3.007   3.815  24.970  0.00  0.00    -0.201 NA
ATOM     25  C   UNL     1      -2.612   4.320  25.490  0.00  0.00    +0.265 C 
ATOM     26  O   UNL     1      -2.923   4.464  26.240  0.00  0.00    -0.268 OA
BRANCH  25  27
ATOM     27  C   UNL     1      -1.907   4.680  25.258  0.00  0.00    +0.058 A 
ATOM     28  C   UNL     1      -1.899   5.483  25.068  0.00  0.00    +0.025 A 
ATOM     29  C   UNL     1      -1.193   5.844  24.836  0.00  0.00    +0.099 A 
ATOM     30  N   UNL     1      -0.498   5.402  24.794  0.00  0.00    -0.242 NA
ATOM     31  C   UNL     1      -0.507   4.598  24.984  0.00  0.00    +0.099 A 
ATOM     32  C   UNL     1      -1.212   4.238  25.216  0.00  0.00    +0.025 A 
ENDBRANCH  25  27
ENDBRANCH  23  24
ENDBRANCH  22  23
TORSDOF 8
ENDMDL
MODEL 4
REMARK VINA RESULT:     -10.3      1.202      2.123
REMARK  Name = 
REMARK  8 active torsions:
REMARK  status: ('A' for Active; 'I' for Inactive)
REMARK    1  A    between atoms: C_2  and  C_4
REMARK    2  A    between atoms: C_6  and  C_7
REMARK    3  A    between atoms: C_7  and  C_8
REMARK    4  A    between atoms: N_10  and  C_12
REMARK    5  A    between atoms: C_12  and  C_13
REMARK    6  A    between atoms: C_22  and  C_23
REMARK    7  A    between atoms: C_23  and  N_24
REMARK    8  A    between atoms: C_25  and  C_27
REMARK                            x       y       z     vdW  Elec       q    Type
REMARK                         _______ _______ _______ _____ _____    ______ ____
ROOT
ATOM      4  C   UNL     1      -2.708   1.304  24.269  0.00  0.00    +0.006 C 
ATOM      5  C   UNL     1      -2.030   1.762  24.371  0.00  0.00    +0.005 C 
ATOM      6  C   UNL     1      -1.313   1.400  24.562  0.00  0.00    +0.027 C 
ATOM     19  C   UNL     1      -1.275   0.581  24.650  0.00  0.00    -0.048 C 
ATOM     20  C   UNL     1      -0.559   0.218  24.840  0.00  0.00    +0.026 C 
ATOM     21  C   UNL     1      -1.954   0.123  24.547  0.00  0.00    -0.033 C 
ATOM     22  C   UNL     1      -2.670   0.485  24.357  0.00  0.00    +0.043 C 
ENDROOT
BRANCH   4   2
ATOM      1  C   UNL     1      -3.598   1.849  23.293  0.00  0.00    +0.000 C 
ATOM      2  C   UNL     1      -3.424   1.667  24.079  0.00  0.00    +0.000 C 
ATOM      3  C   UNL     1      -3.967   1.847  24.674  0.00  0.00    +0.000 C 
ENDBRANCH   4   2
BRANCH   6   7
ATOM      7  C   UNL     1      -0.634   1.858  24.664  0.00  0.00    +0.089 C 
BRANCH   7   8
ATOM      8  C   UNL     1      -0.644   2.498  25.185  0.00  0.00    +0.226 C 
ATOM      9  O   UNL     1      -0.845   2.383  25.977  0.00  0.00    -0.275 OA
ATOM     10  N   UNL     1      -0.453   3.253  24.913  0.00  0.00    -0.274 N 
ATOM     11  C   UNL     1      -0.252   3.369  24.121  0.00  0.00    +0.115 C 
BRANCH  10  12
ATOM     12  C   UNL     1      -0.462   3.894  25.434  0.00  0.00    +0.120 C 
BRANCH  12  13
ATOM     13  C   UNL     1      -0.904   4.566  25.252  0.00  0.00    -0.002 A 
ATOM     14  C   UNL     1      -0.585   5.150  24.765  0.00  0.00    -0.003 A 
ATOM     15  C   UNL     1      -1.028   5.823  24.584  0.00  0.00    -0.000 A 
ATOM     16  C   UNL     1      -1.789   5.910  24.889  0.00  0.00    -0.000 A 
ATOM     17  C   UNL     1      -2.108   5.326  25.376  0.00  0.00    -0.000 A 
ATOM     18  C   UNL     1      -1.666   4.654  25.558  0.00  0.00    -0.003 A 
ENDBRANCH  12  13
ENDBRANCH  10  12
ENDBRANCH   7   8
ENDBRANCH   6   7
BRANCH  22  23
ATOM     23  C   UNL     1      -3.349   0.027  24.255  0.00  0.00    +0.120 C 
BRANCH  23  24
ATOM     24  N   UNL     1      -3.292  -0.797  24.241  0.00  0.00    -0.201 NA
ATOM     25  C   UNL     1      -3.976  -1.258  24.269  0.00  0.00    +0.265 C 
ATOM     26  O   UNL     1      -4.716  -0.896  24.312  0.00  0.00    -0.268 OA
BRANCH  25  27
ATOM     27  C   UNL     1      -3.918  -2.081  24.255  0.00  0.00    +0.058 A 
ATOM     28  C   UNL     1      -4.265  -2.507  23.640  0.00  0.00    +0.025 A 
ATOM     29  C   UNL     1      -4.208  -3.330  23.625  0.00  0.00    +0.099 A 
ATOM     30  N   UNL     1      -3.804  -3.727  24.225  0.00  0.00    -0.242 NA
ATOM     31  C   UNL     1      -3.456  -3.300  24.841  0.00  0.00    +0.099 A 
ATOM     32  C   UNL     1      -3.514  -2.477  24.855  0.00  0.00    +0.025 A 
ENDBRANCH  25  27
ENDBRANCH  23  24
ENDBRANCH  22  23
TORSDOF 8
ENDMDL
MODEL 5
REMARK VINA RESULT:     -10.1      1.298      5.892
REMARK  Name = 
REMARK  8 active torsions:
REMARK  status: ('A' for Active; 'I' for Inactive)
REMARK    1  A    between atoms: C_2  and  C_4
REMARK    2  A    between atoms: C_6  and  C_7
REMARK    3  A    between atoms: C_7  and  C_8
REMARK    4  A    between atoms: N_10  and  C_12
REMARK    5  A    between atoms: C_12  and  C_13
REMARK    6  A    between atoms: C_22  and  C_23
REMARK    7  A    between atoms: C_23  and  N_24
REMARK    8  A    between atoms: C_25  and  C_27
REMARK                            x       y       z     vdW  Elec       q    Type
REMARK                         _______ _______ _______ _____ _____    ______ ____
ROOT
ATOM      4  C   UNL     1      -2.112   1.092  24.755  0.00  0.00    +0.006 C 
ATOM      5  C   UNL     1      -2.748   0.608  24.550  0.00  0.00    +0.005 C 
ATOM      6  C   UNL     1      -3.503   0.931  24.471  0.00  0.00    +0.027 C 
ATOM     19  C   UNL     1      -3.622   1.738  24.596  0.00  0.00    -0.048 C 
ATOM     20  C   UNL     1      -4.376   2.062  24.517  0.00  0.00    +0.026 C 
ATOM     21  C   UNL     1      -2.985   2.222  24.801  0.00  0.00    -0.033 C 
ATOM     22  C   UNL     1      -2.230   1.898  24.880  0.00  0.00    +0.043 C 
ENDROOT
BRANCH   4   2
ATOM      1  C   UNL     1      -0.867   0.699  24.173  0.00  0.00    +0.000 C 
ATOM      2  C   UNL     1      -1.357   0.768  24.834  0.00  0.00    +0.000 C 
ATOM      3  C   UNL     1      -1.093   0.513  25.573  0.00  0.00    +0.000 C 
ENDBRANCH   4   2
BRANCH   6   7
ATOM      7  C   UNL     1      -4.139   0.447  24.266  0.00  0.00    +0.089 C 
BRANCH   7   8
ATOM      8  C   UNL     1      -4.268  -0.258  24.675  0.00  0.00    +0.226 C 
ATOM      9  O   UNL     1      -4.359  -0.249  25.495  0.00  0.00    -0.275 OA
ATOM     10  N   UNL     1      -4.306  -0.972  24.263  0.00  0.00    -0.274 N 
ATOM     11  C   UNL     1      -4.215  -0.981  23.443  0.00  0.00    +0.115 C 
BRANCH  10  12
ATOM     12  C   UNL     1      -4.435  -1.677  24.672  0.00  0.00    +0.120 C 
BRANCH  12  13
ATOM     13  C   UNL     1      -3.918  -2.312  24.572  0.00  0.00    -0.002 A 
ATOM     14  C   UNL     1      -3.961  -2.777  23.892  0.00  0.00    -0.003 A 
ATOM     15  C   UNL     1      -3.442  -3.412  23.793  0.00  0.00    -0.000 A 
ATOM     16  C   UNL     1      -2.882  -3.581  24.373  0.00  0.00    -0.000 A 
ATOM     17  C   UNL     1      -2.838  -3.116  25.053  0.00  0.00    -0.000 A 
ATOM     18  C   UNL     1      -3.356  -2.481  25.153  0.00  0.00    -0.003 A 
ENDBRANCH  12  13
ENDBRANCH  10  12
ENDBRANCH   7   8
ENDBRANCH   6   7
BRANCH  22  23
ATOM     23  C   UNL     1      -1.594   2.382  25.085  0.00  0.00    +0.120 C 
BRANCH  23  24
ATOM     24  N   UNL     1      -1.621   3.190  24.918  0.00  0.00    -0.201 NA
ATOM     25  C   UNL     1      -1.095   3.706  25.290  0.00  0.00    +0.265 C 
ATOM     26  O   UNL     1      -0.542   3.414  25.829  0.00  0.00    -0.268 OA
BRANCH  25  27
ATOM     27  C   UNL     1      -1.122   4.514  25.122  0.00  0.00    +0.058 A 
ATOM     28  C   UNL     1      -0.507   4.867  24.701  0.00  0.00    +0.025 A 
ATOM     29  C   UNL     1      -0.533   5.675  24.533  0.00  0.00    +0.099 A 
ATOM     30  N   UNL     1      -1.174   6.128  24.787  0.00  0.00    -0.242 NA
ATOM     31  C   UNL     1      -1.789   5.774  25.209  0.00  0.00    +0.099 A 
ATOM     32  C   UNL     1      -1.762   4.967  25.376  0.00  0.00    +0.025 A 
ENDBRANCH  25  27
ENDBRANCH  23  24
ENDBRANCH  22  23
TORSDOF 8
ENDMDL
MODEL 6
REMARK VINA RESULT:      -9.8      3.358      5.064
REMARK  Name = 
REMARK  8 active torsions:
REMARK  status: ('A' for Active; 'I' for Inactive)
REMARK    1  A    between atoms: C_2  and  C_4
REMARK    2  A    between atoms: C_6  and  C_7
REMARK    3  A    between atoms: C_7  and  C_8
REMARK    4  A    between atoms: N_10  and  C_12
REMARK    5  A    between atoms: C_12  and  C_13
REMARK    6  A    between atoms: C_22  and  C_23
REMARK    7  A    between atoms: C_23  and  N_24
REMARK    8  A    between atoms: C_25  and  C_27
REMARK                            x       y       z     vdW  Elec       q    Type
REMARK                         _______ _______ _______ _____ _____    ______ ____
ROOT
ATOM      4  C   UNL     1      -1.346  -0.109  24.618  0.00  0.00    +0.006 C 
ATOM      5  C   UNL     1      -0.581   0.111  24.400  0.00  0.00    +0.005 C 
ATOM      6  C   UNL     1      -0.457   0.815  23.986  0.00  0.00    +0.027 C 
ATOM     19  C   UNL     1      -1.097   1.297  23.790  0.00  0.00    -0.048 C 
ATOM     20  C   UNL     1      -0.974   1.999  23.376  0.00  0.00    +0.026 C 
ATOM     21  C   UNL     1      -1.862   1.076  24.008  0.00  0.00    -0.033 C 
ATOM     22  C   UNL     1      -1.986   0.373  24.422  0.00  0.00    +0.043 C 
ENDROOT
BRANCH   4   2
ATOM      1  C   UNL     1      -1.406  -0.822  25.855  0.00  0.00    +0.000 C 
ATOM      2  C   UNL     1      -1.469  -0.812  25.031  0.00  0.00    +0.000 C 
ATOM      3  C   UNL     1      -1.656  -1.504  24.623  0.00  0.00    +0.000 C 
ENDBRANCH   4   2
BRANCH   6   7
ATOM      7  C   UNL     1       0.308   1.035  23.768  0.00  0.00    +0.089 C 
BRANCH   7   8
ATOM      8  C   UNL     1       0.769   0.525  23.310  0.00  0.00    +0.226 C 
ATOM      9  O   UNL     1       0.414  -0.097  22.901  0.00  0.00    -0.275 OA
ATOM     10  N   UNL     1       1.584   0.638  23.263  0.00  0.00    -0.274 N 
ATOM     11  C   UNL     1       1.939   1.260  23.673  0.00  0.00    +0.115 C 
BRANCH  10  12
ATOM     12  C   UNL     1       2.045   0.128  22.806  0.00  0.00    +0.120 C 
BRANCH  12  13
ATOM     13  C   UNL     1       2.868   0.165  22.851  0.00  0.00    -0.002 A 
ATOM     14  C   UNL     1       3.274   0.789  22.496  0.00  0.00    -0.003 A 
ATOM     15  C   UNL     1       4.097   0.824  22.542  0.00  0.00    -0.000 A 
ATOM     16  C   UNL     1       4.514   0.237  22.943  0.00  0.00    -0.000 A 
ATOM     17  C   UNL     1       4.108  -0.387  23.299  0.00  0.00    -0.000 A 
ATOM     18  C   UNL     1       3.285  -0.424  23.253  0.00  0.00    -0.003 A 
ENDBRANCH  12  13
ENDBRANCH  10  12
ENDBRANCH   7   8
ENDBRANCH   6   7
BRANCH  22  23
ATOM     23  C   UNL     1      -2.750   0.153  24.640  0.00  0.00    +0.120 C 
BRANCH  23  24
ATOM     24  N   UNL     1      -3.316   0.733  24.800  0.00  0.00    -0.201 NA
ATOM     25  C   UNL     1      -4.120   0.547  24.761  0.00  0.00    +0.265 C 
ATOM     26  O   UNL     1      -4.357  -0.218  24.562  0.00  0.00    -0.268 OA
BRANCH  25  27
ATOM     27  C   UNL     1      -4.685   1.126  24.921  0.00  0.00    +0.058 A 
ATOM     28  C   UNL     1      -4.704   1.817  24.471  0.00  0.00    +0.025 A 
ATOM     29  C   UNL     1      -5.270   2.397  24.630  0.00  0.00    +0.099 A 
ATOM     30  N   UNL     1      -5.814   2.286  25.240  0.00  0.00    -0.242 NA
ATOM     31  C   UNL     1      -5.795   1.594  25.690  0.00  0.00    +0.099 A 
ATOM     32  C   UNL     1      -5.230   1.014  25.530  0.00  0.00    +0.025 A 
ENDBRANCH  25  27
ENDBRANCH  23  24
ENDBRANCH  22  23
TORSDOF 8
ENDMDL
MODEL 7
REMARK VINA RESULT:      -9.5      3.100      5.205
REMARK  Name = 
REMARK  8 active torsions:
REMARK  status: ('A' for Active; 'I' for Inactive)
REMARK    1  A    between atoms: C_2  and  C_4
REMARK    2  A    between atoms: C_6  and  C_7
REMARK    3  A    between atoms: C_7  and  C_8
REMARK    4  A    between atoms: N_10  and  C_12
REMARK    5  A    between atoms: C_12  and  C_13
REMARK    6  A    between atoms: C_22  and  C_23
REMARK    7  A    between atoms: C_23  and  N_24
REMARK    8  A    between atoms: C_25  and  C_27
REMARK                            x       y       z     vdW  Elec       q    Type
REMARK                         _______ _______ _______ _____ _____    ______ ____
ROOT
ATOM      4  C   UNL     1      -0.951   2.113  24.657  0.00  0.00    +0.006 C 
ATOM      5  C   UNL     1      -0.410   1.532  24.433  0.00  0.00    +0.005 C 
ATOM      6  C   UNL     1      -0.676   0.780  24.222  0.00  0.00    +0.027 C 
ATOM     19  C   UNL     1      -1.483   0.608  24.237  0.00  0.00    -0.048 C 
ATOM     20  C   UNL     1      -1.750  -0.143  24.028  0.00  0.00    +0.026 C 
ATOM     21  C   UNL     1      -2.025   1.190  24.463  0.00  0.00    -0.033 C 
ATOM     22  C   UNL     1      -1.758   1.941  24.672  0.00  0.00    +0.043 C 
ENDROOT
BRANCH   4   2
ATOM      1  C   UNL     1      -0.483   3.026  25.652  0.00  0.00    +0.000 C 
ATOM      2  C   UNL     1      -0.685   2.865  24.867  0.00  0.00    +0.000 C 
ATOM      3  C   UNL     1      -0.619   3.454  24.294  0.00  0.00    +0.000 C 
ENDBRANCH   4   2
BRANCH   6   7
ATOM      7  C   UNL     1      -0.135   0.199  23.998  0.00  0.00    +0.089 C 
BRANCH   7   8
ATOM      8  C   UNL     1       0.337   0.313  23.330  0.00  0.00    +0.226 C 
ATOM      9  O   UNL     1       0.054   0.757  22.695  0.00  0.00    -0.275 OA
ATOM     10  N   UNL     1       1.092  -0.019  23.298  0.00  0.00    -0.274 N 
ATOM     11  C   UNL     1       1.374  -0.464  23.933  0.00  0.00    +0.115 C 
BRANCH  10  12
ATOM     12  C   UNL     1       1.564   0.094  22.630  0.00  0.00    +0.120 C 
BRANCH  12  13
ATOM     13  C   UNL     1       2.375   0.216  22.716  0.00  0.00    -0.002 A 
ATOM     14  C   UNL     1       2.891  -0.428  22.733  0.00  0.00    -0.003 A 
ATOM     15  C   UNL     1       3.702  -0.304  22.818  0.00  0.00    -0.000 A 
ATOM     16  C   UNL     1       3.998   0.463  22.887  0.00  0.00    -0.000 A 
ATOM     17  C   UNL     1       3.482   1.107  22.871  0.00  0.00    -0.000 A 
ATOM     18  C   UNL     1       2.671   0.984  22.785  0.00  0.00    -0.003 A 
ENDBRANCH  12  13
ENDBRANCH  10  12
ENDBRANCH   7   8
ENDBRANCH   6   7
BRANCH  22  23
ATOM     23  C   UNL     1      -2.299   2.522  24.897  0.00  0.00    +0.120 C 
BRANCH  23  24
ATOM     24  N   UNL     1      -3.090   2.320  25.027  0.00  0.00    -0.201 NA
ATOM     25  C   UNL     1      -3.669   2.908  25.035  0.00  0.00    +0.265 C 
ATOM     26  O   UNL     1      -3.459   3.697  24.912  0.00  0.00    -0.268 OA
BRANCH  25  27
ATOM     27  C   UNL     1      -4.459   2.706  25.165  0.00  0.00    +0.058 A 
ATOM     28  C   UNL     1      -4.845   2.974  25.842  0.00  0.00    +0.025 A 
ATOM     29  C   UNL     1      -5.635   2.772  25.973  0.00  0.00    +0.099 A 
ATOM     30  N   UNL     1      -6.037   2.304  25.426  0.00  0.00    -0.242 NA
ATOM     31  C   UNL     1      -5.650   2.036  24.748  0.00  0.00    +0.099 A 
ATOM     32  C   UNL     1      -4.861   2.238  24.618  0.00  0.00    +0.025 A 
ENDBRANCH  25  27
ENDBRANCH  23  24
ENDBRANCH  22  23
TORSDOF 8
ENDMDL
MODEL 8
REMARK VINA RESULT:      -9.5      2.893      4.904
REMARK  Name = 
REMARK  8 active torsions:
REMARK  status: ('A' for Active; 'I' for Inactive)
REMARK    1  A    between atoms: C_2  and  C_4
REMARK    2  A    between atoms: C_6  and  C_7
REMARK    3  A    between atoms: C_7  and  C_8
REMARK    4  A    between atoms: N_10  and  C_12
REMARK    5  A    between atoms: C_12  and  C_13
REMARK    6  A    between atoms: C_22  and  C_23
REMARK    7  A    between atoms: C_23  and  N_24
REMARK    8  A    between atoms: C_25  and  C_27
REMARK                            x       y       z     vdW  Elec       q    Type
REMARK                         _______ _______ _______ _____ _____    ______ ____
ROOT
ATOM      4  C   UNL     1      -1.228   1.405  24.658  0.00  0.00    +0.006 C 
ATOM      5  C   UNL     1      -1.989   1.117  24.793  0.00  0.00    +0.005 C 
ATOM      6  C   UNL     1      -2.158   0.320  24.655  0.00  0.00    +0.027 C 
ATOM     19  C   UNL     1      -1.566  -0.186  24.382  0.00  0.00    -0.048 C 
ATOM     20  C   UNL     1      -1.735  -0.981  24.244  0.00  0.00    +0.026 C 
ATOM     21  C   UNL     1      -0.805   0.104  24.247  0.00  0.00    -0.033 C 
ATOM     22  C   UNL     1      -0.637   0.899  24.385  0.00  0.00    +0.043 C 
ENDROOT
BRANCH   4   2
ATOM      1  C   UNL     1      -0.809   2.445  25.544  0.00  0.00    +0.000 C 
ATOM      2  C   UNL     1      -1.060   2.201  24.796  0.00  0.00    +0.000 C 
ATOM      3  C   UNL     1      -1.142   2.752  24.188  0.00  0.00    +0.000 C 
ENDBRANCH   4   2
BRANCH   6   7
ATOM      7  C   UNL     1      -2.919   0.031  24.790  0.00  0.00    +0.089 C 
BRANCH   7   8
ATOM      8  C   UNL     1      -3.570   0.416  24.459  0.00  0.00    +0.226 C 
ATOM      9  O   UNL     1      -3.558   0.639  23.665  0.00  0.00    -0.275 OA
ATOM     10  N   UNL     1      -4.233   0.577  24.924  0.00  0.00    -0.274 N 
ATOM     11  C   UNL     1      -4.245   0.354  25.718  0.00  0.00    +0.115 C 
BRANCH  10  12
ATOM     12  C   UNL     1      -4.884   0.961  24.593  0.00  0.00    +0.120 C 
BRANCH  12  13
ATOM     13  C   UNL     1      -5.214   1.615  24.974  0.00  0.00    -0.002 A 
ATOM     14  C   UNL     1      -4.974   2.377  24.768  0.00  0.00    -0.003 A 
ATOM     15  C   UNL     1      -5.304   3.030  25.150  0.00  0.00    -0.000 A 
ATOM     16  C   UNL     1      -5.873   2.921  25.736  0.00  0.00    -0.000 A 
ATOM     17  C   UNL     1      -6.113   2.159  25.942  0.00  0.00    -0.000 A 
ATOM     18  C   UNL     1      -5.784   1.506  25.561  0.00  0.00    -0.003 A 
ENDBRANCH  12  13
ENDBRANCH  10  12
ENDBRANCH   7   8
ENDBRANCH   6   7
BRANCH  22  23
ATOM     23  C   UNL     1       0.124   1.188  24.250  0.00  0.00    +0.120 C 
BRANCH  23  24
ATOM     24  N   UNL     1       0.632   0.787  23.738  0.00  0.00    -0.201 NA
ATOM     25  C   UNL     1       1.390   1.081  23.594  0.00  0.00    +0.265 C 
ATOM     26  O   UNL     1       1.639   1.776  23.962  0.00  0.00    -0.268 OA
BRANCH  25  27
ATOM     27  C   UNL     1       1.897   0.680  23.082  0.00  0.00    +0.058 A 
ATOM     28  C   UNL     1       2.708   0.829  23.106  0.00  0.00    +0.025 A 
ATOM     29  C   UNL     1       3.217   0.428  22.594  0.00  0.00    +0.099 A 
ATOM     30  N   UNL     1       2.913  -0.121  22.058  0.00  0.00    -0.242 NA
ATOM     31  C   UNL     1       2.101  -0.270  22.034  0.00  0.00    +0.099 A 
ATOM     32  C   UNL     1       1.594   0.132  22.546  0.00  0.00    +0.025 A 
ENDBRANCH  25  27
ENDBRANCH  23  24
ENDBRANCH  22  23
TORSDOF 8
ENDMDL
