REMARK  Name = 
REMARK  5 active torsions:
REMARK  status: ('A' for Active; 'I' for Inactive)
REMARK    1  A    between atoms: C_7  and  C_8
REMARK    2  A    between atoms: C_8  and  N_9
REMARK    3  A    between atoms: C_13  and  C_14
REMARK    4  A    between atoms: C_16  and  C_19
REMARK    5  A    between atoms: C_22  and  C_25
REMARK                            x       y       z     vdW  Elec       q    Type
REMARK                         _______ _______ _______ _____ _____    ______ ____
ROOT
ATOM     14  C   UNL     1      -2.047  -5.745   0.000  0.00  0.00    +0.251 A 
ATOM     15  N   UNL     1      -2.715  -6.230   0.000  0.00  0.00    -0.190 NA
ATOM     16  C   UNL     1      -3.382  -5.745   0.000  0.00  0.00    +0.205 A 
ATOM     17  N   UNL     1      -3.127  -4.961   0.000  0.00  0.00    -0.056 NA
ATOM     18  O   UNL     1      -2.303  -4.961   0.000  0.00  0.00    -0.336 OA
ENDROOT
BRANCH  16  19
ATOM     19  C   UNL     1      -4.167  -6.000   0.000  0.00  0.00    +0.058 A 
ATOM     20  C   UNL     1      -4.338  -6.807   0.000  0.00  0.00    +0.006 A 
ATOM     21  C   UNL     1      -5.123  -7.062   0.000  0.00  0.00    +0.019 A 
ATOM     22  C   UNL     1      -5.736  -6.510   0.000  0.00  0.00    +0.081 A 
ATOM     23  N   UNL     1      -5.565  -5.703   0.000  0.00  0.00    -0.244 NA
ATOM     24  C   UNL     1      -4.780  -5.448   0.000  0.00  0.00    +0.102 A 
BRANCH  22  25
ATOM     25  C   UNL     1      -6.521  -6.765   0.000  0.00  0.00    +0.021 A 
ATOM     26  C   UNL     1      -6.692  -7.572   0.000  0.00  0.00    +0.022 A 
ATOM     27  C   UNL     1      -7.477  -7.827   0.000  0.00  0.00    +0.099 A 
ATOM     28  N   UNL     1      -8.090  -7.275   0.000  0.00  0.00    -0.242 NA
ATOM     29  C   UNL     1      -7.919  -6.468   0.000  0.00  0.00    +0.099 A 
ATOM     30  C   UNL     1      -7.134  -6.213   0.000  0.00  0.00    +0.022 A 
ENDBRANCH  22  25
ENDBRANCH  16  19
BRANCH  14  13
ATOM      9  N   UNL     1      -0.596  -5.516   0.000  0.00  0.00    -0.263 NA
ATOM     10  C   UNL     1       0.072  -6.000   0.000  0.00  0.00    +0.073 C 
ATOM     11  C   UNL     1      -0.183  -6.785   0.000  0.00  0.00    +0.019 C 
ATOM     12  C   UNL     1      -1.008  -6.785   0.000  0.00  0.00    +0.027 C 
ATOM     13  C   UNL     1      -1.263  -6.000   0.000  0.00  0.00    +0.138 C 
BRANCH   9   8
ATOM      8  C   UNL     1      -0.596  -4.691   0.000  0.00  0.00    +0.099 C 
BRANCH   8   7
ATOM      1  C   UNL     1      -0.596  -3.041   0.000  0.00  0.00    +0.031 C 
ATOM      2  C   UNL     1       0.119  -3.453   0.000  0.00  0.00    -0.024 A 
ATOM      3  C   UNL     1       0.834  -3.041   0.000  0.00  0.00    -0.005 A 
ATOM      4  C   UNL     1       1.548  -3.453   0.000  0.00  0.00    -0.000 A 
ATOM      5  C   UNL     1       1.548  -4.278   0.000  0.00  0.00    -0.000 A 
ATOM      6  C   UNL     1       0.834  -4.691   0.000  0.00  0.00    -0.003 A 
ATOM      7  C   UNL     1       0.119  -4.278   0.000  0.00  0.00    -0.010 A 
ENDBRANCH   8   7
ENDBRANCH   9   8
ENDBRANCH  14  13
TORSDOF 5
