MODEL 1
REMARK VINA RESULT:     -11.7      0.000      0.000
REMARK  Name = 
REMARK  5 active torsions:
REMARK  status: ('A' for Active; 'I' for Inactive)
REMARK    1  A    between atoms: O_2  and  C_3
REMARK    2  A    between atoms: C_3  and  C_4
REMARK    3  A    between atoms: C_10  and  C_13
REMARK    4  A    between atoms: C_16  and  C_18
REMARK    5  A    between atoms: N_22  and  C_23
REMARK                            x       y       z     vdW  Elec       q    Type
REMARK                         _______ _______ _______ _____ _____    ______ ____
ROOT
ATOM     13  C   UNL     1      -1.040   1.763  25.398  0.00  0.00    +0.205 A 
ATOM     14  N   UNL     1      -0.974   1.996  26.186  0.00  0.00    -0.056 NA
ATOM     15  O   UNL     1      -1.024   2.819  26.214  0.00  0.00    -0.336 OA
ATOM     16  C   UNL     1      -1.121   3.094  25.441  0.00  0.00    +0.251 A 
ATOM     17  N   UNL     1      -1.131   2.441  24.938  0.00  0.00    -0.190 NA
ENDROOT
BRANCH  13  10
ATOM      4  C   UNL     1      -1.575  -1.858  24.449  0.00  0.00    +0.277 C 
ATOM      5  O   UNL     1      -1.554  -2.634  24.169  0.00  0.00    -0.270 OA
ATOM      6  N   UNL     1      -0.954  -1.341  24.280  0.00  0.00    -0.158 NA
ATOM      7  C   UNL     1      -0.976  -0.565  24.560  0.00  0.00    +0.155 A 
ATOM      8  N   UNL     1      -1.618  -0.306  25.007  0.00  0.00    -0.227 NA
ATOM      9  C   UNL     1      -1.639   0.470  25.287  0.00  0.00    +0.103 A 
ATOM     10  C   UNL     1      -1.018   0.987  25.118  0.00  0.00    +0.058 A 
ATOM     11  C   UNL     1      -0.376   0.727  24.670  0.00  0.00    +0.008 A 
ATOM     12  C   UNL     1      -0.354  -0.049  24.391  0.00  0.00    +0.036 A 
BRANCH   4   3
ATOM      3  C   UNL     1      -2.218  -1.598  24.897  0.00  0.00    +0.229 C 
BRANCH   3   2
ATOM      1  C   UNL     1      -3.531  -1.822  25.415  0.00  0.00    +0.175 C 
ATOM      2  O   UNL     1      -2.850  -2.107  25.043  0.00  0.00    -0.342 OA
ENDBRANCH   3   2
ENDBRANCH   4   3
ENDBRANCH  13  10
BRANCH  16  18
ATOM     18  C   UNL     1      -1.195   3.884  25.214  0.00  0.00    +0.138 C 
ATOM     19  C   UNL     1      -0.576   4.396  25.031  0.00  0.00    +0.027 C 
ATOM     20  C   UNL     1      -0.901   5.129  24.835  0.00  0.00    +0.019 C 
ATOM     21  C   UNL     1      -1.721   5.068  24.897  0.00  0.00    +0.072 C 
ATOM     22  N   UNL     1      -1.904   4.300  25.132  0.00  0.00    -0.268 NA
BRANCH  22  23
ATOM     23  C   UNL     1      -2.660   3.998  25.261  0.00  0.00    +0.061 C 
ATOM     24  C   UNL     1      -3.082   3.662  24.636  0.00  0.00    +0.038 C 
ATOM     25  C   UNL     1      -3.839   3.359  24.765  0.00  0.00    +0.095 C 
ATOM     26  N   UNL     1      -4.174   3.392  25.519  0.00  0.00    -0.279 N 
ATOM     27  C   UNL     1      -3.752   3.728  26.143  0.00  0.00    +0.095 C 
ATOM     28  C   UNL     1      -2.995   4.031  26.014  0.00  0.00    +0.038 C 
ATOM     29  C   UNL     1      -4.930   3.090  25.647  0.00  0.00    +0.226 C 
ATOM     30  C   UNL     1      -5.353   2.754  25.022  0.00  0.00    +0.095 C 
ATOM     31  O   UNL     1      -5.266   3.123  26.400  0.00  0.00    -0.275 OA
ENDBRANCH  22  23
ENDBRANCH  16  18
TORSDOF 5
ENDMDL
MODEL 2
REMARK VINA RESULT:     -11.5      1.384      3.084
REMARK  Name = 
REMARK  5 active torsions:
REMARK  status: ('A' for Active; 'I' for Inactive)
REMARK    1  A    between atoms: O_2  and  C_3
REMARK    2  A    between atoms: C_3  and  C_4
REMARK    3  A    between atoms: C_10  and  C_13
REMARK    4  A    between atoms: C_16  and  C_18
REMARK    5  A    between atoms: N_22  and  C_23
REMARK                            x       y       z     vdW  Elec       q    Type
REMARK                         _______ _______ _______ _____ _____    ______ ____
ROOT
ATOM     13  C   UNL     1      -3.930   0.978  24.290  0.00  0.00    +0.205 A 
ATOM     14  N   UNL     1      -3.859   1.483  23.642  0.00  0.00    -0.056 NA
ATOM     15  O   UNL     1      -4.159   2.220  23.857  0.00  0.00    -0.336 OA
ATOM     16  C   UNL     1      -4.416   2.170  24.641  0.00  0.00    +0.251 A 
ATOM     17  N   UNL     1      -4.274   1.403  24.907  0.00  0.00    -0.190 NA
ENDROOT
BRANCH  13  10
ATOM      4  C   UNL     1      -2.217  -2.381  24.565  0.00  0.00    +0.277 C 
ATOM      5  O   UNL     1      -1.985  -3.173  24.592  0.00  0.00    -0.270 OA
ATOM      6  N   UNL     1      -3.000  -2.187  24.396  0.00  0.00    -0.158 NA
ATOM      7  C   UNL     1      -3.233  -1.395  24.369  0.00  0.00    +0.155 A 
ATOM      8  N   UNL     1      -2.682  -0.799  24.512  0.00  0.00    -0.227 NA
ATOM      9  C   UNL     1      -2.914  -0.008  24.486  0.00  0.00    +0.103 A 
ATOM     10  C   UNL     1      -3.698   0.187  24.316  0.00  0.00    +0.058 A 
ATOM     11  C   UNL     1      -4.249  -0.411  24.173  0.00  0.00    +0.008 A 
ATOM     12  C   UNL     1      -4.017  -1.202  24.199  0.00  0.00    +0.036 A 
BRANCH   4   3
ATOM      3  C   UNL     1      -1.666  -1.784  24.709  0.00  0.00    +0.229 C 
BRANCH   3   2
ATOM      1  C   UNL     1      -0.331  -1.398  25.043  0.00  0.00    +0.175 C 
ATOM      2  O   UNL     1      -0.921  -1.974  25.009  0.00  0.00    -0.342 OA
ENDBRANCH   3   2
ENDBRANCH   4   3
ENDBRANCH  13  10
BRANCH  16  18
ATOM     18  C   UNL     1      -4.755   2.782  25.078  0.00  0.00    +0.138 C 
ATOM     19  C   UNL     1      -5.555   2.866  25.256  0.00  0.00    +0.027 C 
ATOM     20  C   UNL     1      -5.646   3.554  25.703  0.00  0.00    +0.019 C 
ATOM     21  C   UNL     1      -4.902   3.895  25.801  0.00  0.00    +0.072 C 
ATOM     22  N   UNL     1      -4.350   3.419  25.415  0.00  0.00    -0.268 NA
BRANCH  22  23
ATOM     23  C   UNL     1      -3.537   3.553  25.373  0.00  0.00    +0.061 C 
ATOM     24  C   UNL     1      -3.226   3.992  24.747  0.00  0.00    +0.038 C 
ATOM     25  C   UNL     1      -2.412   4.127  24.703  0.00  0.00    +0.095 C 
ATOM     26  N   UNL     1      -1.912   3.823  25.285  0.00  0.00    -0.279 N 
ATOM     27  C   UNL     1      -2.224   3.384  25.910  0.00  0.00    +0.095 C 
ATOM     28  C   UNL     1      -3.037   3.249  25.953  0.00  0.00    +0.038 C 
ATOM     29  C   UNL     1      -1.099   3.958  25.241  0.00  0.00    +0.226 C 
ATOM     30  C   UNL     1      -0.787   4.396  24.616  0.00  0.00    +0.095 C 
ATOM     31  O   UNL     1      -0.598   3.654  25.822  0.00  0.00    -0.275 OA
ENDBRANCH  22  23
ENDBRANCH  16  18
TORSDOF 5
ENDMDL
MODEL 3
REMARK VINA RESULT:     -10.5      1.584      5.393
REMARK  Name = 
REMARK  5 active torsions:
REMARK  status: ('A' for Active; 'I' for Inactive)
REMARK    1  A    between atoms: O_2  and  C_3
REMARK    2  A    between atoms: C_3  and  C_4
REMARK    3  A    between atoms: C_10  and  C_13
REMARK    4  A    between atoms: C_16  and  C_18
REMARK    5  A    between atoms: N_22  and  C_23
REMARK                            x       y       z     vdW  Elec       q    Type
REMARK                         _______ _______ _______ _____ _____    ______ ____
ROOT
ATOM     13  C   UNL     1      -3.747   0.320  24.399  0.00  0.00    +0.205 A 
ATOM     14  N   UNL     1      -3.611   0.109  23.614  0.00  0.00    -0.056 NA
ATOM     15  O   UNL     1      -3.083  -0.523  23.607  0.00  0.00    -0.336 OA
ATOM     16  C   UNL     1      -2.892  -0.704  24.390  0.00  0.00    +0.251 A 
ATOM     17  N   UNL     1      -3.302  -0.183  24.878  0.00  0.00    -0.190 NA
ENDROOT
BRANCH  13  10
ATOM      4  C   UNL     1      -5.411   3.493  25.606  0.00  0.00    +0.277 C 
ATOM      5  O   UNL     1      -5.906   4.100  25.867  0.00  0.00    -0.270 OA
ATOM      6  N   UNL     1      -5.724   2.748  25.442  0.00  0.00    -0.158 NA
ATOM      7  C   UNL     1      -5.230   2.141  25.181  0.00  0.00    +0.155 A 
ATOM      8  N   UNL     1      -4.423   2.279  25.085  0.00  0.00    -0.227 NA
ATOM      9  C   UNL     1      -3.929   1.672  24.824  0.00  0.00    +0.103 A 
ATOM     10  C   UNL     1      -4.241   0.927  24.660  0.00  0.00    +0.058 A 
ATOM     11  C   UNL     1      -5.050   0.788  24.757  0.00  0.00    +0.008 A 
ATOM     12  C   UNL     1      -5.544   1.395  25.018  0.00  0.00    +0.036 A 
BRANCH   4   3
ATOM      3  C   UNL     1      -4.603   3.632  25.509  0.00  0.00    +0.229 C 
BRANCH   3   2
ATOM      1  C   UNL     1      -3.422   4.345  25.880  0.00  0.00    +0.175 C 
ATOM      2  O   UNL     1      -4.243   4.259  25.905  0.00  0.00    -0.342 OA
ENDBRANCH   3   2
ENDBRANCH   4   3
ENDBRANCH  13  10
BRANCH  16  18
ATOM     18  C   UNL     1      -2.379  -1.302  24.637  0.00  0.00    +0.138 C 
ATOM     19  C   UNL     1      -2.570  -2.099  24.726  0.00  0.00    +0.027 C 
ATOM     20  C   UNL     1      -1.894  -2.495  24.983  0.00  0.00    +0.019 C 
ATOM     21  C   UNL     1      -1.286  -1.943  25.054  0.00  0.00    +0.072 C 
ATOM     22  N   UNL     1      -1.585  -1.205  24.841  0.00  0.00    -0.268 NA
BRANCH  22  23
ATOM     23  C   UNL     1      -1.165  -0.495  24.831  0.00  0.00    +0.061 C 
ATOM     24  C   UNL     1      -1.137  -0.025  25.509  0.00  0.00    +0.038 C 
ATOM     25  C   UNL     1      -0.718   0.686  25.500  0.00  0.00    +0.095 C 
ATOM     26  N   UNL     1      -0.327   0.926  24.814  0.00  0.00    -0.279 N 
ATOM     27  C   UNL     1      -0.356   0.456  24.137  0.00  0.00    +0.095 C 
ATOM     28  C   UNL     1      -0.775  -0.255  24.146  0.00  0.00    +0.038 C 
ATOM     29  C   UNL     1       0.092   1.637  24.806  0.00  0.00    +0.226 C 
ATOM     30  C   UNL     1       0.121   2.107  25.483  0.00  0.00    +0.095 C 
ATOM     31  O   UNL     1       0.483   1.878  24.120  0.00  0.00    -0.275 OA
ENDBRANCH  22  23
ENDBRANCH  16  18
TORSDOF 5
ENDMDL
MODEL 4
REMARK VINA RESULT:     -10.3      2.171      4.256
REMARK  Name = 
REMARK  5 active torsions:
REMARK  status: ('A' for Active; 'I' for Inactive)
REMARK    1  A    between atoms: O_2  and  C_3
REMARK    2  A    between atoms: C_3  and  C_4
REMARK    3  A    between atoms: C_10  and  C_13
REMARK    4  A    between atoms: C_16  and  C_18
REMARK    5  A    between atoms: N_22  and  C_23
REMARK                            x       y       z     vdW  Elec       q    Type
REMARK                         _______ _______ _______ _____ _____    ______ ____
ROOT
ATOM     13  C   UNL     1      -2.342   1.622  23.936  0.00  0.00    +0.205 A 
ATOM     14  N   UNL     1      -2.794   1.575  23.247  0.00  0.00    -0.056 NA
ATOM     15  O   UNL     1      -3.588   1.539  23.464  0.00  0.00    -0.336 OA
ATOM     16  C   UNL     1      -3.628   1.563  24.289  0.00  0.00    +0.251 A 
ATOM     17  N   UNL     1      -2.858   1.614  24.579  0.00  0.00    -0.190 NA
ENDROOT
BRANCH  13  10
ATOM      4  C   UNL     1       1.413   1.247  23.697  0.00  0.00    +0.277 C 
ATOM      5  O   UNL     1       2.236   1.293  23.736  0.00  0.00    -0.270 OA
ATOM      6  N   UNL     1       0.949   1.806  24.089  0.00  0.00    -0.158 NA
ATOM      7  C   UNL     1       0.126   1.760  24.050  0.00  0.00    +0.155 A 
ATOM      8  N   UNL     1      -0.233   1.155  23.621  0.00  0.00    -0.227 NA
ATOM      9  C   UNL     1      -1.056   1.109  23.583  0.00  0.00    +0.103 A 
ATOM     10  C   UNL     1      -1.519   1.668  23.974  0.00  0.00    +0.058 A 
ATOM     11  C   UNL     1      -1.159   2.274  24.404  0.00  0.00    +0.008 A 
ATOM     12  C   UNL     1      -0.336   2.320  24.442  0.00  0.00    +0.036 A 
BRANCH   4   3
ATOM      3  C   UNL     1       1.053   0.641  23.267  0.00  0.00    +0.229 C 
BRANCH   3   2
ATOM      1  C   UNL     1       1.273  -0.354  22.266  0.00  0.00    +0.175 C 
ATOM      2  O   UNL     1       1.509   0.027  22.959  0.00  0.00    -0.342 OA
ENDBRANCH   3   2
ENDBRANCH   4   3
ENDBRANCH  13  10
BRANCH  16  18
ATOM     18  C   UNL     1      -4.317   1.540  24.741  0.00  0.00    +0.138 C 
ATOM     19  C   UNL     1      -4.769   2.190  24.971  0.00  0.00    +0.027 C 
ATOM     20  C   UNL     1      -5.407   1.912  25.415  0.00  0.00    +0.019 C 
ATOM     21  C   UNL     1      -5.349   1.091  25.459  0.00  0.00    +0.072 C 
ATOM     22  N   UNL     1      -4.676   0.860  25.043  0.00  0.00    -0.268 NA
BRANCH  22  23
ATOM     23  C   UNL     1      -4.407   0.086  24.945  0.00  0.00    +0.061 C 
ATOM     24  C   UNL     1      -4.607  -0.335  24.264  0.00  0.00    +0.038 C 
ATOM     25  C   UNL     1      -4.338  -1.109  24.164  0.00  0.00    +0.095 C 
ATOM     26  N   UNL     1      -3.870  -1.462  24.746  0.00  0.00    -0.279 N 
ATOM     27  C   UNL     1      -3.671  -1.040  25.426  0.00  0.00    +0.095 C 
ATOM     28  C   UNL     1      -3.940  -0.266  25.525  0.00  0.00    +0.038 C 
ATOM     29  C   UNL     1      -3.602  -2.235  24.647  0.00  0.00    +0.226 C 
ATOM     30  C   UNL     1      -3.801  -2.657  23.966  0.00  0.00    +0.095 C 
ATOM     31  O   UNL     1      -3.134  -2.588  25.227  0.00  0.00    -0.275 OA
ENDBRANCH  22  23
ENDBRANCH  16  18
TORSDOF 5
ENDMDL
MODEL 5
REMARK VINA RESULT:      -9.8      1.817      2.556
REMARK  Name = 
REMARK  5 active torsions:
REMARK  status: ('A' for Active; 'I' for Inactive)
REMARK    1  A    between atoms: O_2  and  C_3
REMARK    2  A    between atoms: C_3  and  C_4
REMARK    3  A    between atoms: C_10  and  C_13
REMARK    4  A    between atoms: C_16  and  C_18
REMARK    5  A    between atoms: N_22  and  C_23
REMARK                            x       y       z     vdW  Elec       q    Type
REMARK                         _______ _______ _______ _____ _____    ______ ____
ROOT
ATOM     13  C   UNL     1      -0.649   2.188  24.854  0.00  0.00    +0.205 A 
ATOM     14  N   UNL     1      -0.842   2.170  25.655  0.00  0.00    -0.056 NA
ATOM     15  O   UNL     1      -1.141   2.909  25.863  0.00  0.00    -0.336 OA
ATOM     16  C   UNL     1      -1.134   3.386  25.188  0.00  0.00    +0.251 A 
ATOM     17  N   UNL     1      -0.829   2.939  24.565  0.00  0.00    -0.190 NA
ENDROOT
BRANCH  13  10
ATOM      4  C   UNL     1       1.390  -0.253  22.809  0.00  0.00    +0.277 C 
ATOM      5  O   UNL     1       1.708  -0.877  22.372  0.00  0.00    -0.270 OA
ATOM      6  N   UNL     1       0.623  -0.307  23.107  0.00  0.00    -0.158 NA
ATOM      7  C   UNL     1       0.305   0.317  23.544  0.00  0.00    +0.155 A 
ATOM      8  N   UNL     1       0.754   0.994  23.682  0.00  0.00    -0.227 NA
ATOM      9  C   UNL     1       0.436   1.618  24.119  0.00  0.00    +0.103 A 
ATOM     10  C   UNL     1      -0.331   1.564  24.417  0.00  0.00    +0.058 A 
ATOM     11  C   UNL     1      -0.781   0.886  24.278  0.00  0.00    +0.008 A 
ATOM     12  C   UNL     1      -0.463   0.262  23.841  0.00  0.00    +0.036 A 
BRANCH   4   3
ATOM      3  C   UNL     1       1.840   0.425  22.948  0.00  0.00    +0.229 C 
BRANCH   3   2
ATOM      1  C   UNL     1       3.192   0.885  22.913  0.00  0.00    +0.175 C 
ATOM      2  O   UNL     1       2.543   0.545  22.533  0.00  0.00    -0.342 OA
ENDBRANCH   3   2
ENDBRANCH   4   3
ENDBRANCH  13  10
BRANCH  16  18
ATOM     18  C   UNL     1      -1.387   4.170  25.146  0.00  0.00    +0.138 C 
ATOM     19  C   UNL     1      -0.903   4.837  25.158  0.00  0.00    +0.027 C 
ATOM     20  C   UNL     1      -1.387   5.503  25.104  0.00  0.00    +0.019 C 
ATOM     21  C   UNL     1      -2.169   5.247  25.059  0.00  0.00    +0.072 C 
ATOM     22  N   UNL     1      -2.170   4.423  25.084  0.00  0.00    -0.268 NA
BRANCH  22  23
ATOM     23  C   UNL     1      -2.836   3.937  25.054  0.00  0.00    +0.061 C 
ATOM     24  C   UNL     1      -3.226   3.730  25.752  0.00  0.00    +0.038 C 
ATOM     25  C   UNL     1      -3.892   3.243  25.723  0.00  0.00    +0.095 C 
ATOM     26  N   UNL     1      -4.167   2.964  24.996  0.00  0.00    -0.279 N 
ATOM     27  C   UNL     1      -3.777   3.171  24.300  0.00  0.00    +0.095 C 
ATOM     28  C   UNL     1      -3.111   3.658  24.329  0.00  0.00    +0.038 C 
ATOM     29  C   UNL     1      -4.832   2.477  24.967  0.00  0.00    +0.226 C 
ATOM     30  C   UNL     1      -5.223   2.270  25.664  0.00  0.00    +0.095 C 
ATOM     31  O   UNL     1      -5.108   2.198  24.242  0.00  0.00    -0.275 OA
ENDBRANCH  22  23
ENDBRANCH  16  18
TORSDOF 5
ENDMDL
MODEL 6
REMARK VINA RESULT:      -9.8      1.171      4.688
REMARK  Name = 
REMARK  5 active torsions:
REMARK  status: ('A' for Active; 'I' for Inactive)
REMARK    1  A    between atoms: O_2  and  C_3
REMARK    2  A    between atoms: C_3  and  C_4
REMARK    3  A    between atoms: C_10  and  C_13
REMARK    4  A    between atoms: C_16  and  C_18
REMARK    5  A    between atoms: N_22  and  C_23
REMARK                            x       y       z     vdW  Elec       q    Type
REMARK                         _______ _______ _______ _____ _____    ______ ____
ROOT
ATOM     13  C   UNL     1      -1.597   1.938  25.222  0.00  0.00    +0.205 A 
ATOM     14  N   UNL     1      -1.124   1.687  25.849  0.00  0.00    -0.056 NA
ATOM     15  O   UNL     1      -0.555   1.172  25.551  0.00  0.00    -0.336 OA
ATOM     16  C   UNL     1      -0.676   1.104  24.736  0.00  0.00    +0.251 A 
ATOM     17  N   UNL     1      -1.320   1.577  24.534  0.00  0.00    -0.190 NA
ENDROOT
BRANCH  13  10
ATOM      4  C   UNL     1      -4.923   3.728  25.389  0.00  0.00    +0.277 C 
ATOM      5  O   UNL     1      -5.562   4.248  25.440  0.00  0.00    -0.270 OA
ATOM      6  N   UNL     1      -4.151   4.017  25.426  0.00  0.00    -0.158 NA
ATOM      7  C   UNL     1      -3.513   3.497  25.375  0.00  0.00    +0.155 A 
ATOM      8  N   UNL     1      -3.646   2.689  25.287  0.00  0.00    -0.227 NA
ATOM      9  C   UNL     1      -3.008   2.169  25.236  0.00  0.00    +0.103 A 
ATOM     10  C   UNL     1      -2.236   2.457  25.273  0.00  0.00    +0.058 A 
ATOM     11  C   UNL     1      -2.103   3.268  25.361  0.00  0.00    +0.008 A 
ATOM     12  C   UNL     1      -2.741   3.788  25.412  0.00  0.00    +0.036 A 
BRANCH   4   3
ATOM      3  C   UNL     1      -5.056   2.918  25.302  0.00  0.00    +0.229 C 
BRANCH   3   2
ATOM      1  C   UNL     1      -5.980   1.853  25.070  0.00  0.00    +0.175 C 
ATOM      2  O   UNL     1      -5.826   2.622  25.327  0.00  0.00    -0.342 OA
ENDBRANCH   3   2
ENDBRANCH   4   3
ENDBRANCH  13  10
BRANCH  16  18
ATOM     18  C   UNL     1      -0.229   0.642  24.218  0.00  0.00    +0.138 C 
ATOM     19  C   UNL     1       0.449   0.883  23.816  0.00  0.00    +0.027 C 
ATOM     20  C   UNL     1       0.714   0.247  23.361  0.00  0.00    +0.019 C 
ATOM     21  C   UNL     1       0.198  -0.385  23.481  0.00  0.00    +0.072 C 
ATOM     22  N   UNL     1      -0.385  -0.142  24.010  0.00  0.00    -0.268 NA
BRANCH  22  23
ATOM     23  C   UNL     1      -1.014  -0.600  24.285  0.00  0.00    +0.061 C 
ATOM     24  C   UNL     1      -1.722  -0.622  23.862  0.00  0.00    +0.038 C 
ATOM     25  C   UNL     1      -2.352  -1.080  24.137  0.00  0.00    +0.095 C 
ATOM     26  N   UNL     1      -2.273  -1.515  24.834  0.00  0.00    -0.279 N 
ATOM     27  C   UNL     1      -1.565  -1.492  25.256  0.00  0.00    +0.095 C 
ATOM     28  C   UNL     1      -0.935  -1.034  24.981  0.00  0.00    +0.038 C 
ATOM     29  C   UNL     1      -2.902  -1.972  25.108  0.00  0.00    +0.226 C 
ATOM     30  C   UNL     1      -3.611  -1.995  24.685  0.00  0.00    +0.095 C 
ATOM     31  O   UNL     1      -2.823  -2.407  25.804  0.00  0.00    -0.275 OA
ENDBRANCH  22  23
ENDBRANCH  16  18
TORSDOF 5
ENDMDL
MODEL 7
REMARK VINA RESULT:      -7.8     15.365     17.550
REMARK  Name = 
REMARK  5 active torsions:
REMARK  status: ('A' for Active; 'I' for Inactive)
REMARK    1  A    between atoms: O_2  and  C_3
REMARK    2  A    between atoms: C_3  and  C_4
REMARK    3  A    between atoms: C_10  and  C_13
REMARK    4  A    between atoms: C_16  and  C_18
REMARK    5  A    between atoms: N_22  and  C_23
REMARK                            x       y       z     vdW  Elec       q    Type
REMARK                         _______ _______ _______ _____ _____    ______ ____
ROOT
ATOM     13  C   UNL     1      11.393   8.327  19.325  0.00  0.00    +0.205 A 
ATOM     14  N   UNL     1      11.152   8.860  19.907  0.00  0.00    -0.056 NA
ATOM     15  O   UNL     1      11.110   8.454  20.623  0.00  0.00    -0.336 OA
ATOM     16  C   UNL     1      11.325   7.668  20.484  0.00  0.00    +0.251 A 
ATOM     17  N   UNL     1      11.500   7.592  19.682  0.00  0.00    -0.190 NA
ENDROOT
BRANCH  13  10
ATOM      4  C   UNL     1      12.595   8.920  15.790  0.00  0.00    +0.277 C 
ATOM      5  O   UNL     1      12.710   9.093  14.991  0.00  0.00    -0.270 OA
ATOM      6  N   UNL     1      11.851   9.020  16.131  0.00  0.00    -0.158 NA
ATOM      7  C   UNL     1      11.737   8.847  16.930  0.00  0.00    +0.155 A 
ATOM      8  N   UNL     1      12.366   8.574  17.387  0.00  0.00    -0.227 NA
ATOM      9  C   UNL     1      12.252   8.401  18.185  0.00  0.00    +0.103 A 
ATOM     10  C   UNL     1      11.508   8.501  18.527  0.00  0.00    +0.058 A 
ATOM     11  C   UNL     1      10.878   8.774  18.069  0.00  0.00    +0.008 A 
ATOM     12  C   UNL     1      10.992   8.948  17.271  0.00  0.00    +0.036 A 
BRANCH   4   3
ATOM      3  C   UNL     1      13.226   8.647  16.247  0.00  0.00    +0.229 C 
BRANCH   3   2
ATOM      1  C   UNL     1      14.525   8.054  16.290  0.00  0.00    +0.175 C 
ATOM      2  O   UNL     1      13.960   8.510  15.897  0.00  0.00    -0.342 OA
ENDBRANCH   3   2
ENDBRANCH   4   3
ENDBRANCH  13  10
BRANCH  16  18
ATOM     18  C   UNL     1      11.359   7.068  21.049  0.00  0.00    +0.138 C 
ATOM     19  C   UNL     1      10.746   6.553  21.246  0.00  0.00    +0.027 C 
ATOM     20  C   UNL     1      11.021   6.044  21.835  0.00  0.00    +0.019 C 
ATOM     21  C   UNL     1      11.803   6.246  22.001  0.00  0.00    +0.072 C 
ATOM     22  N   UNL     1      12.013   6.879  21.516  0.00  0.00    -0.268 NA
BRANCH  22  23
ATOM     23  C   UNL     1      12.746   7.257  21.499  0.00  0.00    +0.061 C 
ATOM     24  C   UNL     1      12.858   7.956  21.924  0.00  0.00    +0.038 C 
ATOM     25  C   UNL     1      13.591   8.334  21.907  0.00  0.00    +0.095 C 
ATOM     26  N   UNL     1      14.211   8.014  21.466  0.00  0.00    -0.279 N 
ATOM     27  C   UNL     1      14.098   7.316  21.042  0.00  0.00    +0.095 C 
ATOM     28  C   UNL     1      13.365   6.937  21.059  0.00  0.00    +0.038 C 
ATOM     29  C   UNL     1      14.944   8.393  21.450  0.00  0.00    +0.226 C 
ATOM     30  C   UNL     1      15.057   9.092  21.874  0.00  0.00    +0.095 C 
ATOM     31  O   UNL     1      15.564   8.074  21.010  0.00  0.00    -0.275 OA
ENDBRANCH  22  23
ENDBRANCH  16  18
TORSDOF 5
ENDMDL
MODEL 8
REMARK VINA RESULT:      -7.8     16.995     18.874
REMARK  Name = 
REMARK  5 active torsions:
REMARK  status: ('A' for Active; 'I' for Inactive)
REMARK    1  A    between atoms: O_2  and  C_3
REMARK    2  A    between atoms: C_3  and  C_4
REMARK    3  A    between atoms: C_10  and  C_13
REMARK    4  A    between atoms: C_16  and  C_18
REMARK    5  A    between atoms: N_22  and  C_23
REMARK                            x       y       z     vdW  Elec       q    Type
REMARK                         _______ _______ _______ _____ _____    ______ ____
ROOT
ATOM     13  C   UNL     1      12.939   8.074  19.515  0.00  0.00    +0.205 A 
ATOM     14  N   UNL     1      12.781   7.384  19.939  0.00  0.00    -0.056 NA
ATOM     15  O   UNL     1      13.185   7.428  20.657  0.00  0.00    -0.336 OA
ATOM     16  C   UNL     1      13.593   8.146  20.676  0.00  0.00    +0.251 A 
ATOM     17  N   UNL     1      13.441   8.544  19.971  0.00  0.00    -0.190 NA
ENDROOT
BRANCH  13  10
ATOM      4  C   UNL     1      12.287   8.904  15.884  0.00  0.00    +0.277 C 
ATOM      5  O   UNL     1      11.995   9.091  15.136  0.00  0.00    -0.270 OA
ATOM      6  N   UNL     1      11.769   8.821  16.521  0.00  0.00    -0.158 NA
ATOM      7  C   UNL     1      12.062   8.634  17.270  0.00  0.00    +0.155 A 
ATOM      8  N   UNL     1      12.872   8.531  17.381  0.00  0.00    -0.227 NA
ATOM      9  C   UNL     1      13.164   8.344  18.130  0.00  0.00    +0.103 A 
ATOM     10  C   UNL     1      12.647   8.261  18.767  0.00  0.00    +0.058 A 
ATOM     11  C   UNL     1      11.835   8.364  18.654  0.00  0.00    +0.008 A 
ATOM     12  C   UNL     1      11.543   8.551  17.906  0.00  0.00    +0.036 A 
BRANCH   4   3
ATOM      3  C   UNL     1      13.098   8.800  15.997  0.00  0.00    +0.229 C 
BRANCH   3   2
ATOM      1  C   UNL     1      14.401   8.907  15.418  0.00  0.00    +0.175 C 
ATOM      2  O   UNL     1      13.598   8.727  15.345  0.00  0.00    -0.342 OA
ENDBRANCH   3   2
ENDBRANCH   4   3
ENDBRANCH  13  10
BRANCH  16  18
ATOM     18  C   UNL     1      14.069   8.415  21.294  0.00  0.00    +0.138 C 
ATOM     19  C   UNL     1      13.842   8.940  21.888  0.00  0.00    +0.027 C 
ATOM     20  C   UNL     1      14.490   9.055  22.386  0.00  0.00    +0.019 C 
ATOM     21  C   UNL     1      15.116   8.601  22.100  0.00  0.00    +0.072 C 
ATOM     22  N   UNL     1      14.857   8.206  21.425  0.00  0.00    -0.268 NA
BRANCH  22  23
ATOM     23  C   UNL     1      15.305   7.691  20.961  0.00  0.00    +0.061 C 
ATOM     24  C   UNL     1      15.823   7.993  20.394  0.00  0.00    +0.038 C 
ATOM     25  C   UNL     1      16.271   7.478  19.930  0.00  0.00    +0.095 C 
ATOM     26  N   UNL     1      16.201   6.662  20.033  0.00  0.00    -0.279 N 
ATOM     27  C   UNL     1      15.683   6.361  20.600  0.00  0.00    +0.095 C 
ATOM     28  C   UNL     1      15.235   6.876  21.064  0.00  0.00    +0.038 C 
ATOM     29  C   UNL     1      16.649   6.149  19.569  0.00  0.00    +0.226 C 
ATOM     30  C   UNL     1      17.168   6.450  19.001  0.00  0.00    +0.095 C 
ATOM     31  O   UNL     1      16.580   5.333  19.671  0.00  0.00    -0.275 OA
ENDBRANCH  22  23
ENDBRANCH  16  18
TORSDOF 5
ENDMDL
