MODEL 1
REMARK VINA RESULT:      -9.8      0.000      0.000
REMARK  Name = 
REMARK  7 active torsions:
REMARK  status: ('A' for Active; 'I' for Inactive)
REMARK    1  A    between atoms: C_2  and  C_3
REMARK    2  A    between atoms: C_3  and  C_4
REMARK    3  A    between atoms: N_6  and  C_7
REMARK    4  A    between atoms: C_10  and  C_13
REMARK    5  A    between atoms: N_18  and  C_19
REMARK    6  A    between atoms: C_19  and  C_20
REMARK    7  A    between atoms: C_23  and  C_24
REMARK                            x       y       z     vdW  Elec       q    Type
REMARK                         _______ _______ _______ _____ _____    ______ ____
ROOT
ATOM     13  C   UNL     1      -1.527  -0.420  24.700  0.00  0.00    +0.159 C 
ATOM     14  O   UNL     1      -0.962  -0.996  24.531  0.00  0.00    -0.341 OA
ATOM     15  C   UNL     1      -1.180  -1.791  24.499  0.00  0.00    +0.227 C 
ATOM     16  C   UNL     1      -1.964  -2.009  24.636  0.00  0.00    +0.256 C 
ATOM     17  O   UNL     1      -2.183  -2.804  24.604  0.00  0.00    -0.272 OA
ATOM     18  N   UNL     1      -2.530  -1.432  24.805  0.00  0.00    -0.274 N 
ATOM     23  C   UNL     1      -2.310  -0.637  24.836  0.00  0.00    +0.140 C 
ENDROOT
BRANCH  13  10
ATOM      7  C   UNL     1      -0.873   1.966  24.794  0.00  0.00    +0.073 A 
ATOM      8  C   UNL     1      -1.176   1.648  24.095  0.00  0.00    +0.016 A 
ATOM      9  C   UNL     1      -1.394   0.854  24.064  0.00  0.00    -0.001 A 
ATOM     10  C   UNL     1      -1.308   0.376  24.732  0.00  0.00    +0.006 A 
ATOM     11  C   UNL     1      -1.005   0.693  25.429  0.00  0.00    -0.001 A 
ATOM     12  C   UNL     1      -0.787   1.488  25.461  0.00  0.00    +0.016 A 
BRANCH   7   6
ATOM      4  C   UNL     1      -1.207   3.332  25.047  0.00  0.00    +0.246 C 
ATOM      5  O   UNL     1      -1.979   3.108  25.238  0.00  0.00    -0.273 OA
ATOM      6  N   UNL     1      -0.655   2.761  24.825  0.00  0.00    -0.179 NA
BRANCH   4   3
ATOM      3  C   UNL     1      -0.989   4.127  25.079  0.00  0.00    +0.087 C 
BRANCH   3   2
ATOM      1  C   UNL     1      -1.378   5.502  25.054  0.00  0.00    +0.001 C 
ATOM      2  C   UNL     1      -1.564   4.708  25.185  0.00  0.00    +0.010 C 
ENDBRANCH   3   2
ENDBRANCH   4   3
ENDBRANCH   7   6
ENDBRANCH  13  10
BRANCH  23  24
ATOM     24  C   UNL     1      -2.876  -0.060  25.005  0.00  0.00    +0.205 C 
ATOM     25  O   UNL     1      -3.263  -0.063  25.734  0.00  0.00    -0.218 OA
ENDBRANCH  23  24
BRANCH  18  19
ATOM     19  C   UNL     1      -3.313  -1.650  24.941  0.00  0.00    +0.094 C 
BRANCH  19  20
ATOM     20  C   UNL     1      -3.742  -2.038  24.353  0.00  0.00    +0.020 C 
ATOM     21  C   UNL     1      -3.813  -2.860  24.370  0.00  0.00    +0.002 C 
ATOM     22  C   UNL     1      -4.099  -1.605  23.748  0.00  0.00    +0.002 C 
ENDBRANCH  19  20
ENDBRANCH  18  19
TORSDOF 7
ENDMDL
MODEL 2
REMARK VINA RESULT:      -9.7      1.460      5.347
REMARK  Name = 
REMARK  7 active torsions:
REMARK  status: ('A' for Active; 'I' for Inactive)
REMARK    1  A    between atoms: C_2  and  C_3
REMARK    2  A    between atoms: C_3  and  C_4
REMARK    3  A    between atoms: N_6  and  C_7
REMARK    4  A    between atoms: C_10  and  C_13
REMARK    5  A    between atoms: N_18  and  C_19
REMARK    6  A    between atoms: C_19  and  C_20
REMARK    7  A    between atoms: C_23  and  C_24
REMARK                            x       y       z     vdW  Elec       q    Type
REMARK                         _______ _______ _______ _____ _____    ______ ____
ROOT
ATOM     13  C   UNL     1      -3.224   2.502  24.655  0.00  0.00    +0.159 C 
ATOM     14  O   UNL     1      -3.759   3.120  24.545  0.00  0.00    -0.341 OA
ATOM     15  C   UNL     1      -3.527   3.898  24.693  0.00  0.00    +0.227 C 
ATOM     16  C   UNL     1      -2.760   4.058  24.951  0.00  0.00    +0.256 C 
ATOM     17  O   UNL     1      -2.528   4.836  25.099  0.00  0.00    -0.272 OA
ATOM     18  N   UNL     1      -2.224   3.440  25.062  0.00  0.00    -0.274 N 
ATOM     23  C   UNL     1      -2.457   2.662  24.913  0.00  0.00    +0.140 C 
ENDROOT
BRANCH  13  10
ATOM      7  C   UNL     1      -3.916   0.168  24.209  0.00  0.00    +0.073 A 
ATOM      8  C   UNL     1      -3.444   0.570  23.665  0.00  0.00    +0.016 A 
ATOM      9  C   UNL     1      -3.214   1.347  23.813  0.00  0.00    -0.001 A 
ATOM     10  C   UNL     1      -3.455   1.724  24.507  0.00  0.00    +0.006 A 
ATOM     11  C   UNL     1      -3.926   1.323  25.052  0.00  0.00    -0.001 A 
ATOM     12  C   UNL     1      -4.157   0.545  24.904  0.00  0.00    +0.016 A 
BRANCH   7   6
ATOM      4  C   UNL     1      -3.701  -1.237  24.359  0.00  0.00    +0.246 C 
ATOM      5  O   UNL     1      -3.023  -1.086  24.805  0.00  0.00    -0.273 OA
ATOM      6  N   UNL     1      -4.147  -0.610  24.061  0.00  0.00    -0.179 NA
BRANCH   4   3
ATOM      3  C   UNL     1      -3.931  -2.015  24.210  0.00  0.00    +0.087 C 
BRANCH   3   2
ATOM      1  C   UNL     1      -3.619  -3.408  24.261  0.00  0.00    +0.001 C 
ATOM      2  C   UNL     1      -3.510  -2.640  24.543  0.00  0.00    +0.010 C 
ENDBRANCH   3   2
ENDBRANCH   4   3
ENDBRANCH   7   6
ENDBRANCH  13  10
BRANCH  23  24
ATOM     24  C   UNL     1      -1.921   2.044  25.024  0.00  0.00    +0.205 C 
ATOM     25  O   UNL     1      -1.628   1.882  25.778  0.00  0.00    -0.218 OA
ENDBRANCH  23  24
BRANCH  18  19
ATOM     19  C   UNL     1      -1.458   3.599  25.319  0.00  0.00    +0.094 C 
BRANCH  19  20
ATOM     20  C   UNL     1      -0.967   4.093  24.875  0.00  0.00    +0.020 C 
ATOM     21  C   UNL     1      -0.539   3.784  24.241  0.00  0.00    +0.002 C 
ATOM     22  C   UNL     1      -0.905   4.893  25.065  0.00  0.00    +0.002 C 
ENDBRANCH  19  20
ENDBRANCH  18  19
TORSDOF 7
ENDMDL
MODEL 3
REMARK VINA RESULT:      -9.5      1.339      1.976
REMARK  Name = 
REMARK  7 active torsions:
REMARK  status: ('A' for Active; 'I' for Inactive)
REMARK    1  A    between atoms: C_2  and  C_3
REMARK    2  A    between atoms: C_3  and  C_4
REMARK    3  A    between atoms: N_6  and  C_7
REMARK    4  A    between atoms: C_10  and  C_13
REMARK    5  A    between atoms: N_18  and  C_19
REMARK    6  A    between atoms: C_19  and  C_20
REMARK    7  A    between atoms: C_23  and  C_24
REMARK                            x       y       z     vdW  Elec       q    Type
REMARK                         _______ _______ _______ _____ _____    ______ ____
ROOT
ATOM     13  C   UNL     1      -3.676  -0.007  24.284  0.00  0.00    +0.159 C 
ATOM     14  O   UNL     1      -4.314  -0.277  23.838  0.00  0.00    -0.341 OA
ATOM     15  C   UNL     1      -4.479  -1.084  23.798  0.00  0.00    +0.227 C 
ATOM     16  C   UNL     1      -4.004  -1.622  24.205  0.00  0.00    +0.256 C 
ATOM     17  O   UNL     1      -4.168  -2.430  24.166  0.00  0.00    -0.272 OA
ATOM     18  N   UNL     1      -3.365  -1.353  24.652  0.00  0.00    -0.274 N 
ATOM     23  C   UNL     1      -3.201  -0.545  24.691  0.00  0.00    +0.140 C 
ENDROOT
BRANCH  13  10
ATOM      7  C   UNL     1      -3.182   2.416  24.405  0.00  0.00    +0.073 A 
ATOM      8  C   UNL     1      -3.761   2.087  24.893  0.00  0.00    +0.016 A 
ATOM      9  C   UNL     1      -3.925   1.280  24.853  0.00  0.00    -0.001 A 
ATOM     10  C   UNL     1      -3.511   0.800  24.324  0.00  0.00    +0.006 A 
ATOM     11  C   UNL     1      -2.932   1.128  23.836  0.00  0.00    -0.001 A 
ATOM     12  C   UNL     1      -2.767   1.936  23.876  0.00  0.00    +0.016 A 
BRANCH   7   6
ATOM      4  C   UNL     1      -2.444   3.502  24.968  0.00  0.00    +0.246 C 
ATOM      5  O   UNL     1      -2.034   2.973  25.452  0.00  0.00    -0.273 OA
ATOM      6  N   UNL     1      -3.018   3.223  24.445  0.00  0.00    -0.179 NA
BRANCH   4   3
ATOM      3  C   UNL     1      -2.279   4.309  25.009  0.00  0.00    +0.087 C 
BRANCH   3   2
ATOM      1  C   UNL     1      -1.295   5.343  25.071  0.00  0.00    +0.001 C 
ATOM      2  C   UNL     1      -1.526   4.566  25.224  0.00  0.00    +0.010 C 
ENDBRANCH   3   2
ENDBRANCH   4   3
ENDBRANCH   7   6
ENDBRANCH  13  10
BRANCH  23  24
ATOM     24  C   UNL     1      -2.561  -0.276  25.138  0.00  0.00    +0.205 C 
ATOM     25  O   UNL     1      -2.548  -0.398  25.954  0.00  0.00    -0.218 OA
ENDBRANCH  23  24
BRANCH  18  19
ATOM     19  C   UNL     1      -2.890  -1.890  25.059  0.00  0.00    +0.094 C 
BRANCH  19  20
ATOM     20  C   UNL     1      -2.510  -2.497  24.649  0.00  0.00    +0.020 C 
ATOM     21  C   UNL     1      -2.858  -3.244  24.602  0.00  0.00    +0.002 C 
ATOM     22  C   UNL     1      -1.782  -2.358  24.287  0.00  0.00    +0.002 C 
ENDBRANCH  19  20
ENDBRANCH  18  19
TORSDOF 7
ENDMDL
MODEL 4
REMARK VINA RESULT:      -8.9      1.019      5.016
REMARK  Name = 
REMARK  7 active torsions:
REMARK  status: ('A' for Active; 'I' for Inactive)
REMARK    1  A    between atoms: C_2  and  C_3
REMARK    2  A    between atoms: C_3  and  C_4
REMARK    3  A    between atoms: N_6  and  C_7
REMARK    4  A    between atoms: C_10  and  C_13
REMARK    5  A    between atoms: N_18  and  C_19
REMARK    6  A    between atoms: C_19  and  C_20
REMARK    7  A    between atoms: C_23  and  C_24
REMARK                            x       y       z     vdW  Elec       q    Type
REMARK                         _______ _______ _______ _____ _____    ______ ____
ROOT
ATOM     13  C   UNL     1      -0.929   1.616  25.242  0.00  0.00    +0.159 C 
ATOM     14  O   UNL     1      -0.214   1.769  25.622  0.00  0.00    -0.341 OA
ATOM     15  C   UNL     1       0.047   2.546  25.716  0.00  0.00    +0.227 C 
ATOM     16  C   UNL     1      -0.409   3.171  25.429  0.00  0.00    +0.256 C 
ATOM     17  O   UNL     1      -0.149   3.948  25.522  0.00  0.00    -0.272 OA
ATOM     18  N   UNL     1      -1.125   3.019  25.047  0.00  0.00    -0.274 N 
ATOM     23  C   UNL     1      -1.385   2.241  24.954  0.00  0.00    +0.140 C 
ENDROOT
BRANCH  13  10
ATOM      7  C   UNL     1      -1.713  -0.715  24.962  0.00  0.00    +0.073 A 
ATOM      8  C   UNL     1      -1.956  -0.273  25.614  0.00  0.00    +0.016 A 
ATOM      9  C   UNL     1      -1.696   0.503  25.708  0.00  0.00    -0.001 A 
ATOM     10  C   UNL     1      -1.190   0.839  25.148  0.00  0.00    +0.006 A 
ATOM     11  C   UNL     1      -0.946   0.398  24.496  0.00  0.00    -0.001 A 
ATOM     12  C   UNL     1      -1.207  -0.380  24.402  0.00  0.00    +0.016 A 
BRANCH   7   6
ATOM      4  C   UNL     1      -2.728  -1.641  24.570  0.00  0.00    +0.246 C 
ATOM      5  O   UNL     1      -3.222  -1.012  24.364  0.00  0.00    -0.273 OA
ATOM      6  N   UNL     1      -1.974  -1.492  24.868  0.00  0.00    -0.179 NA
BRANCH   4   3
ATOM      3  C   UNL     1      -2.989  -2.418  24.476  0.00  0.00    +0.087 C 
BRANCH   3   2
ATOM      1  C   UNL     1      -4.010  -3.344  24.098  0.00  0.00    +0.001 C 
ATOM      2  C   UNL     1      -3.751  -2.567  24.198  0.00  0.00    +0.010 C 
ENDBRANCH   3   2
ENDBRANCH   4   3
ENDBRANCH   7   6
ENDBRANCH  13  10
BRANCH  23  24
ATOM     24  C   UNL     1      -2.101   2.089  24.573  0.00  0.00    +0.205 C 
ATOM     25  O   UNL     1      -2.192   2.280  23.776  0.00  0.00    -0.218 OA
ENDBRANCH  23  24
BRANCH  18  19
ATOM     19  C   UNL     1      -1.580   3.643  24.760  0.00  0.00    +0.094 C 
BRANCH  19  20
ATOM     20  C   UNL     1      -1.800   4.259  25.264  0.00  0.00    +0.020 C 
ATOM     21  C   UNL     1      -1.458   5.004  25.176  0.00  0.00    +0.002 C 
ATOM     22  C   UNL     1      -2.362   4.130  25.854  0.00  0.00    +0.002 C 
ENDBRANCH  19  20
ENDBRANCH  18  19
TORSDOF 7
ENDMDL
MODEL 5
REMARK VINA RESULT:      -8.2      2.604      4.146
REMARK  Name = 
REMARK  7 active torsions:
REMARK  status: ('A' for Active; 'I' for Inactive)
REMARK    1  A    between atoms: C_2  and  C_3
REMARK    2  A    between atoms: C_3  and  C_4
REMARK    3  A    between atoms: N_6  and  C_7
REMARK    4  A    between atoms: C_10  and  C_13
REMARK    5  A    between atoms: N_18  and  C_19
REMARK    6  A    between atoms: C_19  and  C_20
REMARK    7  A    between atoms: C_23  and  C_24
REMARK                            x       y       z     vdW  Elec       q    Type
REMARK                         _______ _______ _______ _____ _____    ______ ____
ROOT
ATOM     13  C   UNL     1      -2.644   2.764  25.048  0.00  0.00    +0.159 C 
ATOM     14  O   UNL     1      -2.702   3.392  25.579  0.00  0.00    -0.341 OA
ATOM     15  C   UNL     1      -3.442   3.697  25.778  0.00  0.00    +0.227 C 
ATOM     16  C   UNL     1      -4.124   3.374  25.445  0.00  0.00    +0.256 C 
ATOM     17  O   UNL     1      -4.865   3.679  25.643  0.00  0.00    -0.272 OA
ATOM     18  N   UNL     1      -4.066   2.746  24.912  0.00  0.00    -0.274 N 
ATOM     23  C   UNL     1      -3.326   2.441  24.714  0.00  0.00    +0.140 C 
ENDROOT
BRANCH  13  10
ATOM      7  C   UNL     1      -0.423   1.846  24.452  0.00  0.00    +0.073 A 
ATOM      8  C   UNL     1      -0.868   1.495  25.052  0.00  0.00    +0.016 A 
ATOM      9  C   UNL     1      -1.607   1.800  25.250  0.00  0.00    -0.001 A 
ATOM     10  C   UNL     1      -1.903   2.459  24.849  0.00  0.00    +0.006 A 
ATOM     11  C   UNL     1      -1.459   2.810  24.249  0.00  0.00    -0.001 A 
ATOM     12  C   UNL     1      -0.719   2.504  24.050  0.00  0.00    +0.016 A 
BRANCH   7   6
ATOM      4  C   UNL     1       0.374   0.909  23.725  0.00  0.00    +0.246 C 
ATOM      5  O   UNL     1      -0.309   0.583  23.396  0.00  0.00    -0.273 OA
ATOM      6  N   UNL     1       0.316   1.540  24.253  0.00  0.00    -0.179 NA
BRANCH   4   3
ATOM      3  C   UNL     1       1.114   0.603  23.527  0.00  0.00    +0.087 C 
BRANCH   3   2
ATOM      1  C   UNL     1       1.932  -0.103  22.592  0.00  0.00    +0.001 C 
ATOM      2  C   UNL     1       1.187   0.076  22.897  0.00  0.00    +0.010 C 
ENDBRANCH   3   2
ENDBRANCH   4   3
ENDBRANCH   7   6
ENDBRANCH  13  10
BRANCH  23  24
ATOM     24  C   UNL     1      -3.268   1.813  24.182  0.00  0.00    +0.205 C 
ATOM     25  O   UNL     1      -3.466   1.925  23.389  0.00  0.00    -0.218 OA
ENDBRANCH  23  24
BRANCH  18  19
ATOM     19  C   UNL     1      -4.747   2.424  24.579  0.00  0.00    +0.094 C 
BRANCH  19  20
ATOM     20  C   UNL     1      -5.307   2.053  25.061  0.00  0.00    +0.020 C 
ATOM     21  C   UNL     1      -6.003   2.447  25.262  0.00  0.00    +0.002 C 
ATOM     22  C   UNL     1      -5.169   1.289  25.340  0.00  0.00    +0.002 C 
ENDBRANCH  19  20
ENDBRANCH  18  19
TORSDOF 7
ENDMDL
