MODEL 1
REMARK VINA RESULT:      -8.2      0.000      0.000
REMARK  Name = 
REMARK  6 active torsions:
REMARK  status: ('A' for Active; 'I' for Inactive)
REMARK    1  A    between atoms: C_3  and  N_17
REMARK    2  A    between atoms: C_6  and  C_7
REMARK    3  A    between atoms: C_7  and  N_8
REMARK    4  A    between atoms: C_9  and  C_11
REMARK    5  A    between atoms: N_17  and  C_18
REMARK    6  A    between atoms: C_18  and  C_19
REMARK                            x       y       z     vdW  Elec       q    Type
REMARK                         _______ _______ _______ _____ _____    ______ ____
ROOT
ATOM      1  O   UNL     1      -3.794   2.391  24.163  0.00  0.00    -0.219 OA
ATOM      2  C   UNL     1      -3.163   1.997  24.520  0.00  0.00    +0.199 C 
ATOM      3  C   UNL     1      -2.462   2.344  24.783  0.00  0.00    +0.136 C 
ATOM      4  C   UNL     1      -1.988   1.749  25.103  0.00  0.00    +0.162 C 
ATOM      5  O   UNL     1      -2.396   1.035  25.037  0.00  0.00    -0.350 OA
ATOM      6  C   UNL     1      -3.122   1.188  24.678  0.00  0.00    +0.169 C 
ENDROOT
BRANCH   6   7
ATOM      7  C   UNL     1      -3.705   0.631  24.505  0.00  0.00    +0.148 C 
BRANCH   7   8
ATOM      8  N   UNL     1      -3.523  -0.173  24.517  0.00  0.00    -0.199 NA
ATOM      9  C   UNL     1      -4.124  -0.734  24.439  0.00  0.00    +0.265 C 
ATOM     10  O   UNL     1      -4.906  -0.489  24.348  0.00  0.00    -0.268 OA
BRANCH   9  11
ATOM     11  C   UNL     1      -3.942  -1.538  24.452  0.00  0.00    +0.058 A 
ATOM     12  C   UNL     1      -4.149  -2.019  23.814  0.00  0.00    +0.025 A 
ATOM     13  C   UNL     1      -3.967  -2.823  23.827  0.00  0.00    +0.099 A 
ATOM     14  N   UNL     1      -3.578  -3.147  24.477  0.00  0.00    -0.242 NA
ATOM     15  C   UNL     1      -3.370  -2.668  25.116  0.00  0.00    +0.099 A 
ATOM     16  C   UNL     1      -3.552  -1.863  25.103  0.00  0.00    +0.025 A 
ENDBRANCH   9  11
ENDBRANCH   7   8
ENDBRANCH   6   7
BRANCH   3  17
ATOM     17  N   UNL     1      -2.269   3.145  24.735  0.00  0.00    -0.206 NA
BRANCH  17  18
ATOM     18  C   UNL     1      -1.654   3.448  25.194  0.00  0.00    +0.154 C 
BRANCH  18  19
ATOM     19  C   UNL     1      -1.411   4.231  25.091  0.00  0.00    +0.157 A 
ATOM     20  N   UNL     1      -1.840   4.903  25.304  0.00  0.00    -0.226 NA
ATOM     21  C   UNL     1      -1.392   5.566  25.103  0.00  0.00    +0.121 A 
ATOM     22  C   UNL     1      -0.685   5.303  24.766  0.00  0.00    +0.121 A 
ATOM     23  N   UNL     1      -0.698   4.477  24.760  0.00  0.00    -0.226 NA
ENDBRANCH  18  19
ENDBRANCH  17  18
ENDBRANCH   3  17
TORSDOF 6
ENDMDL
MODEL 2
REMARK VINA RESULT:      -7.7      1.042      5.951
REMARK  Name = 
REMARK  6 active torsions:
REMARK  status: ('A' for Active; 'I' for Inactive)
REMARK    1  A    between atoms: C_3  and  N_17
REMARK    2  A    between atoms: C_6  and  C_7
REMARK    3  A    between atoms: C_7  and  N_8
REMARK    4  A    between atoms: C_9  and  C_11
REMARK    5  A    between atoms: N_17  and  C_18
REMARK    6  A    between atoms: C_18  and  C_19
REMARK                            x       y       z     vdW  Elec       q    Type
REMARK                         _______ _______ _______ _____ _____    ______ ____
ROOT
ATOM      1  O   UNL     1      -1.157  -0.008  25.195  0.00  0.00    -0.219 OA
ATOM      2  C   UNL     1      -1.867   0.392  25.068  0.00  0.00    +0.199 C 
ATOM      3  C   UNL     1      -2.586   0.048  24.855  0.00  0.00    +0.136 C 
ATOM      4  C   UNL     1      -3.146   0.650  24.786  0.00  0.00    +0.162 C 
ATOM      5  O   UNL     1      -2.773   1.366  24.957  0.00  0.00    -0.350 OA
ATOM      6  C   UNL     1      -1.983   1.207  25.131  0.00  0.00    +0.169 C 
ENDROOT
BRANCH   6   7
ATOM      7  C   UNL     1      -1.409   1.763  25.333  0.00  0.00    +0.148 C 
BRANCH   7   8
ATOM      8  N   UNL     1      -1.535   2.562  25.171  0.00  0.00    -0.199 NA
ATOM      9  C   UNL     1      -1.026   3.132  25.483  0.00  0.00    +0.265 C 
ATOM     10  O   UNL     1      -0.391   2.902  25.957  0.00  0.00    -0.268 OA
BRANCH   9  11
ATOM     11  C   UNL     1      -1.152   3.931  25.321  0.00  0.00    +0.058 A 
ATOM     12  C   UNL     1      -0.602   4.354  24.874  0.00  0.00    +0.025 A 
ATOM     13  C   UNL     1      -0.728   5.153  24.713  0.00  0.00    +0.099 A 
ATOM     14  N   UNL     1      -1.404   5.529  24.997  0.00  0.00    -0.242 NA
ATOM     15  C   UNL     1      -1.954   5.107  25.444  0.00  0.00    +0.099 A 
ATOM     16  C   UNL     1      -1.828   4.308  25.606  0.00  0.00    +0.025 A 
ENDBRANCH   9  11
ENDBRANCH   7   8
ENDBRANCH   6   7
BRANCH   3  17
ATOM     17  N   UNL     1      -2.721  -0.757  24.732  0.00  0.00    -0.206 NA
BRANCH  17  18
ATOM     18  C   UNL     1      -3.492  -1.050  24.735  0.00  0.00    +0.154 C 
BRANCH  18  19
ATOM     19  C   UNL     1      -3.634  -1.837  24.532  0.00  0.00    +0.157 A 
ATOM     20  N   UNL     1      -3.380  -2.500  24.953  0.00  0.00    -0.226 NA
ATOM     21  C   UNL     1      -3.644  -3.172  24.554  0.00  0.00    +0.121 A 
ATOM     22  C   UNL     1      -4.062  -2.925  23.886  0.00  0.00    +0.121 A 
ATOM     23  N   UNL     1      -4.056  -2.099  23.873  0.00  0.00    -0.226 NA
ENDBRANCH  18  19
ENDBRANCH  17  18
ENDBRANCH   3  17
TORSDOF 6
ENDMDL
MODEL 3
REMARK VINA RESULT:      -7.4      1.744      2.040
REMARK  Name = 
REMARK  6 active torsions:
REMARK  status: ('A' for Active; 'I' for Inactive)
REMARK    1  A    between atoms: C_3  and  N_17
REMARK    2  A    between atoms: C_6  and  C_7
REMARK    3  A    between atoms: C_7  and  N_8
REMARK    4  A    between atoms: C_9  and  C_11
REMARK    5  A    between atoms: N_17  and  C_18
REMARK    6  A    between atoms: C_18  and  C_19
REMARK                            x       y       z     vdW  Elec       q    Type
REMARK                         _______ _______ _______ _____ _____    ______ ____
ROOT
ATOM      1  O   UNL     1      -0.706   1.274  25.882  0.00  0.00    -0.219 OA
ATOM      2  C   UNL     1      -0.808   1.261  25.063  0.00  0.00    +0.199 C 
ATOM      3  C   UNL     1      -0.835   1.920  24.568  0.00  0.00    +0.136 C 
ATOM      4  C   UNL     1      -0.944   1.654  23.795  0.00  0.00    +0.162 C 
ATOM      5  O   UNL     1      -0.984   0.830  23.813  0.00  0.00    -0.350 OA
ATOM      6  C   UNL     1      -0.900   0.587  24.596  0.00  0.00    +0.169 C 
ENDROOT
BRANCH   6   7
ATOM      7  C   UNL     1      -0.907  -0.192  24.866  0.00  0.00    +0.148 C 
BRANCH   7   8
ATOM      8  N   UNL     1      -1.580  -0.658  24.762  0.00  0.00    -0.199 NA
ATOM      9  C   UNL     1      -1.568  -1.454  24.980  0.00  0.00    +0.265 C 
ATOM     10  O   UNL     1      -0.884  -1.783  25.303  0.00  0.00    -0.268 OA
BRANCH   9  11
ATOM     11  C   UNL     1      -2.241  -1.920  24.876  0.00  0.00    +0.058 A 
ATOM     12  C   UNL     1      -2.918  -1.773  25.323  0.00  0.00    +0.025 A 
ATOM     13  C   UNL     1      -3.591  -2.239  25.218  0.00  0.00    +0.099 A 
ATOM     14  N   UNL     1      -3.586  -2.853  24.668  0.00  0.00    -0.242 NA
ATOM     15  C   UNL     1      -2.908  -3.001  24.221  0.00  0.00    +0.099 A 
ATOM     16  C   UNL     1      -2.236  -2.535  24.325  0.00  0.00    +0.025 A 
ENDBRANCH   9  11
ENDBRANCH   7   8
ENDBRANCH   6   7
BRANCH   3  17
ATOM     17  N   UNL     1      -0.765   2.708  24.804  0.00  0.00    -0.206 NA
BRANCH  17  18
ATOM     18  C   UNL     1      -1.132   3.303  24.367  0.00  0.00    +0.154 C 
BRANCH  18  19
ATOM     19  C   UNL     1      -1.205   4.062  24.684  0.00  0.00    +0.157 A 
ATOM     20  N   UNL     1      -0.633   4.656  24.654  0.00  0.00    -0.226 NA
ATOM     21  C   UNL     1      -0.936   5.321  25.037  0.00  0.00    +0.121 A 
ATOM     22  C   UNL     1      -1.695   5.138  25.304  0.00  0.00    +0.121 A 
ATOM     23  N   UNL     1      -1.861   4.359  25.085  0.00  0.00    -0.226 NA
ENDBRANCH  18  19
ENDBRANCH  17  18
ENDBRANCH   3  17
TORSDOF 6
ENDMDL
MODEL 4
REMARK VINA RESULT:      -7.1      2.915      4.333
REMARK  Name = 
REMARK  6 active torsions:
REMARK  status: ('A' for Active; 'I' for Inactive)
REMARK    1  A    between atoms: C_3  and  N_17
REMARK    2  A    between atoms: C_6  and  C_7
REMARK    3  A    between atoms: C_7  and  N_8
REMARK    4  A    between atoms: C_9  and  C_11
REMARK    5  A    between atoms: N_17  and  C_18
REMARK    6  A    between atoms: C_18  and  C_19
REMARK                            x       y       z     vdW  Elec       q    Type
REMARK                         _______ _______ _______ _____ _____    ______ ____
ROOT
ATOM      1  O   UNL     1      -0.908   2.605  23.611  0.00  0.00    -0.219 OA
ATOM      2  C   UNL     1      -1.231   1.899  23.889  0.00  0.00    +0.199 C 
ATOM      3  C   UNL     1      -0.838   1.176  23.945  0.00  0.00    +0.136 C 
ATOM      4  C   UNL     1      -1.367   0.622  24.250  0.00  0.00    +0.162 C 
ATOM      5  O   UNL     1      -2.087   1.002  24.383  0.00  0.00    -0.350 OA
ATOM      6  C   UNL     1      -2.003   1.792  24.160  0.00  0.00    +0.169 C 
ENDROOT
BRANCH   6   7
ATOM      7  C   UNL     1      -2.588   2.372  24.200  0.00  0.00    +0.148 C 
BRANCH   7   8
ATOM      8  N   UNL     1      -3.299   2.214  24.586  0.00  0.00    -0.199 NA
ATOM      9  C   UNL     1      -3.928   2.746  24.527  0.00  0.00    +0.265 C 
ATOM     10  O   UNL     1      -3.844   3.435  24.081  0.00  0.00    -0.268 OA
BRANCH   9  11
ATOM     11  C   UNL     1      -4.639   2.588  24.914  0.00  0.00    +0.058 A 
ATOM     12  C   UNL     1      -5.158   2.024  24.610  0.00  0.00    +0.025 A 
ATOM     13  C   UNL     1      -5.869   1.866  24.996  0.00  0.00    +0.099 A 
ATOM     14  N   UNL     1      -6.062   2.273  25.687  0.00  0.00    -0.242 NA
ATOM     15  C   UNL     1      -5.543   2.838  25.992  0.00  0.00    +0.099 A 
ATOM     16  C   UNL     1      -4.832   2.995  25.605  0.00  0.00    +0.025 A 
ENDBRANCH   9  11
ENDBRANCH   7   8
ENDBRANCH   6   7
BRANCH   3  17
ATOM     17  N   UNL     1      -0.054   1.032  23.733  0.00  0.00    -0.206 NA
BRANCH  17  18
ATOM     18  C   UNL     1       0.186   0.268  23.533  0.00  0.00    +0.154 C 
BRANCH  18  19
ATOM     19  C   UNL     1       0.896   0.151  23.130  0.00  0.00    +0.157 A 
ATOM     20  N   UNL     1       0.988  -0.257  22.419  0.00  0.00    -0.226 NA
ATOM     21  C   UNL     1       1.788  -0.239  22.216  0.00  0.00    +0.121 A 
ATOM     22  C   UNL     1       2.190   0.182  22.801  0.00  0.00    +0.121 A 
ATOM     23  N   UNL     1       1.638   0.423  23.366  0.00  0.00    -0.226 NA
ENDBRANCH  18  19
ENDBRANCH  17  18
ENDBRANCH   3  17
TORSDOF 6
ENDMDL
MODEL 5
REMARK VINA RESULT:      -6.6      3.427      3.978
REMARK  Name = 
REMARK  6 active torsions:
REMARK  status: ('A' for Active; 'I' for Inactive)
REMARK    1  A    between atoms: C_3  and  N_17
REMARK    2  A    between atoms: C_6  and  C_7
REMARK    3  A    between atoms: C_7  and  N_8
REMARK    4  A    between atoms: C_9  and  C_11
REMARK    5  A    between atoms: N_17  and  C_18
REMARK    6  A    between atoms: C_18  and  C_19
REMARK                            x       y       z     vdW  Elec       q    Type
REMARK                         _______ _______ _______ _____ _____    ______ ____
ROOT
ATOM      1  O   UNL     1       0.238  -1.152  24.373  0.00  0.00    -0.219 OA
ATOM      2  C   UNL     1      -0.055  -0.413  24.153  0.00  0.00    +0.199 C 
ATOM      3  C   UNL     1       0.329   0.138  23.675  0.00  0.00    +0.136 C 
ATOM      4  C   UNL     1      -0.161   0.796  23.599  0.00  0.00    +0.162 C 
ATOM      5  O   UNL     1      -0.849   0.653  24.032  0.00  0.00    -0.350 OA
ATOM      6  C   UNL     1      -0.783  -0.094  24.374  0.00  0.00    +0.169 C 
ENDROOT
BRANCH   6   7
ATOM      7  C   UNL     1      -1.347  -0.460  24.853  0.00  0.00    +0.148 C 
BRANCH   7   8
ATOM      8  N   UNL     1      -1.958  -0.895  24.512  0.00  0.00    -0.199 NA
ATOM      9  C   UNL     1      -2.588  -1.158  24.976  0.00  0.00    +0.265 C 
ATOM     10  O   UNL     1      -2.605  -0.984  25.783  0.00  0.00    -0.268 OA
BRANCH   9  11
ATOM     11  C   UNL     1      -3.199  -1.593  24.635  0.00  0.00    +0.058 A 
ATOM     12  C   UNL     1      -3.197  -2.417  24.684  0.00  0.00    +0.025 A 
ATOM     13  C   UNL     1      -3.808  -2.853  24.343  0.00  0.00    +0.099 A 
ATOM     14  N   UNL     1      -4.422  -2.465  23.952  0.00  0.00    -0.242 NA
ATOM     15  C   UNL     1      -4.425  -1.641  23.902  0.00  0.00    +0.099 A 
ATOM     16  C   UNL     1      -3.814  -1.205  24.243  0.00  0.00    +0.025 A 
ENDBRANCH   9  11
ENDBRANCH   7   8
ENDBRANCH   6   7
BRANCH   3  17
ATOM     17  N   UNL     1       1.074   0.046  23.331  0.00  0.00    -0.206 NA
BRANCH  17  18
ATOM     18  C   UNL     1       1.542   0.709  23.180  0.00  0.00    +0.154 C 
BRANCH  18  19
ATOM     19  C   UNL     1       2.316   0.613  22.907  0.00  0.00    +0.157 A 
ATOM     20  N   UNL     1       2.562   0.087  22.320  0.00  0.00    -0.226 NA
ATOM     21  C   UNL     1       3.376   0.176  22.224  0.00  0.00    +0.121 A 
ATOM     22  C   UNL     1       3.634   0.756  22.752  0.00  0.00    +0.121 A 
ATOM     23  N   UNL     1       2.978   1.026  23.174  0.00  0.00    -0.226 NA
ENDBRANCH  18  19
ENDBRANCH  17  18
ENDBRANCH   3  17
TORSDOF 6
ENDMDL
MODEL 6
REMARK VINA RESULT:      -5.8     14.067     14.809
REMARK  Name = 
REMARK  6 active torsions:
REMARK  status: ('A' for Active; 'I' for Inactive)
REMARK    1  A    between atoms: C_3  and  N_17
REMARK    2  A    between atoms: C_6  and  C_7
REMARK    3  A    between atoms: C_7  and  N_8
REMARK    4  A    between atoms: C_9  and  C_11
REMARK    5  A    between atoms: N_17  and  C_18
REMARK    6  A    between atoms: C_18  and  C_19
REMARK                            x       y       z     vdW  Elec       q    Type
REMARK                         _______ _______ _______ _____ _____    ______ ____
ROOT
ATOM      1  O   UNL     1      -5.992 -10.267  17.873  0.00  0.00    -0.219 OA
ATOM      2  C   UNL     1      -6.011 -10.043  17.079  0.00  0.00    +0.199 C 
ATOM      3  C   UNL     1      -6.664  -9.741  16.676  0.00  0.00    +0.136 C 
ATOM      4  C   UNL     1      -6.437  -9.593  15.897  0.00  0.00    +0.162 C 
ATOM      5  O   UNL     1      -5.643  -9.804  15.819  0.00  0.00    -0.350 OA
ATOM      6  C   UNL     1      -5.380 -10.082  16.549  0.00  0.00    +0.169 C 
ENDROOT
BRANCH   6   7
ATOM      7  C   UNL     1      -4.619 -10.351  16.720  0.00  0.00    +0.148 C 
BRANCH   7   8
ATOM      8  N   UNL     1      -4.044 -10.364  16.128  0.00  0.00    -0.199 NA
ATOM      9  C   UNL     1      -3.269 -10.579  16.312  0.00  0.00    +0.265 C 
ATOM     10  O   UNL     1      -3.069 -10.781  17.086  0.00  0.00    -0.268 OA
BRANCH   9  11
ATOM     11  C   UNL     1      -2.694 -10.593  15.720  0.00  0.00    +0.058 A 
ATOM     12  C   UNL     1      -1.903 -10.455  15.910  0.00  0.00    +0.025 A 
ATOM     13  C   UNL     1      -1.328 -10.468  15.319  0.00  0.00    +0.099 A 
ATOM     14  N   UNL     1      -1.544 -10.620  14.538  0.00  0.00    -0.242 NA
ATOM     15  C   UNL     1      -2.335 -10.758  14.347  0.00  0.00    +0.099 A 
ATOM     16  C   UNL     1      -2.910 -10.744  14.938  0.00  0.00    +0.025 A 
ENDBRANCH   9  11
ENDBRANCH   7   8
ENDBRANCH   6   7
BRANCH   3  17
ATOM     17  N   UNL     1      -7.414  -9.610  16.996  0.00  0.00    -0.206 NA
BRANCH  17  18
ATOM     18  C   UNL     1      -7.972  -9.175  16.573  0.00  0.00    +0.154 C 
BRANCH  18  19
ATOM     19  C   UNL     1      -8.712  -9.019  16.905  0.00  0.00    +0.157 A 
ATOM     20  N   UNL     1      -9.306  -9.574  17.046  0.00  0.00    -0.226 NA
ATOM     21  C   UNL     1      -9.948  -9.180  17.382  0.00  0.00    +0.121 A 
ATOM     22  C   UNL     1      -9.751  -8.382  17.448  0.00  0.00    +0.121 A 
ATOM     23  N   UNL     1      -8.986  -8.283  17.153  0.00  0.00    -0.226 NA
ENDBRANCH  18  19
ENDBRANCH  17  18
ENDBRANCH   3  17
TORSDOF 6
ENDMDL
MODEL 7
REMARK VINA RESULT:      -5.4     13.703     15.682
REMARK  Name = 
REMARK  6 active torsions:
REMARK  status: ('A' for Active; 'I' for Inactive)
REMARK    1  A    between atoms: C_3  and  N_17
REMARK    2  A    between atoms: C_6  and  C_7
REMARK    3  A    between atoms: C_7  and  N_8
REMARK    4  A    between atoms: C_9  and  C_11
REMARK    5  A    between atoms: N_17  and  C_18
REMARK    6  A    between atoms: C_18  and  C_19
REMARK                            x       y       z     vdW  Elec       q    Type
REMARK                         _______ _______ _______ _____ _____    ______ ____
ROOT
ATOM      1  O   UNL     1      -3.118 -10.667  16.780  0.00  0.00    -0.219 OA
ATOM      2  C   UNL     1      -3.758 -10.706  16.260  0.00  0.00    +0.199 C 
ATOM      3  C   UNL     1      -4.555 -10.707  16.472  0.00  0.00    +0.136 C 
ATOM      4  C   UNL     1      -5.002 -10.753  15.780  0.00  0.00    +0.162 C 
ATOM      5  O   UNL     1      -4.481 -10.781  15.141  0.00  0.00    -0.350 OA
ATOM      6  C   UNL     1      -3.712 -10.753  15.437  0.00  0.00    +0.169 C 
ENDROOT
BRANCH   6   7
ATOM      7  C   UNL     1      -3.020 -10.768  14.990  0.00  0.00    +0.148 C 
BRANCH   7   8
ATOM      8  N   UNL     1      -3.051 -10.637  14.177  0.00  0.00    -0.199 NA
ATOM      9  C   UNL     1      -2.355 -10.625  13.733  0.00  0.00    +0.265 C 
ATOM     10  O   UNL     1      -1.628 -10.744  14.104  0.00  0.00    -0.268 OA
BRANCH   9  11
ATOM     11  C   UNL     1      -2.387 -10.495  12.919  0.00  0.00    +0.058 A 
ATOM     12  C   UNL     1      -3.042 -10.746  12.486  0.00  0.00    +0.025 A 
ATOM     13  C   UNL     1      -3.074 -10.616  11.672  0.00  0.00    +0.099 A 
ATOM     14  N   UNL     1      -2.450 -10.233  11.291  0.00  0.00    -0.242 NA
ATOM     15  C   UNL     1      -1.794  -9.981  11.724  0.00  0.00    +0.099 A 
ATOM     16  C   UNL     1      -1.763 -10.112  12.538  0.00  0.00    +0.025 A 
ENDBRANCH   9  11
ENDBRANCH   7   8
ENDBRANCH   6   7
BRANCH   3  17
ATOM     17  N   UNL     1      -4.853 -10.667  17.240  0.00  0.00    -0.206 NA
BRANCH  17  18
ATOM     18  C   UNL     1      -5.656 -10.525  17.364  0.00  0.00    +0.154 C 
BRANCH  18  19
ATOM     19  C   UNL     1      -5.962 -10.530  18.131  0.00  0.00    +0.157 A 
ATOM     20  N   UNL     1      -6.761 -10.573  18.334  0.00  0.00    -0.226 NA
ATOM     21  C   UNL     1      -6.815 -10.562  19.157  0.00  0.00    +0.121 A 
ATOM     22  C   UNL     1      -6.050 -10.512  19.463  0.00  0.00    +0.121 A 
ATOM     23  N   UNL     1      -5.523 -10.492  18.828  0.00  0.00    -0.226 NA
ENDBRANCH  18  19
ENDBRANCH  17  18
ENDBRANCH   3  17
TORSDOF 6
ENDMDL
MODEL 8
REMARK VINA RESULT:      -5.4     15.235     17.279
REMARK  Name = 
REMARK  6 active torsions:
REMARK  status: ('A' for Active; 'I' for Inactive)
REMARK    1  A    between atoms: C_3  and  N_17
REMARK    2  A    between atoms: C_6  and  C_7
REMARK    3  A    between atoms: C_7  and  N_8
REMARK    4  A    between atoms: C_9  and  C_11
REMARK    5  A    between atoms: N_17  and  C_18
REMARK    6  A    between atoms: C_18  and  C_19
REMARK                            x       y       z     vdW  Elec       q    Type
REMARK                         _______ _______ _______ _____ _____    ______ ____
ROOT
ATOM      1  O   UNL     1      -1.817 -10.329  12.024  0.00  0.00    -0.219 OA
ATOM      2  C   UNL     1      -2.573 -10.430  12.341  0.00  0.00    +0.199 C 
ATOM      3  C   UNL     1      -2.751 -10.579  13.132  0.00  0.00    +0.136 C 
ATOM      4  C   UNL     1      -3.570 -10.640  13.201  0.00  0.00    +0.162 C 
ATOM      5  O   UNL     1      -3.899 -10.529  12.452  0.00  0.00    -0.350 OA
ATOM      6  C   UNL     1      -3.282 -10.399  11.920  0.00  0.00    +0.169 C 
ENDROOT
BRANCH   6   7
ATOM      7  C   UNL     1      -3.361 -10.262  11.111  0.00  0.00    +0.148 C 
BRANCH   7   8
ATOM      8  N   UNL     1      -4.016  -9.849  10.825  0.00  0.00    -0.199 NA
ATOM      9  C   UNL     1      -4.122  -9.757  10.011  0.00  0.00    +0.265 C 
ATOM     10  O   UNL     1      -3.573 -10.078   9.485  0.00  0.00    -0.268 OA
BRANCH   9  11
ATOM     11  C   UNL     1      -4.776  -9.345   9.725  0.00  0.00    +0.058 A 
ATOM     12  C   UNL     1      -5.353  -9.739   9.287  0.00  0.00    +0.025 A 
ATOM     13  C   UNL     1      -6.008  -9.327   9.000  0.00  0.00    +0.099 A 
ATOM     14  N   UNL     1      -6.085  -8.521   9.152  0.00  0.00    -0.242 NA
ATOM     15  C   UNL     1      -5.509  -8.125   9.590  0.00  0.00    +0.099 A 
ATOM     16  C   UNL     1      -4.854  -8.537   9.876  0.00  0.00    +0.025 A 
ENDBRANCH   9  11
ENDBRANCH   7   8
ENDBRANCH   6   7
BRANCH   3  17
ATOM     17  N   UNL     1      -2.205 -10.654  13.746  0.00  0.00    -0.206 NA
BRANCH  17  18
ATOM     18  C   UNL     1      -2.286 -10.196  14.427  0.00  0.00    +0.154 C 
BRANCH  18  19
ATOM     19  C   UNL     1      -1.797 -10.334  15.078  0.00  0.00    +0.157 A 
ATOM     20  N   UNL     1      -1.991 -10.780  15.745  0.00  0.00    -0.226 NA
ATOM     21  C   UNL     1      -1.342 -10.772  16.254  0.00  0.00    +0.121 A 
ATOM     22  C   UNL     1      -0.747 -10.321  15.902  0.00  0.00    +0.121 A 
ATOM     23  N   UNL     1      -1.028 -10.050  15.175  0.00  0.00    -0.226 NA
ENDBRANCH  18  19
ENDBRANCH  17  18
ENDBRANCH   3  17
TORSDOF 6
ENDMDL
MODEL 9
REMARK VINA RESULT:      -5.3     14.285     16.371
REMARK  Name = 
REMARK  6 active torsions:
REMARK  status: ('A' for Active; 'I' for Inactive)
REMARK    1  A    between atoms: C_3  and  N_17
REMARK    2  A    between atoms: C_6  and  C_7
REMARK    3  A    between atoms: C_7  and  N_8
REMARK    4  A    between atoms: C_9  and  C_11
REMARK    5  A    between atoms: N_17  and  C_18
REMARK    6  A    between atoms: C_18  and  C_19
REMARK                            x       y       z     vdW  Elec       q    Type
REMARK                         _______ _______ _______ _____ _____    ______ ____
ROOT
ATOM      1  O   UNL     1      -6.811 -10.067  13.626  0.00  0.00    -0.219 OA
ATOM      2  C   UNL     1      -6.074 -10.154  13.987  0.00  0.00    +0.199 C 
ATOM      3  C   UNL     1      -5.919 -10.087  14.795  0.00  0.00    +0.136 C 
ATOM      4  C   UNL     1      -5.113 -10.215  14.911  0.00  0.00    +0.162 C 
ATOM      5  O   UNL     1      -4.769 -10.361  14.175  0.00  0.00    -0.350 OA
ATOM      6  C   UNL     1      -5.363 -10.323  13.604  0.00  0.00    +0.169 C 
ENDROOT
BRANCH   6   7
ATOM      7  C   UNL     1      -5.264 -10.435  12.793  0.00  0.00    +0.148 C 
BRANCH   7   8
ATOM      8  N   UNL     1      -4.599 -10.130  12.413  0.00  0.00    -0.199 NA
ATOM      9  C   UNL     1      -4.469 -10.292  11.615  0.00  0.00    +0.265 C 
ATOM     10  O   UNL     1      -5.005 -10.759  11.197  0.00  0.00    -0.268 OA
BRANCH   9  11
ATOM     11  C   UNL     1      -3.804  -9.986  11.235  0.00  0.00    +0.058 A 
ATOM     12  C   UNL     1      -3.892  -9.440  10.622  0.00  0.00    +0.025 A 
ATOM     13  C   UNL     1      -3.226  -9.135  10.242  0.00  0.00    +0.099 A 
ATOM     14  N   UNL     1      -2.473  -9.375  10.475  0.00  0.00    -0.242 NA
ATOM     15  C   UNL     1      -2.383  -9.921  11.087  0.00  0.00    +0.099 A 
ATOM     16  C   UNL     1      -3.049 -10.226  11.467  0.00  0.00    +0.025 A 
ENDBRANCH   9  11
ENDBRANCH   7   8
ENDBRANCH   6   7
BRANCH   3  17
ATOM     17  N   UNL     1      -6.474  -9.921  15.383  0.00  0.00    -0.206 NA
BRANCH  17  18
ATOM     18  C   UNL     1      -6.227  -9.802  16.160  0.00  0.00    +0.154 C 
BRANCH  18  19
ATOM     19  C   UNL     1      -6.785  -9.714  16.762  0.00  0.00    +0.157 A 
ATOM     20  N   UNL     1      -6.815 -10.149  17.463  0.00  0.00    -0.226 NA
ATOM     21  C   UNL     1      -7.460  -9.881  17.902  0.00  0.00    +0.121 A 
ATOM     22  C   UNL     1      -7.828  -9.280  17.473  0.00  0.00    +0.121 A 
ATOM     23  N   UNL     1      -7.411  -9.177  16.768  0.00  0.00    -0.226 NA
ENDBRANCH  18  19
ENDBRANCH  17  18
ENDBRANCH   3  17
TORSDOF 6
ENDMDL
MODEL 10
REMARK VINA RESULT:      -5.2     14.179     14.809
REMARK  Name = 
REMARK  6 active torsions:
REMARK  status: ('A' for Active; 'I' for Inactive)
REMARK    1  A    between atoms: C_3  and  N_17
REMARK    2  A    between atoms: C_6  and  C_7
REMARK    3  A    between atoms: C_7  and  N_8
REMARK    4  A    between atoms: C_9  and  C_11
REMARK    5  A    between atoms: N_17  and  C_18
REMARK    6  A    between atoms: C_18  and  C_19
REMARK                            x       y       z     vdW  Elec       q    Type
REMARK                         _______ _______ _______ _____ _____    ______ ____
ROOT
ATOM      1  O   UNL     1      -5.152 -10.582  14.849  0.00  0.00    -0.219 OA
ATOM      2  C   UNL     1      -5.133 -10.497  15.669  0.00  0.00    +0.199 C 
ATOM      3  C   UNL     1      -4.460 -10.534  16.145  0.00  0.00    +0.136 C 
ATOM      4  C   UNL     1      -4.695 -10.420  16.927  0.00  0.00    +0.162 C 
ATOM      5  O   UNL     1      -5.513 -10.313  16.935  0.00  0.00    -0.350 OA
ATOM      6  C   UNL     1      -5.784 -10.361  16.158  0.00  0.00    +0.169 C 
ENDROOT
BRANCH   6   7
ATOM      7  C   UNL     1      -6.567 -10.285  15.912  0.00  0.00    +0.148 C 
BRANCH   7   8
ATOM      8  N   UNL     1      -7.131  -9.966  16.423  0.00  0.00    -0.199 NA
ATOM      9  C   UNL     1      -7.921  -9.920  16.189  0.00  0.00    +0.265 C 
ATOM     10  O   UNL     1      -8.147 -10.194  15.444  0.00  0.00    -0.268 OA
BRANCH   9  11
ATOM     11  C   UNL     1      -8.484  -9.600  16.700  0.00  0.00    +0.058 A 
ATOM     12  C   UNL     1      -8.605  -8.785  16.723  0.00  0.00    +0.025 A 
ATOM     13  C   UNL     1      -9.169  -8.465  17.234  0.00  0.00    +0.099 A 
ATOM     14  N   UNL     1      -9.611  -8.961  17.721  0.00  0.00    -0.242 NA
ATOM     15  C   UNL     1      -9.491  -9.777  17.699  0.00  0.00    +0.099 A 
ATOM     16  C   UNL     1      -8.928 -10.097  17.188  0.00  0.00    +0.025 A 
ENDBRANCH   9  11
ENDBRANCH   7   8
ENDBRANCH   6   7
BRANCH   3  17
ATOM     17  N   UNL     1      -3.688 -10.662  15.884  0.00  0.00    -0.206 NA
BRANCH  17  18
ATOM     18  C   UNL     1      -3.055 -10.323  16.289  0.00  0.00    +0.154 C 
BRANCH  18  19
ATOM     19  C   UNL     1      -2.288 -10.401  15.995  0.00  0.00    +0.157 A 
ATOM     20  N   UNL     1      -1.658 -10.777  16.374  0.00  0.00    -0.226 NA
ATOM     21  C   UNL     1      -0.997 -10.725  15.883  0.00  0.00    +0.121 A 
ATOM     22  C   UNL     1      -1.218 -10.317  15.200  0.00  0.00    +0.121 A 
ATOM     23  N   UNL     1      -2.016 -10.117  15.270  0.00  0.00    -0.226 NA
ENDBRANCH  18  19
ENDBRANCH  17  18
ENDBRANCH   3  17
TORSDOF 6
ENDMDL
