MODEL 1
REMARK VINA RESULT:     -11.4      0.000      0.000
REMARK  Name = 
REMARK  4 active torsions:
REMARK  status: ('A' for Active; 'I' for Inactive)
REMARK    1  A    between atoms: C_2  and  C_5
REMARK    2  A    between atoms: N_7  and  C_8
REMARK    3  A    between atoms: C_8  and  C_9
REMARK    4  A    between atoms: C_16  and  C_17
REMARK                            x       y       z     vdW  Elec       q    Type
REMARK                         _______ _______ _______ _____ _____    ______ ____
ROOT
ATOM      9  C   UNL     1      -2.622   0.935  24.871  0.00  0.00    +0.082 C 
ATOM     10  C   UNL     1      -3.166   1.431  24.620  0.00  0.00    +0.019 C 
ATOM     11  C   UNL     1      -3.158   2.234  24.728  0.00  0.00    +0.013 C 
ATOM     12  C   UNL     1      -3.876   2.627  24.364  0.00  0.00    +0.018 C 
ATOM     13  C   UNL     1      -3.489   2.126  24.523  0.00  0.00    +0.072 C 
ATOM     14  N   UNL     1      -2.621   1.753  24.977  0.00  0.00    -0.272 NA
ATOM     15  C   UNL     1      -2.031   2.314  25.391  0.00  0.00    +0.081 C 
ATOM     16  C   UNL     1      -2.587   2.767  25.128  0.00  0.00    +0.093 C 
ENDROOT
BRANCH  16  17
ATOM     17  C   UNL     1      -2.639   3.588  25.203  0.00  0.00    +0.227 C 
ATOM     18  O   UNL     1      -3.363   3.939  25.385  0.00  0.00    -0.275 OA
ATOM     19  N   UNL     1      -1.968   4.055  25.098  0.00  0.00    -0.274 N 
ATOM     20  C   UNL     1      -2.021   4.875  25.174  0.00  0.00    +0.125 C 
ATOM     21  C   UNL     1      -1.349   5.342  25.068  0.00  0.00    +0.164 C 
ATOM     22  O   UNL     1      -0.625   4.990  24.887  0.00  0.00    -0.350 OA
ATOM     23  C   UNL     1      -0.572   4.170  24.811  0.00  0.00    +0.164 C 
ATOM     24  C   UNL     1      -1.244   3.703  24.917  0.00  0.00    +0.125 C 
ENDBRANCH  16  17
BRANCH   9   8
ATOM      8  C   UNL     1      -2.299   0.181  24.960  0.00  0.00    +0.145 C 
BRANCH   8   7
ATOM      5  C   UNL     1      -3.446  -1.601  24.710  0.00  0.00    +0.100 A 
ATOM      6  C   UNL     1      -2.907  -1.044  24.426  0.00  0.00    +0.113 A 
ATOM      7  N   UNL     1      -2.794  -0.477  25.012  0.00  0.00    -0.229 N 
ATOM     25  N   UNL     1      -3.263  -0.681  25.660  0.00  0.00    -0.064 NA
ATOM     26  N   UNL     1      -3.666  -1.377  25.473  0.00  0.00    -0.133 NA
BRANCH   5   2
ATOM      1  C   UNL     1      -3.990  -2.930  23.897  0.00  0.00    +0.006 C 
ATOM      2  C   UNL     1      -3.718  -2.266  24.304  0.00  0.00    +0.039 C 
ATOM      3  C   UNL     1      -3.136  -2.725  24.665  0.00  0.00    +0.006 C 
ATOM      4  C   UNL     1      -4.301  -1.807  23.942  0.00  0.00    +0.006 C 
ENDBRANCH   5   2
ENDBRANCH   8   7
ENDBRANCH   9   8
TORSDOF 4
ENDMDL
MODEL 2
REMARK VINA RESULT:     -11.2      0.864      1.496
REMARK  Name = 
REMARK  4 active torsions:
REMARK  status: ('A' for Active; 'I' for Inactive)
REMARK    1  A    between atoms: C_2  and  C_5
REMARK    2  A    between atoms: N_7  and  C_8
REMARK    3  A    between atoms: C_8  and  C_9
REMARK    4  A    between atoms: C_16  and  C_17
REMARK                            x       y       z     vdW  Elec       q    Type
REMARK                         _______ _______ _______ _____ _____    ______ ____
ROOT
ATOM      9  C   UNL     1      -2.753   0.905  24.882  0.00  0.00    +0.082 C 
ATOM     10  C   UNL     1      -1.990   0.904  25.032  0.00  0.00    +0.019 C 
ATOM     11  C   UNL     1      -1.489   1.533  24.934  0.00  0.00    +0.013 C 
ATOM     12  C   UNL     1      -0.647   1.327  25.163  0.00  0.00    +0.018 C 
ATOM     13  C   UNL     1      -1.284   1.213  25.074  0.00  0.00    +0.072 C 
ATOM     14  N   UNL     1      -2.237   1.542  24.785  0.00  0.00    -0.272 NA
ATOM     15  C   UNL     1      -2.369   2.396  24.494  0.00  0.00    +0.081 C 
ATOM     16  C   UNL     1      -1.623   2.353  24.653  0.00  0.00    +0.093 C 
ENDROOT
BRANCH  16  17
ATOM     17  C   UNL     1      -1.061   2.953  24.577  0.00  0.00    +0.227 C 
ATOM     18  O   UNL     1      -0.322   2.785  24.250  0.00  0.00    -0.275 OA
ATOM     19  N   UNL     1      -1.238   3.718  24.827  0.00  0.00    -0.274 N 
ATOM     20  C   UNL     1      -0.676   4.317  24.751  0.00  0.00    +0.125 C 
ATOM     21  C   UNL     1      -0.854   5.083  25.001  0.00  0.00    +0.164 C 
ATOM     22  O   UNL     1      -1.593   5.250  25.327  0.00  0.00    -0.350 OA
ATOM     23  C   UNL     1      -2.155   4.651  25.404  0.00  0.00    +0.164 C 
ATOM     24  C   UNL     1      -1.977   3.885  25.154  0.00  0.00    +0.125 C 
ENDBRANCH  16  17
BRANCH   9   8
ATOM      8  C   UNL     1      -3.497   0.550  24.847  0.00  0.00    +0.145 C 
BRANCH   8   7
ATOM      5  C   UNL     1      -3.696  -1.573  24.752  0.00  0.00    +0.100 A 
ATOM      6  C   UNL     1      -3.628  -0.838  24.383  0.00  0.00    +0.113 A 
ATOM      7  N   UNL     1      -3.572  -0.262  24.970  0.00  0.00    -0.229 N 
ATOM     25  N   UNL     1      -3.605  -0.641  25.702  0.00  0.00    -0.064 NA
ATOM     26  N   UNL     1      -3.682  -1.451  25.567  0.00  0.00    -0.133 NA
BRANCH   5   2
ATOM      1  C   UNL     1      -3.834  -3.031  23.993  0.00  0.00    +0.006 C 
ATOM      2  C   UNL     1      -3.765  -2.302  24.372  0.00  0.00    +0.039 C 
ATOM      3  C   UNL     1      -4.298  -1.972  23.835  0.00  0.00    +0.006 C 
ATOM      4  C   UNL     1      -3.233  -2.633  24.908  0.00  0.00    +0.006 C 
ENDBRANCH   5   2
ENDBRANCH   8   7
ENDBRANCH   9   8
TORSDOF 4
ENDMDL
MODEL 3
REMARK VINA RESULT:     -11.0      1.997      5.069
REMARK  Name = 
REMARK  4 active torsions:
REMARK  status: ('A' for Active; 'I' for Inactive)
REMARK    1  A    between atoms: C_2  and  C_5
REMARK    2  A    between atoms: N_7  and  C_8
REMARK    3  A    between atoms: C_8  and  C_9
REMARK    4  A    between atoms: C_16  and  C_17
REMARK                            x       y       z     vdW  Elec       q    Type
REMARK                         _______ _______ _______ _____ _____    ______ ____
ROOT
ATOM      9  C   UNL     1      -3.866   1.796  24.267  0.00  0.00    +0.082 C 
ATOM     10  C   UNL     1      -4.282   1.317  24.718  0.00  0.00    +0.019 C 
ATOM     11  C   UNL     1      -4.235   0.509  24.717  0.00  0.00    +0.013 C 
ATOM     12  C   UNL     1      -4.797   0.141  25.310  0.00  0.00    +0.018 C 
ATOM     13  C   UNL     1      -4.509   0.630  24.988  0.00  0.00    +0.072 C 
ATOM     14  N   UNL     1      -3.823   0.972  24.272  0.00  0.00    -0.272 NA
ATOM     15  C   UNL     1      -3.317   0.384  23.792  0.00  0.00    +0.081 C 
ATOM     16  C   UNL     1      -3.744  -0.051  24.252  0.00  0.00    +0.093 C 
ENDROOT
BRANCH  16  17
ATOM     17  C   UNL     1      -3.744  -0.875  24.301  0.00  0.00    +0.227 C 
ATOM     18  O   UNL     1      -4.454  -1.291  24.238  0.00  0.00    -0.275 OA
ATOM     19  N   UNL     1      -3.036  -1.281  24.413  0.00  0.00    -0.274 N 
ATOM     20  C   UNL     1      -3.037  -2.105  24.462  0.00  0.00    +0.125 C 
ATOM     21  C   UNL     1      -2.327  -2.512  24.574  0.00  0.00    +0.164 C 
ATOM     22  O   UNL     1      -1.618  -2.095  24.637  0.00  0.00    -0.350 OA
ATOM     23  C   UNL     1      -1.617  -1.272  24.588  0.00  0.00    +0.164 C 
ATOM     24  C   UNL     1      -2.326  -0.865  24.476  0.00  0.00    +0.125 C 
ENDBRANCH  16  17
BRANCH   9   8
ATOM      8  C   UNL     1      -3.643   2.542  23.996  0.00  0.00    +0.145 C 
BRANCH   8   7
ATOM      5  C   UNL     1      -2.279   3.793  25.060  0.00  0.00    +0.100 A 
ATOM      6  C   UNL     1      -2.444   3.259  24.452  0.00  0.00    +0.113 A 
ATOM      7  N   UNL     1      -3.243   3.061  24.497  0.00  0.00    -0.229 N 
ATOM     25  N   UNL     1      -3.573   3.472  25.132  0.00  0.00    -0.064 NA
ATOM     26  N   UNL     1      -2.976   3.925  25.480  0.00  0.00    -0.133 NA
BRANCH   5   2
ATOM      1  C   UNL     1      -0.811   4.477  25.378  0.00  0.00    +0.006 C 
ATOM      2  C   UNL     1      -1.545   4.135  25.219  0.00  0.00    +0.039 C 
ATOM      3  C   UNL     1      -1.849   4.877  25.024  0.00  0.00    +0.006 C 
ATOM      4  C   UNL     1      -1.241   3.393  25.413  0.00  0.00    +0.006 C 
ENDBRANCH   5   2
ENDBRANCH   8   7
ENDBRANCH   9   8
TORSDOF 4
ENDMDL
MODEL 4
REMARK VINA RESULT:     -10.9      2.448      4.893
REMARK  Name = 
REMARK  4 active torsions:
REMARK  status: ('A' for Active; 'I' for Inactive)
REMARK    1  A    between atoms: C_2  and  C_5
REMARK    2  A    between atoms: N_7  and  C_8
REMARK    3  A    between atoms: C_8  and  C_9
REMARK    4  A    between atoms: C_16  and  C_17
REMARK                            x       y       z     vdW  Elec       q    Type
REMARK                         _______ _______ _______ _____ _____    ______ ____
ROOT
ATOM      9  C   UNL     1      -4.533   0.097  25.118  0.00  0.00    +0.082 C 
ATOM     10  C   UNL     1      -4.503  -0.426  24.544  0.00  0.00    +0.019 C 
ATOM     11  C   UNL     1      -3.957  -1.020  24.475  0.00  0.00    +0.013 C 
ATOM     12  C   UNL     1      -4.094  -1.517  23.741  0.00  0.00    +0.018 C 
ATOM     13  C   UNL     1      -4.215  -1.034  24.164  0.00  0.00    +0.072 C 
ATOM     14  N   UNL     1      -3.980  -0.511  25.041  0.00  0.00    -0.272 NA
ATOM     15  C   UNL     1      -3.271  -0.760  25.559  0.00  0.00    +0.081 C 
ATOM     16  C   UNL     1      -3.276  -1.255  24.977  0.00  0.00    +0.093 C 
ENDROOT
BRANCH  16  17
ATOM     17  C   UNL     1      -2.752  -1.879  24.848  0.00  0.00    +0.227 C 
ATOM     18  O   UNL     1      -3.039  -2.616  24.614  0.00  0.00    -0.275 OA
ATOM     19  N   UNL     1      -1.943  -1.765  24.954  0.00  0.00    -0.274 N 
ATOM     20  C   UNL     1      -1.418  -2.390  24.825  0.00  0.00    +0.125 C 
ATOM     21  C   UNL     1      -0.608  -2.276  24.931  0.00  0.00    +0.164 C 
ATOM     22  O   UNL     1      -0.322  -1.539  25.165  0.00  0.00    -0.350 OA
ATOM     23  C   UNL     1      -0.845  -0.915  25.294  0.00  0.00    +0.164 C 
ATOM     24  C   UNL     1      -1.656  -1.028  25.189  0.00  0.00    +0.125 C 
ENDBRANCH  16  17
BRANCH   9   8
ATOM      8  C   UNL     1      -4.861   0.749  25.503  0.00  0.00    +0.145 C 
BRANCH   8   7
ATOM      5  C   UNL     1      -4.506   2.706  24.728  0.00  0.00    +0.100 A 
ATOM      6  C   UNL     1      -4.272   2.056  25.180  0.00  0.00    +0.113 A 
ATOM      7  N   UNL     1      -4.866   1.486  25.134  0.00  0.00    -0.229 N 
ATOM     25  N   UNL     1      -5.468   1.784  24.654  0.00  0.00    -0.064 NA
ATOM     26  N   UNL     1      -5.245   2.537  24.403  0.00  0.00    -0.133 NA
BRANCH   5   2
ATOM      1  C   UNL     1      -3.646   4.098  24.512  0.00  0.00    +0.006 C 
ATOM      2  C   UNL     1      -4.076   3.402  24.621  0.00  0.00    +0.039 C 
ATOM      3  C   UNL     1      -4.276   3.643  25.384  0.00  0.00    +0.006 C 
ATOM      4  C   UNL     1      -3.876   3.161  23.857  0.00  0.00    +0.006 C 
ENDBRANCH   5   2
ENDBRANCH   8   7
ENDBRANCH   9   8
TORSDOF 4
ENDMDL
MODEL 5
REMARK VINA RESULT:     -10.7      2.288      5.446
REMARK  Name = 
REMARK  4 active torsions:
REMARK  status: ('A' for Active; 'I' for Inactive)
REMARK    1  A    between atoms: C_2  and  C_5
REMARK    2  A    between atoms: N_7  and  C_8
REMARK    3  A    between atoms: C_8  and  C_9
REMARK    4  A    between atoms: C_16  and  C_17
REMARK                            x       y       z     vdW  Elec       q    Type
REMARK                         _______ _______ _______ _____ _____    ______ ____
ROOT
ATOM      9  C   UNL     1      -0.874   0.861  24.731  0.00  0.00    +0.082 C 
ATOM     10  C   UNL     1      -0.917   0.370  25.333  0.00  0.00    +0.019 C 
ATOM     11  C   UNL     1      -1.275  -0.356  25.325  0.00  0.00    +0.013 C 
ATOM     12  C   UNL     1      -1.216  -0.767  26.120  0.00  0.00    +0.018 C 
ATOM     13  C   UNL     1      -1.119  -0.284  25.691  0.00  0.00    +0.072 C 
ATOM     14  N   UNL     1      -1.237   0.120  24.731  0.00  0.00    -0.272 NA
ATOM     15  C   UNL     1      -1.678  -0.343  24.079  0.00  0.00    +0.081 C 
ATOM     16  C   UNL     1      -1.698  -0.796  24.694  0.00  0.00    +0.093 C 
ENDROOT
BRANCH  16  17
ATOM     17  C   UNL     1      -2.045  -1.543  24.752  0.00  0.00    +0.227 C 
ATOM     18  O   UNL     1      -1.616  -2.172  25.070  0.00  0.00    -0.275 OA
ATOM     19  N   UNL     1      -2.819  -1.659  24.493  0.00  0.00    -0.274 N 
ATOM     20  C   UNL     1      -3.165  -2.406  24.552  0.00  0.00    +0.125 C 
ATOM     21  C   UNL     1      -3.940  -2.522  24.292  0.00  0.00    +0.164 C 
ATOM     22  O   UNL     1      -4.368  -1.892  23.975  0.00  0.00    -0.350 OA
ATOM     23  C   UNL     1      -4.022  -1.146  23.916  0.00  0.00    +0.164 C 
ATOM     24  C   UNL     1      -3.247  -1.029  24.175  0.00  0.00    +0.125 C 
ENDBRANCH  16  17
BRANCH   9   8
ATOM      8  C   UNL     1      -0.645   1.568  24.374  0.00  0.00    +0.145 C 
BRANCH   8   7
ATOM      5  C   UNL     1      -1.051   3.485  25.219  0.00  0.00    +0.100 A 
ATOM      6  C   UNL     1      -1.215   2.888  24.673  0.00  0.00    +0.113 A 
ATOM      7  N   UNL     1      -0.679   2.275  24.797  0.00  0.00    -0.229 N 
ATOM     25  N   UNL     1      -0.182   2.492  25.419  0.00  0.00    -0.064 NA
ATOM     26  N   UNL     1      -0.412   3.240  25.680  0.00  0.00    -0.133 NA
BRANCH   5   2
ATOM      1  C   UNL     1      -1.856   4.918  25.363  0.00  0.00    +0.006 C 
ATOM      2  C   UNL     1      -1.454   4.202  25.291  0.00  0.00    +0.039 C 
ATOM      3  C   UNL     1      -2.062   3.819  25.696  0.00  0.00    +0.006 C 
ATOM      4  C   UNL     1      -0.846   4.585  24.886  0.00  0.00    +0.006 C 
ENDBRANCH   5   2
ENDBRANCH   8   7
ENDBRANCH   9   8
TORSDOF 4
ENDMDL
MODEL 6
REMARK VINA RESULT:     -10.3      1.330      2.331
REMARK  Name = 
REMARK  4 active torsions:
REMARK  status: ('A' for Active; 'I' for Inactive)
REMARK    1  A    between atoms: C_2  and  C_5
REMARK    2  A    between atoms: N_7  and  C_8
REMARK    3  A    between atoms: C_8  and  C_9
REMARK    4  A    between atoms: C_16  and  C_17
REMARK                            x       y       z     vdW  Elec       q    Type
REMARK                         _______ _______ _______ _____ _____    ______ ____
ROOT
ATOM      9  C   UNL     1      -1.758   1.223  24.525  0.00  0.00    +0.082 C 
ATOM     10  C   UNL     1      -1.605   1.822  24.997  0.00  0.00    +0.019 C 
ATOM     11  C   UNL     1      -2.095   2.452  25.133  0.00  0.00    +0.013 C 
ATOM     12  C   UNL     1      -1.735   3.037  25.710  0.00  0.00    +0.018 C 
ATOM     13  C   UNL     1      -1.754   2.493  25.348  0.00  0.00    +0.072 C 
ATOM     14  N   UNL     1      -2.251   1.868  24.669  0.00  0.00    -0.272 NA
ATOM     15  C   UNL     1      -3.079   2.086  24.352  0.00  0.00    +0.081 C 
ATOM     16  C   UNL     1      -2.890   2.656  24.824  0.00  0.00    +0.093 C 
ENDROOT
BRANCH  16  17
ATOM     17  C   UNL     1      -3.341   3.323  25.006  0.00  0.00    +0.227 C 
ATOM     18  O   UNL     1      -2.987   4.069  25.017  0.00  0.00    -0.275 OA
ATOM     19  N   UNL     1      -4.143   3.245  25.176  0.00  0.00    -0.274 N 
ATOM     20  C   UNL     1      -4.594   3.912  25.357  0.00  0.00    +0.125 C 
ATOM     21  C   UNL     1      -5.398   3.833  25.527  0.00  0.00    +0.164 C 
ATOM     22  O   UNL     1      -5.751   3.088  25.516  0.00  0.00    -0.350 OA
ATOM     23  C   UNL     1      -5.301   2.420  25.334  0.00  0.00    +0.164 C 
ATOM     24  C   UNL     1      -4.498   2.499  25.164  0.00  0.00    +0.125 C 
ENDBRANCH  16  17
BRANCH   9   8
ATOM      8  C   UNL     1      -1.572   0.505  24.164  0.00  0.00    +0.145 C 
BRANCH   8   7
ATOM      5  C   UNL     1      -2.326  -1.342  24.926  0.00  0.00    +0.100 A 
ATOM      6  C   UNL     1      -2.386  -0.691  24.420  0.00  0.00    +0.113 A 
ATOM      7  N   UNL     1      -1.733  -0.206  24.552  0.00  0.00    -0.229 N 
ATOM     25  N   UNL     1      -1.269  -0.554  25.138  0.00  0.00    -0.064 NA
ATOM     26  N   UNL     1      -1.635  -1.256  25.369  0.00  0.00    -0.133 NA
BRANCH   5   2
ATOM      1  C   UNL     1      -3.397  -2.591  25.031  0.00  0.00    +0.006 C 
ATOM      2  C   UNL     1      -2.862  -1.966  24.979  0.00  0.00    +0.039 C 
ATOM      3  C   UNL     1      -3.338  -1.515  25.479  0.00  0.00    +0.006 C 
ATOM      4  C   UNL     1      -2.385  -2.418  24.479  0.00  0.00    +0.006 C 
ENDBRANCH   5   2
ENDBRANCH   8   7
ENDBRANCH   9   8
TORSDOF 4
ENDMDL
