MODEL 1
REMARK VINA RESULT:     -12.8      0.000      0.000
REMARK  Name = 
REMARK  6 active torsions:
REMARK  status: ('A' for Active; 'I' for Inactive)
REMARK    1  A    between atoms: C_2  and  C_4
REMARK    2  A    between atoms: C_7  and  C_8
REMARK    3  A    between atoms: C_8  and  N_9
REMARK    4  A    between atoms: C_13  and  C_14
REMARK    5  A    between atoms: C_16  and  C_19
REMARK    6  A    between atoms: C_23  and  N_25
REMARK                            x       y       z     vdW  Elec       q    Type
REMARK                         _______ _______ _______ _____ _____    ______ ____
ROOT
ATOM     14  C   UNL     1      -4.411   2.590  24.784  0.00  0.00    +0.251 A 
ATOM     15  N   UNL     1      -3.691   2.730  25.164  0.00  0.00    -0.190 NA
ATOM     16  C   UNL     1      -3.334   3.379  24.801  0.00  0.00    +0.203 A 
ATOM     17  N   UNL     1      -3.832   3.640  24.198  0.00  0.00    -0.056 NA
ATOM     18  O   UNL     1      -4.496   3.153  24.187  0.00  0.00    -0.336 OA
ENDROOT
BRANCH  16  19
ATOM     19  C   UNL     1      -2.606   3.708  25.006  0.00  0.00    +0.043 A 
ATOM     20  C   UNL     1      -2.516   4.528  25.029  0.00  0.00    +0.024 A 
ATOM     21  C   UNL     1      -1.788   4.858  25.234  0.00  0.00    +0.100 A 
ATOM     22  N   UNL     1      -1.150   4.368  25.416  0.00  0.00    -0.229 NA
ATOM     23  C   UNL     1      -1.239   3.548  25.394  0.00  0.00    +0.132 A 
ATOM     24  C   UNL     1      -1.968   3.218  25.189  0.00  0.00    +0.037 A 
BRANCH  23  25
ATOM     25  N   UNL     1      -0.601   3.058  25.577  0.00  0.00    -0.293 N 
ATOM     26  C   UNL     1      -0.110   2.679  25.033  0.00  0.00    +0.092 C 
ATOM     27  C   UNL     1       0.452   2.248  25.456  0.00  0.00    +0.023 C 
ATOM     28  C   UNL     1       0.308   2.360  26.260  0.00  0.00    +0.023 C 
ATOM     29  C   UNL     1      -0.343   2.861  26.335  0.00  0.00    +0.092 C 
ENDBRANCH  23  25
ENDBRANCH  16  19
BRANCH  14  13
ATOM      9  N   UNL     1      -4.842   1.187  24.835  0.00  0.00    -0.263 NA
ATOM     10  C   UNL     1      -5.515   0.791  25.103  0.00  0.00    +0.073 C 
ATOM     11  C   UNL     1      -6.037   1.355  25.404  0.00  0.00    +0.019 C 
ATOM     12  C   UNL     1      -5.687   2.097  25.321  0.00  0.00    +0.027 C 
ATOM     13  C   UNL     1      -4.948   1.993  24.969  0.00  0.00    +0.138 C 
BRANCH   9   8
ATOM      8  C   UNL     1      -4.179   0.836  24.491  0.00  0.00    +0.099 C 
BRANCH   8   7
ATOM      4  C   UNL     1      -3.839  -1.610  24.673  0.00  0.00    +0.080 A 
ATOM      5  C   UNL     1      -3.593  -1.113  25.284  0.00  0.00    +0.006 A 
ATOM      6  C   UNL     1      -3.706  -0.298  25.224  0.00  0.00    -0.003 A 
ATOM      7  C   UNL     1      -4.066   0.020  24.552  0.00  0.00    -0.006 A 
ATOM     30  C   UNL     1      -4.311  -0.477  23.941  0.00  0.00    -0.003 A 
ATOM     31  C   UNL     1      -4.197  -1.292  24.002  0.00  0.00    +0.006 A 
BRANCH   4   2
ATOM      1  O   UNL     1      -3.485  -2.755  25.451  0.00  0.00    -0.241 OA
ATOM      2  C   UNL     1      -3.725  -2.424  24.733  0.00  0.00    +0.388 C 
ATOM      3  O   UNL     1      -3.851  -2.909  24.078  0.00  0.00    -0.241 OA
ENDBRANCH   4   2
ENDBRANCH   8   7
ENDBRANCH   9   8
ENDBRANCH  14  13
TORSDOF 6
ENDMDL
MODEL 2
REMARK VINA RESULT:     -12.3      1.808      3.482
REMARK  Name = 
REMARK  6 active torsions:
REMARK  status: ('A' for Active; 'I' for Inactive)
REMARK    1  A    between atoms: C_2  and  C_4
REMARK    2  A    between atoms: C_7  and  C_8
REMARK    3  A    between atoms: C_8  and  N_9
REMARK    4  A    between atoms: C_13  and  C_14
REMARK    5  A    between atoms: C_16  and  C_19
REMARK    6  A    between atoms: C_23  and  N_25
REMARK                            x       y       z     vdW  Elec       q    Type
REMARK                         _______ _______ _______ _____ _____    ______ ____
ROOT
ATOM     14  C   UNL     1      -0.517   1.227  24.904  0.00  0.00    +0.251 A 
ATOM     15  N   UNL     1      -1.040   1.827  24.687  0.00  0.00    -0.190 NA
ATOM     16  C   UNL     1      -1.025   2.404  25.276  0.00  0.00    +0.203 A 
ATOM     17  N   UNL     1      -0.493   2.161  25.857  0.00  0.00    -0.056 NA
ATOM     18  O   UNL     1      -0.179   1.435  25.627  0.00  0.00    -0.336 OA
ENDROOT
BRANCH  16  19
ATOM     19  C   UNL     1      -1.465   3.103  25.282  0.00  0.00    +0.043 A 
ATOM     20  C   UNL     1      -1.080   3.832  25.291  0.00  0.00    +0.024 A 
ATOM     21  C   UNL     1      -1.520   4.530  25.298  0.00  0.00    +0.100 A 
ATOM     22  N   UNL     1      -2.344   4.499  25.295  0.00  0.00    -0.229 NA
ATOM     23  C   UNL     1      -2.729   3.769  25.286  0.00  0.00    +0.132 A 
ATOM     24  C   UNL     1      -2.289   3.071  25.280  0.00  0.00    +0.037 A 
BRANCH  23  25
ATOM     25  N   UNL     1      -3.553   3.737  25.283  0.00  0.00    -0.293 N 
ATOM     26  C   UNL     1      -4.041   3.747  25.949  0.00  0.00    +0.092 C 
ATOM     27  C   UNL     1      -4.824   3.706  25.691  0.00  0.00    +0.023 C 
ATOM     28  C   UNL     1      -4.820   3.670  24.867  0.00  0.00    +0.023 C 
ATOM     29  C   UNL     1      -4.034   3.690  24.616  0.00  0.00    +0.092 C 
ENDBRANCH  23  25
ENDBRANCH  16  19
BRANCH  14  13
ATOM      9  N   UNL     1      -0.743  -0.184  24.561  0.00  0.00    -0.263 NA
ATOM     10  C   UNL     1      -0.413  -0.714  24.022  0.00  0.00    +0.073 C 
ATOM     11  C   UNL     1       0.174  -0.316  23.601  0.00  0.00    +0.019 C 
ATOM     12  C   UNL     1       0.207   0.460  23.880  0.00  0.00    +0.027 C 
ATOM     13  C   UNL     1      -0.360   0.541  24.474  0.00  0.00    +0.138 C 
BRANCH   9   8
ATOM      8  C   UNL     1      -1.349  -0.350  25.095  0.00  0.00    +0.099 C 
BRANCH   8   7
ATOM      4  C   UNL     1      -3.109  -1.987  24.499  0.00  0.00    +0.080 A 
ATOM      5  C   UNL     1      -3.248  -1.179  24.405  0.00  0.00    +0.006 A 
ATOM      6  C   UNL     1      -2.662  -0.633  24.603  0.00  0.00    -0.003 A 
ATOM      7  C   UNL     1      -1.936  -0.896  24.896  0.00  0.00    -0.006 A 
ATOM     30  C   UNL     1      -1.797  -1.704  24.990  0.00  0.00    -0.003 A 
ATOM     31  C   UNL     1      -2.384  -2.249  24.791  0.00  0.00    +0.006 A 
BRANCH   4   2
ATOM      1  O   UNL     1      -4.313  -2.309  23.800  0.00  0.00    -0.241 OA
ATOM      2  C   UNL     1      -3.695  -2.532  24.300  0.00  0.00    +0.388 C 
ATOM      3  O   UNL     1      -3.664  -3.300  24.601  0.00  0.00    -0.241 OA
ENDBRANCH   4   2
ENDBRANCH   8   7
ENDBRANCH   9   8
ENDBRANCH  14  13
TORSDOF 6
ENDMDL
MODEL 3
REMARK VINA RESULT:     -11.9      2.099      4.961
REMARK  Name = 
REMARK  6 active torsions:
REMARK  status: ('A' for Active; 'I' for Inactive)
REMARK    1  A    between atoms: C_2  and  C_4
REMARK    2  A    between atoms: C_7  and  C_8
REMARK    3  A    between atoms: C_8  and  N_9
REMARK    4  A    between atoms: C_13  and  C_14
REMARK    5  A    between atoms: C_16  and  C_19
REMARK    6  A    between atoms: C_23  and  N_25
REMARK                            x       y       z     vdW  Elec       q    Type
REMARK                         _______ _______ _______ _____ _____    ______ ____
ROOT
ATOM     14  C   UNL     1      -1.122   1.864  24.473  0.00  0.00    +0.251 A 
ATOM     15  N   UNL     1      -1.218   1.159  24.892  0.00  0.00    -0.190 NA
ATOM     16  C   UNL     1      -1.017   0.536  24.391  0.00  0.00    +0.203 A 
ATOM     17  N   UNL     1      -0.796   0.854  23.663  0.00  0.00    -0.056 NA
ATOM     18  O   UNL     1      -0.861   1.674  23.714  0.00  0.00    -0.336 OA
ENDROOT
BRANCH  16  19
ATOM     19  C   UNL     1      -1.033  -0.267  24.584  0.00  0.00    +0.043 A 
ATOM     20  C   UNL     1      -0.332  -0.659  24.773  0.00  0.00    +0.024 A 
ATOM     21  C   UNL     1      -0.348  -1.461  24.967  0.00  0.00    +0.100 A 
ATOM     22  N   UNL     1      -1.065  -1.870  24.971  0.00  0.00    -0.229 NA
ATOM     23  C   UNL     1      -1.765  -1.478  24.782  0.00  0.00    +0.132 A 
ATOM     24  C   UNL     1      -1.749  -0.676  24.589  0.00  0.00    +0.037 A 
BRANCH  23  25
ATOM     25  N   UNL     1      -2.482  -1.887  24.786  0.00  0.00    -0.293 N 
ATOM     26  C   UNL     1      -2.690  -2.504  24.280  0.00  0.00    +0.092 C 
ATOM     27  C   UNL     1      -3.453  -2.749  24.479  0.00  0.00    +0.023 C 
ATOM     28  C   UNL     1      -3.715  -2.283  25.107  0.00  0.00    +0.023 C 
ATOM     29  C   UNL     1      -3.115  -1.750  25.297  0.00  0.00    +0.092 C 
ENDBRANCH  23  25
ENDBRANCH  16  19
BRANCH  14  13
ATOM      9  N   UNL     1      -1.972   3.038  24.712  0.00  0.00    -0.263 NA
ATOM     10  C   UNL     1      -1.866   3.772  25.072  0.00  0.00    +0.073 C 
ATOM     11  C   UNL     1      -1.089   3.811  25.347  0.00  0.00    +0.019 C 
ATOM     12  C   UNL     1      -0.715   3.100  25.156  0.00  0.00    +0.027 C 
ATOM     13  C   UNL     1      -1.262   2.623  24.763  0.00  0.00    +0.138 C 
BRANCH   9   8
ATOM      8  C   UNL     1      -2.667   2.767  24.360  0.00  0.00    +0.099 C 
BRANCH   8   7
ATOM      4  C   UNL     1      -4.861   3.340  25.354  0.00  0.00    +0.080 A 
ATOM      5  C   UNL     1      -4.502   2.620  25.535  0.00  0.00    +0.006 A 
ATOM      6  C   UNL     1      -3.771   2.428  25.204  0.00  0.00    -0.003 A 
ATOM      7  C   UNL     1      -3.399   2.958  24.692  0.00  0.00    -0.006 A 
ATOM     30  C   UNL     1      -3.759   3.678  24.510  0.00  0.00    -0.003 A 
ATOM     31  C   UNL     1      -4.490   3.869  24.842  0.00  0.00    +0.006 A 
BRANCH   4   2
ATOM      1  O   UNL     1      -6.028   2.953  26.083  0.00  0.00    -0.241 OA
ATOM      2  C   UNL     1      -5.592   3.531  25.685  0.00  0.00    +0.388 C 
ATOM      3  O   UNL     1      -5.888   4.298  25.619  0.00  0.00    -0.241 OA
ENDBRANCH   4   2
ENDBRANCH   8   7
ENDBRANCH   9   8
ENDBRANCH  14  13
TORSDOF 6
ENDMDL
MODEL 4
REMARK VINA RESULT:     -11.8      1.952      4.892
REMARK  Name = 
REMARK  6 active torsions:
REMARK  status: ('A' for Active; 'I' for Inactive)
REMARK    1  A    between atoms: C_2  and  C_4
REMARK    2  A    between atoms: C_7  and  C_8
REMARK    3  A    between atoms: C_8  and  N_9
REMARK    4  A    between atoms: C_13  and  C_14
REMARK    5  A    between atoms: C_16  and  C_19
REMARK    6  A    between atoms: C_23  and  N_25
REMARK                            x       y       z     vdW  Elec       q    Type
REMARK                         _______ _______ _______ _____ _____    ______ ____
ROOT
ATOM     14  C   UNL     1      -4.622   1.294  25.108  0.00  0.00    +0.251 A 
ATOM     15  N   UNL     1      -4.193   0.783  24.621  0.00  0.00    -0.190 NA
ATOM     16  C   UNL     1      -4.221   0.029  24.955  0.00  0.00    +0.203 A 
ATOM     17  N   UNL     1      -4.666   0.074  25.647  0.00  0.00    -0.056 NA
ATOM     18  O   UNL     1      -4.914   0.854  25.742  0.00  0.00    -0.336 OA
ENDROOT
BRANCH  16  19
ATOM     19  C   UNL     1      -3.866  -0.650  24.649  0.00  0.00    +0.043 A 
ATOM     20  C   UNL     1      -4.312  -1.186  24.209  0.00  0.00    +0.024 A 
ATOM     21  C   UNL     1      -3.956  -1.865  23.903  0.00  0.00    +0.100 A 
ATOM     22  N   UNL     1      -3.155  -2.008  24.038  0.00  0.00    -0.229 NA
ATOM     23  C   UNL     1      -2.709  -1.472  24.478  0.00  0.00    +0.132 A 
ATOM     24  C   UNL     1      -3.064  -0.792  24.784  0.00  0.00    +0.037 A 
BRANCH  23  25
ATOM     25  N   UNL     1      -1.908  -1.614  24.613  0.00  0.00    -0.293 N 
ATOM     26  C   UNL     1      -1.579  -2.324  24.876  0.00  0.00    +0.092 C 
ATOM     27  C   UNL     1      -0.763  -2.220  24.934  0.00  0.00    +0.023 C 
ATOM     28  C   UNL     1      -0.587  -1.446  24.707  0.00  0.00    +0.023 C 
ATOM     29  C   UNL     1      -1.295  -1.073  24.509  0.00  0.00    +0.092 C 
ENDBRANCH  23  25
ENDBRANCH  16  19
BRANCH  14  13
ATOM      9  N   UNL     1      -4.188   2.697  25.130  0.00  0.00    -0.263 NA
ATOM     10  C   UNL     1      -4.533   3.418  24.926  0.00  0.00    +0.073 C 
ATOM     11  C   UNL     1      -5.297   3.267  24.652  0.00  0.00    +0.019 C 
ATOM     12  C   UNL     1      -5.423   2.452  24.687  0.00  0.00    +0.027 C 
ATOM     13  C   UNL     1      -4.737   2.100  24.983  0.00  0.00    +0.138 C 
BRANCH   9   8
ATOM      8  C   UNL     1      -3.427   2.592  25.429  0.00  0.00    +0.099 C 
BRANCH   8   7
ATOM      4  C   UNL     1      -1.728   4.370  25.146  0.00  0.00    +0.080 A 
ATOM      5  C   UNL     1      -1.789   3.765  24.589  0.00  0.00    +0.006 A 
ATOM      6  C   UNL     1      -2.354   3.172  24.683  0.00  0.00    -0.003 A 
ATOM      7  C   UNL     1      -2.860   3.185  25.335  0.00  0.00    -0.006 A 
ATOM     30  C   UNL     1      -2.800   3.790  25.892  0.00  0.00    -0.003 A 
ATOM     31  C   UNL     1      -2.233   4.383  25.797  0.00  0.00    +0.006 A 
BRANCH   4   2
ATOM      1  O   UNL     1      -1.383   5.757  25.106  0.00  0.00    -0.241 OA
ATOM      2  C   UNL     1      -1.162   4.962  25.051  0.00  0.00    +0.388 C 
ATOM      3  O   UNL     1      -0.376   4.762  24.902  0.00  0.00    -0.241 OA
ENDBRANCH   4   2
ENDBRANCH   8   7
ENDBRANCH   9   8
ENDBRANCH  14  13
TORSDOF 6
ENDMDL
