MODEL 1
REMARK VINA RESULT:     -10.4      0.000      0.000
REMARK  Name = 
REMARK  9 active torsions:
REMARK  status: ('A' for Active; 'I' for Inactive)
REMARK    1  A    between atoms: C_2  and  C_4
REMARK    2  A    between atoms: C_4  and  C_5
REMARK    3  A    between atoms: C_10  and  C_11
REMARK    4  A    between atoms: C_11  and  C_12
REMARK    5  A    between atoms: C_12  and  N_13
REMARK    6  A    between atoms: N_16  and  C_19
REMARK    7  A    between atoms: C_26  and  C_28
REMARK    8  A    between atoms: C_28  and  O_29
REMARK    9  A    between atoms: O_29  and  C_30
REMARK                            x       y       z     vdW  Elec       q    Type
REMARK                         _______ _______ _______ _____ _____    ______ ____
ROOT
ATOM      5  C   UNL     1      -3.506  -0.941  24.411  0.00  0.00    +0.015 C 
ATOM      6  C   UNL     1      -4.301  -0.812  24.588  0.00  0.00    +0.022 C 
ATOM      7  C   UNL     1      -4.564  -0.051  24.768  0.00  0.00    +0.094 C 
ATOM      8  N   UNL     1      -4.034   0.580  24.771  0.00  0.00    -0.277 N 
ATOM      9  C   UNL     1      -3.238   0.450  24.594  0.00  0.00    +0.094 C 
ATOM     10  C   UNL     1      -2.974  -0.310  24.414  0.00  0.00    +0.022 C 
ATOM     26  C   UNL     1      -4.297   1.340  24.951  0.00  0.00    +0.270 C 
ATOM     27  O   UNL     1      -5.092   1.470  25.128  0.00  0.00    -0.271 OA
ENDROOT
BRANCH   5   4
ATOM      4  C   UNL     1      -3.242  -1.703  24.231  0.00  0.00    +0.114 C 
BRANCH   4   2
ATOM      1  O   UNL     1      -4.283  -2.575  23.789  0.00  0.00    -0.246 OA
ATOM      2  C   UNL     1      -3.733  -2.351  24.362  0.00  0.00    +0.365 C 
ATOM      3  O   UNL     1      -3.677  -2.776  25.066  0.00  0.00    -0.246 OA
ENDBRANCH   4   2
ENDBRANCH   5   4
BRANCH  10  11
ATOM     11  C   UNL     1      -2.179  -0.440  24.237  0.00  0.00    +0.019 C 
BRANCH  11  12
ATOM     12  C   UNL     1      -1.600   0.058  24.551  0.00  0.00    +0.072 C 
BRANCH  12  13
ATOM     13  N   UNL     1      -0.858   0.106  24.192  0.00  0.00    -0.270 NA
ATOM     14  C   UNL     1      -0.363  -0.553  24.179  0.00  0.00    +0.094 C 
ATOM     15  C   UNL     1       0.379  -0.506  23.820  0.00  0.00    +0.108 C 
ATOM     16  N   UNL     1       0.624   0.202  23.474  0.00  0.00    -0.305 N 
ATOM     17  C   UNL     1       0.128   0.862  23.486  0.00  0.00    +0.108 C 
ATOM     18  C   UNL     1      -0.613   0.813  23.845  0.00  0.00    +0.094 C 
BRANCH  16  19
ATOM     19  C   UNL     1       1.365   0.250  23.114  0.00  0.00    +0.048 A 
ATOM     20  C   UNL     1       1.937   0.762  23.418  0.00  0.00    +0.017 A 
ATOM     21  C   UNL     1       2.678   0.811  23.059  0.00  0.00    +0.031 A 
ATOM     22  C   UNL     1       2.847   0.349  22.398  0.00  0.00    +0.140 A 
ATOM     23  F   UNL     1       3.589   0.398  22.038  0.00  0.00    -0.204 F 
ATOM     24  C   UNL     1       2.276  -0.162  22.094  0.00  0.00    +0.031 A 
ATOM     25  C   UNL     1       1.534  -0.211  22.453  0.00  0.00    +0.017 A 
ENDBRANCH  16  19
ENDBRANCH  12  13
ENDBRANCH  11  12
ENDBRANCH  10  11
BRANCH  26  28
ATOM     28  C   UNL     1      -3.765   1.972  24.954  0.00  0.00    +0.290 C 
BRANCH  28  29
ATOM     29  O   UNL     1      -4.022   2.726  25.166  0.00  0.00    -0.466 OA
BRANCH  29  30
ATOM     30  C   UNL     1      -3.472   3.329  25.292  0.00  0.00    +0.139 A 
ATOM     31  C   UNL     1      -3.036   3.629  24.660  0.00  0.00    +0.037 A 
ATOM     32  C   UNL     1      -2.487   4.230  24.787  0.00  0.00    +0.003 A 
ATOM     33  C   UNL     1      -2.373   4.532  25.547  0.00  0.00    +0.000 A 
ATOM     34  C   UNL     1      -2.809   4.232  26.179  0.00  0.00    +0.003 A 
ATOM     35  C   UNL     1      -3.359   3.630  26.052  0.00  0.00    +0.037 A 
ENDBRANCH  29  30
ENDBRANCH  28  29
ENDBRANCH  26  28
TORSDOF 9
ENDMDL
MODEL 2
REMARK VINA RESULT:     -10.1      1.009      3.805
REMARK  Name = 
REMARK  9 active torsions:
REMARK  status: ('A' for Active; 'I' for Inactive)
REMARK    1  A    between atoms: C_2  and  C_4
REMARK    2  A    between atoms: C_4  and  C_5
REMARK    3  A    between atoms: C_10  and  C_11
REMARK    4  A    between atoms: C_11  and  C_12
REMARK    5  A    between atoms: C_12  and  N_13
REMARK    6  A    between atoms: N_16  and  C_19
REMARK    7  A    between atoms: C_26  and  C_28
REMARK    8  A    between atoms: C_28  and  O_29
REMARK    9  A    between atoms: O_29  and  C_30
REMARK                            x       y       z     vdW  Elec       q    Type
REMARK                         _______ _______ _______ _____ _____    ______ ____
ROOT
ATOM      5  C   UNL     1      -2.759   2.771  24.914  0.00  0.00    +0.015 C 
ATOM      6  C   UNL     1      -3.557   2.860  25.103  0.00  0.00    +0.022 C 
ATOM      7  C   UNL     1      -4.060   2.206  25.086  0.00  0.00    +0.094 C 
ATOM      8  N   UNL     1      -3.766   1.464  24.880  0.00  0.00    -0.277 N 
ATOM      9  C   UNL     1      -2.967   1.375  24.692  0.00  0.00    +0.094 C 
ATOM     10  C   UNL     1      -2.464   2.028  24.709  0.00  0.00    +0.022 C 
ATOM     26  C   UNL     1      -4.269   0.811  24.863  0.00  0.00    +0.270 C 
ATOM     27  O   UNL     1      -5.067   0.899  25.052  0.00  0.00    -0.271 OA
ENDROOT
BRANCH   5   4
ATOM      4  C   UNL     1      -2.256   3.425  24.932  0.00  0.00    +0.114 C 
BRANCH   4   2
ATOM      1  O   UNL     1      -2.860   4.700  24.711  0.00  0.00    -0.246 OA
ATOM      2  C   UNL     1      -2.527   4.146  25.224  0.00  0.00    +0.365 C 
ATOM      3  O   UNL     1      -2.466   4.314  26.029  0.00  0.00    -0.246 OA
ENDBRANCH   4   2
ENDBRANCH   5   4
BRANCH  10  11
ATOM     11  C   UNL     1      -1.666   1.939  24.520  0.00  0.00    +0.019 C 
BRANCH  11  12
ATOM     12  C   UNL     1      -1.301   1.204  24.610  0.00  0.00    +0.072 C 
BRANCH  12  13
ATOM     13  N   UNL     1      -0.571   1.060  24.253  0.00  0.00    -0.270 NA
ATOM     14  C   UNL     1       0.027   1.627  24.293  0.00  0.00    +0.094 C 
ATOM     15  C   UNL     1       0.757   1.484  23.936  0.00  0.00    +0.108 C 
ATOM     16  N   UNL     1       0.889   0.772  23.539  0.00  0.00    -0.305 N 
ATOM     17  C   UNL     1       0.290   0.205  23.499  0.00  0.00    +0.108 C 
ATOM     18  C   UNL     1      -0.439   0.349  23.856  0.00  0.00    +0.094 C 
BRANCH  16  19
ATOM     19  C   UNL     1       1.618   0.628  23.181  0.00  0.00    +0.048 A 
ATOM     20  C   UNL     1       1.684   0.045  22.600  0.00  0.00    +0.017 A 
ATOM     21  C   UNL     1       2.413  -0.099  22.242  0.00  0.00    +0.031 A 
ATOM     22  C   UNL     1       3.075   0.337  22.466  0.00  0.00    +0.140 A 
ATOM     23  F   UNL     1       3.805   0.192  22.108  0.00  0.00    -0.204 F 
ATOM     24  C   UNL     1       3.010   0.919  23.046  0.00  0.00    +0.031 A 
ATOM     25  C   UNL     1       2.280   1.064  23.404  0.00  0.00    +0.017 A 
ENDBRANCH  16  19
ENDBRANCH  12  13
ENDBRANCH  11  12
ENDBRANCH  10  11
BRANCH  26  28
ATOM     28  C   UNL     1      -3.974   0.068  24.658  0.00  0.00    +0.290 C 
BRANCH  28  29
ATOM     29  O   UNL     1      -4.421  -0.609  24.805  0.00  0.00    -0.466 OA
BRANCH  29  30
ATOM     30  C   UNL     1      -4.105  -1.355  24.647  0.00  0.00    +0.139 A 
ATOM     31  C   UNL     1      -3.609  -1.719  25.195  0.00  0.00    +0.037 A 
ATOM     32  C   UNL     1      -3.294  -2.463  25.036  0.00  0.00    +0.003 A 
ATOM     33  C   UNL     1      -3.475  -2.846  24.327  0.00  0.00    +0.000 A 
ATOM     34  C   UNL     1      -3.971  -2.482  23.778  0.00  0.00    +0.003 A 
ATOM     35  C   UNL     1      -4.287  -1.737  23.937  0.00  0.00    +0.037 A 
ENDBRANCH  29  30
ENDBRANCH  28  29
ENDBRANCH  26  28
TORSDOF 9
ENDMDL
MODEL 3
REMARK VINA RESULT:      -9.9      2.889      4.952
REMARK  Name = 
REMARK  9 active torsions:
REMARK  status: ('A' for Active; 'I' for Inactive)
REMARK    1  A    between atoms: C_2  and  C_4
REMARK    2  A    between atoms: C_4  and  C_5
REMARK    3  A    between atoms: C_10  and  C_11
REMARK    4  A    between atoms: C_11  and  C_12
REMARK    5  A    between atoms: C_12  and  N_13
REMARK    6  A    between atoms: N_16  and  C_19
REMARK    7  A    between atoms: C_26  and  C_28
REMARK    8  A    between atoms: C_28  and  O_29
REMARK    9  A    between atoms: O_29  and  C_30
REMARK                            x       y       z     vdW  Elec       q    Type
REMARK                         _______ _______ _______ _____ _____    ______ ____
ROOT
ATOM      5  C   UNL     1      -4.598   3.521  25.276  0.00  0.00    +0.015 C 
ATOM      6  C   UNL     1      -4.396   4.268  25.559  0.00  0.00    +0.022 C 
ATOM      7  C   UNL     1      -3.610   4.519  25.537  0.00  0.00    +0.094 C 
ATOM      8  N   UNL     1      -3.027   4.022  25.233  0.00  0.00    -0.277 N 
ATOM      9  C   UNL     1      -3.229   3.273  24.950  0.00  0.00    +0.094 C 
ATOM     10  C   UNL     1      -4.015   3.023  24.972  0.00  0.00    +0.022 C 
ATOM     26  C   UNL     1      -2.242   4.273  25.211  0.00  0.00    +0.270 C 
ATOM     27  O   UNL     1      -2.039   5.020  25.494  0.00  0.00    -0.271 OA
ENDROOT
BRANCH   5   4
ATOM      4  C   UNL     1      -5.385   3.270  25.298  0.00  0.00    +0.114 C 
BRANCH   4   2
ATOM      1  O   UNL     1      -6.002   3.100  26.575  0.00  0.00    -0.246 OA
ATOM      2  C   UNL     1      -5.889   3.545  25.889  0.00  0.00    +0.365 C 
ATOM      3  O   UNL     1      -6.280   4.264  25.796  0.00  0.00    -0.246 OA
ENDBRANCH   4   2
ENDBRANCH   5   4
BRANCH  10  11
ATOM     11  C   UNL     1      -4.217   2.275  24.689  0.00  0.00    +0.019 C 
BRANCH  11  12
ATOM     12  C   UNL     1      -3.671   1.840  24.247  0.00  0.00    +0.072 C 
BRANCH  12  13
ATOM     13  N   UNL     1      -3.680   1.015  24.279  0.00  0.00    -0.270 NA
ATOM     14  C   UNL     1      -4.388   0.614  24.410  0.00  0.00    +0.094 C 
ATOM     15  C   UNL     1      -4.397  -0.210  24.441  0.00  0.00    +0.108 C 
ATOM     16  N   UNL     1      -3.696  -0.634  24.342  0.00  0.00    -0.305 N 
ATOM     17  C   UNL     1      -2.986  -0.233  24.212  0.00  0.00    +0.108 C 
ATOM     18  C   UNL     1      -2.979   0.592  24.180  0.00  0.00    +0.094 C 
BRANCH  16  19
ATOM     19  C   UNL     1      -3.703  -1.458  24.374  0.00  0.00    +0.048 A 
ATOM     20  C   UNL     1      -4.131  -1.888  23.814  0.00  0.00    +0.017 A 
ATOM     21  C   UNL     1      -4.139  -2.712  23.845  0.00  0.00    +0.031 A 
ATOM     22  C   UNL     1      -3.719  -3.106  24.435  0.00  0.00    +0.140 A 
ATOM     23  F   UNL     1      -3.727  -3.931  24.466  0.00  0.00    -0.204 F 
ATOM     24  C   UNL     1      -3.292  -2.677  24.995  0.00  0.00    +0.031 A 
ATOM     25  C   UNL     1      -3.284  -1.852  24.964  0.00  0.00    +0.017 A 
ENDBRANCH  16  19
ENDBRANCH  12  13
ENDBRANCH  11  12
ENDBRANCH  10  11
BRANCH  26  28
ATOM     28  C   UNL     1      -1.658   3.775  24.907  0.00  0.00    +0.290 C 
BRANCH  28  29
ATOM     29  O   UNL     1      -0.906   3.765  25.246  0.00  0.00    -0.466 OA
BRANCH  29  30
ATOM     30  C   UNL     1      -0.418   3.107  25.148  0.00  0.00    +0.139 A 
ATOM     31  C   UNL     1      -0.117   2.922  24.404  0.00  0.00    +0.037 A 
ATOM     32  C   UNL     1       0.370   2.264  24.307  0.00  0.00    +0.003 A 
ATOM     33  C   UNL     1       0.556   1.789  24.956  0.00  0.00    +0.000 A 
ATOM     34  C   UNL     1       0.255   1.974  25.701  0.00  0.00    +0.003 A 
ATOM     35  C   UNL     1      -0.232   2.632  25.798  0.00  0.00    +0.037 A 
ENDBRANCH  29  30
ENDBRANCH  28  29
ENDBRANCH  26  28
TORSDOF 9
ENDMDL
MODEL 4
REMARK VINA RESULT:      -9.7      2.826      5.067
REMARK  Name = 
REMARK  9 active torsions:
REMARK  status: ('A' for Active; 'I' for Inactive)
REMARK    1  A    between atoms: C_2  and  C_4
REMARK    2  A    between atoms: C_4  and  C_5
REMARK    3  A    between atoms: C_10  and  C_11
REMARK    4  A    between atoms: C_11  and  C_12
REMARK    5  A    between atoms: C_12  and  N_13
REMARK    6  A    between atoms: N_16  and  C_19
REMARK    7  A    between atoms: C_26  and  C_28
REMARK    8  A    between atoms: C_28  and  O_29
REMARK    9  A    between atoms: O_29  and  C_30
REMARK                            x       y       z     vdW  Elec       q    Type
REMARK                         _______ _______ _______ _____ _____    ______ ____
ROOT
ATOM      5  C   UNL     1      -2.779  -1.768  24.588  0.00  0.00    +0.015 C 
ATOM      6  C   UNL     1      -2.071  -2.189  24.610  0.00  0.00    +0.022 C 
ATOM      7  C   UNL     1      -1.351  -1.787  24.592  0.00  0.00    +0.094 C 
ATOM      8  N   UNL     1      -1.339  -0.963  24.551  0.00  0.00    -0.277 N 
ATOM      9  C   UNL     1      -2.049  -0.541  24.528  0.00  0.00    +0.094 C 
ATOM     10  C   UNL     1      -2.768  -0.944  24.547  0.00  0.00    +0.022 C 
ATOM     26  C   UNL     1      -0.620  -0.561  24.532  0.00  0.00    +0.270 C 
ATOM     27  O   UNL     1       0.089  -0.982  24.555  0.00  0.00    -0.271 OA
ENDROOT
BRANCH   5   4
ATOM      4  C   UNL     1      -3.500  -2.171  24.606  0.00  0.00    +0.114 C 
BRANCH   4   2
ATOM      1  O   UNL     1      -3.469  -3.374  25.375  0.00  0.00    -0.246 OA
ATOM      2  C   UNL     1      -3.510  -2.994  24.644  0.00  0.00    +0.365 C 
ATOM      3  O   UNL     1      -3.562  -3.438  23.951  0.00  0.00    -0.246 OA
ENDBRANCH   4   2
ENDBRANCH   5   4
BRANCH  10  11
ATOM     11  C   UNL     1      -3.477  -0.522  24.525  0.00  0.00    +0.019 C 
BRANCH  11  12
ATOM     12  C   UNL     1      -3.557   0.123  24.015  0.00  0.00    +0.072 C 
BRANCH  12  13
ATOM     13  N   UNL     1      -3.925   0.813  24.279  0.00  0.00    -0.270 NA
ATOM     14  C   UNL     1      -4.480   0.778  24.888  0.00  0.00    +0.094 C 
ATOM     15  C   UNL     1      -4.848   1.468  25.152  0.00  0.00    +0.108 C 
ATOM     16  N   UNL     1      -4.660   2.193  24.805  0.00  0.00    -0.305 N 
ATOM     17  C   UNL     1      -4.105   2.228  24.195  0.00  0.00    +0.108 C 
ATOM     18  C   UNL     1      -3.738   1.538  23.932  0.00  0.00    +0.094 C 
BRANCH  16  19
ATOM     19  C   UNL     1      -5.027   2.883  25.068  0.00  0.00    +0.048 A 
ATOM     20  C   UNL     1      -5.783   2.848  25.398  0.00  0.00    +0.017 A 
ATOM     21  C   UNL     1      -6.150   3.539  25.660  0.00  0.00    +0.031 A 
ATOM     22  C   UNL     1      -5.763   4.263  25.594  0.00  0.00    +0.140 A 
ATOM     23  F   UNL     1      -6.131   4.954  25.857  0.00  0.00    -0.204 F 
ATOM     24  C   UNL     1      -5.007   4.298  25.265  0.00  0.00    +0.031 A 
ATOM     25  C   UNL     1      -4.640   3.607  25.002  0.00  0.00    +0.017 A 
ENDBRANCH  16  19
ENDBRANCH  12  13
ENDBRANCH  11  12
ENDBRANCH  10  11
BRANCH  26  28
ATOM     28  C   UNL     1      -0.609   0.264  24.492  0.00  0.00    +0.290 C 
BRANCH  28  29
ATOM     29  O   UNL     1      -0.071   0.692  24.947  0.00  0.00    -0.466 OA
BRANCH  29  30
ATOM     30  C   UNL     1      -0.180   1.502  25.061  0.00  0.00    +0.139 A 
ATOM     31  C   UNL     1      -0.053   2.027  24.438  0.00  0.00    +0.037 A 
ATOM     32  C   UNL     1      -0.163   2.836  24.552  0.00  0.00    +0.003 A 
ATOM     33  C   UNL     1      -0.400   3.121  25.290  0.00  0.00    +0.000 A 
ATOM     34  C   UNL     1      -0.527   2.596  25.912  0.00  0.00    +0.003 A 
ATOM     35  C   UNL     1      -0.417   1.787  25.799  0.00  0.00    +0.037 A 
ENDBRANCH  29  30
ENDBRANCH  28  29
ENDBRANCH  26  28
TORSDOF 9
ENDMDL
MODEL 5
REMARK VINA RESULT:      -9.2      2.419      3.487
REMARK  Name = 
REMARK  9 active torsions:
REMARK  status: ('A' for Active; 'I' for Inactive)
REMARK    1  A    between atoms: C_2  and  C_4
REMARK    2  A    between atoms: C_4  and  C_5
REMARK    3  A    between atoms: C_10  and  C_11
REMARK    4  A    between atoms: C_11  and  C_12
REMARK    5  A    between atoms: C_12  and  N_13
REMARK    6  A    between atoms: N_16  and  C_19
REMARK    7  A    between atoms: C_26  and  C_28
REMARK    8  A    between atoms: C_28  and  O_29
REMARK    9  A    between atoms: O_29  and  C_30
REMARK                            x       y       z     vdW  Elec       q    Type
REMARK                         _______ _______ _______ _____ _____    ______ ____
ROOT
ATOM      5  C   UNL     1      -2.126  -1.337  24.631  0.00  0.00    +0.015 C 
ATOM      6  C   UNL     1      -2.784  -1.805  24.463  0.00  0.00    +0.022 C 
ATOM      7  C   UNL     1      -3.537  -1.469  24.451  0.00  0.00    +0.094 C 
ATOM      8  N   UNL     1      -3.632  -0.664  24.606  0.00  0.00    -0.277 N 
ATOM      9  C   UNL     1      -2.973  -0.196  24.774  0.00  0.00    +0.094 C 
ATOM     10  C   UNL     1      -2.220  -0.532  24.786  0.00  0.00    +0.022 C 
ATOM     26  C   UNL     1      -4.385  -0.328  24.593  0.00  0.00    +0.270 C 
ATOM     27  O   UNL     1      -5.043  -0.795  24.426  0.00  0.00    -0.271 OA
ENDROOT
BRANCH   5   4
ATOM      4  C   UNL     1      -1.372  -1.674  24.643  0.00  0.00    +0.114 C 
BRANCH   4   2
ATOM      1  O   UNL     1      -1.310  -2.892  23.899  0.00  0.00    -0.246 OA
ATOM      2  C   UNL     1      -1.287  -2.494  24.621  0.00  0.00    +0.365 C 
ATOM      3  O   UNL     1      -1.179  -2.916  25.321  0.00  0.00    -0.246 OA
ENDBRANCH   4   2
ENDBRANCH   5   4
BRANCH  10  11
ATOM     11  C   UNL     1      -1.563  -0.065  24.954  0.00  0.00    +0.019 C 
BRANCH  11  12
ATOM     12  C   UNL     1      -1.254   0.436  24.374  0.00  0.00    +0.072 C 
BRANCH  12  13
ATOM     13  N   UNL     1      -1.245   1.252  24.497  0.00  0.00    -0.270 NA
ATOM     14  C   UNL     1      -1.084   1.556  25.246  0.00  0.00    +0.094 C 
ATOM     15  C   UNL     1      -1.076   2.372  25.368  0.00  0.00    +0.108 C 
ATOM     16  N   UNL     1      -1.229   2.884  24.740  0.00  0.00    -0.305 N 
ATOM     17  C   UNL     1      -1.390   2.580  23.989  0.00  0.00    +0.108 C 
ATOM     18  C   UNL     1      -1.398   1.765  23.868  0.00  0.00    +0.094 C 
BRANCH  16  19
ATOM     19  C   UNL     1      -1.220   3.700  24.861  0.00  0.00    +0.048 A 
ATOM     20  C   UNL     1      -1.851   4.066  25.249  0.00  0.00    +0.017 A 
ATOM     21  C   UNL     1      -1.843   4.881  25.369  0.00  0.00    +0.031 A 
ATOM     22  C   UNL     1      -1.206   5.332  25.104  0.00  0.00    +0.140 A 
ATOM     23  F   UNL     1      -1.198   6.148  25.225  0.00  0.00    -0.204 F 
ATOM     24  C   UNL     1      -0.576   4.967  24.716  0.00  0.00    +0.031 A 
ATOM     25  C   UNL     1      -0.584   4.150  24.595  0.00  0.00    +0.017 A 
ENDBRANCH  16  19
ENDBRANCH  12  13
ENDBRANCH  11  12
ENDBRANCH  10  11
BRANCH  26  28
ATOM     28  C   UNL     1      -4.480   0.477  24.749  0.00  0.00    +0.290 C 
BRANCH  28  29
ATOM     29  O   UNL     1      -5.236   0.804  24.788  0.00  0.00    -0.466 OA
BRANCH  29  30
ATOM     30  C   UNL     1      -5.336   1.586  25.030  0.00  0.00    +0.139 A 
ATOM     31  C   UNL     1      -5.022   2.201  24.579  0.00  0.00    +0.037 A 
ATOM     32  C   UNL     1      -5.122   2.983  24.821  0.00  0.00    +0.003 A 
ATOM     33  C   UNL     1      -5.535   3.150  25.516  0.00  0.00    +0.000 A 
ATOM     34  C   UNL     1      -5.849   2.536  25.967  0.00  0.00    +0.003 A 
ATOM     35  C   UNL     1      -5.749   1.754  25.725  0.00  0.00    +0.037 A 
ENDBRANCH  29  30
ENDBRANCH  28  29
ENDBRANCH  26  28
TORSDOF 9
ENDMDL
MODEL 6
REMARK VINA RESULT:      -9.0      3.078      4.735
REMARK  Name = 
REMARK  9 active torsions:
REMARK  status: ('A' for Active; 'I' for Inactive)
REMARK    1  A    between atoms: C_2  and  C_4
REMARK    2  A    between atoms: C_4  and  C_5
REMARK    3  A    between atoms: C_10  and  C_11
REMARK    4  A    between atoms: C_11  and  C_12
REMARK    5  A    between atoms: C_12  and  N_13
REMARK    6  A    between atoms: N_16  and  C_19
REMARK    7  A    between atoms: C_26  and  C_28
REMARK    8  A    between atoms: C_28  and  O_29
REMARK    9  A    between atoms: O_29  and  C_30
REMARK                            x       y       z     vdW  Elec       q    Type
REMARK                         _______ _______ _______ _____ _____    ______ ____
ROOT
ATOM      5  C   UNL     1      -0.978   2.842  25.612  0.00  0.00    +0.015 C 
ATOM      6  C   UNL     1      -1.061   3.632  25.833  0.00  0.00    +0.022 C 
ATOM      7  C   UNL     1      -1.797   4.000  25.778  0.00  0.00    +0.094 C 
ATOM      8  N   UNL     1      -2.450   3.579  25.502  0.00  0.00    -0.277 N 
ATOM      9  C   UNL     1      -2.366   2.787  25.280  0.00  0.00    +0.094 C 
ATOM     10  C   UNL     1      -1.630   2.419  25.336  0.00  0.00    +0.022 C 
ATOM     26  C   UNL     1      -3.185   3.946  25.447  0.00  0.00    +0.270 C 
ATOM     27  O   UNL     1      -3.270   4.736  25.668  0.00  0.00    -0.271 OA
ENDROOT
BRANCH   5   4
ATOM      4  C   UNL     1      -0.240   2.474  25.667  0.00  0.00    +0.114 C 
BRANCH   4   2
ATOM      1  O   UNL     1       0.165   2.305  27.026  0.00  0.00    -0.246 OA
ATOM      2  C   UNL     1       0.268   2.660  26.289  0.00  0.00    +0.365 C 
ATOM      3  O   UNL     1       0.879   3.202  26.174  0.00  0.00    -0.246 OA
ENDBRANCH   4   2
ENDBRANCH   5   4
BRANCH  10  11
ATOM     11  C   UNL     1      -1.546   1.630  25.115  0.00  0.00    +0.019 C 
BRANCH  11  12
ATOM     12  C   UNL     1      -1.903   1.355  24.422  0.00  0.00    +0.072 C 
BRANCH  12  13
ATOM     13  N   UNL     1      -2.226   0.596  24.397  0.00  0.00    -0.270 NA
ATOM     14  C   UNL     1      -1.851  -0.025  24.788  0.00  0.00    +0.094 C 
ATOM     15  C   UNL     1      -2.174  -0.784  24.763  0.00  0.00    +0.108 C 
ATOM     16  N   UNL     1      -2.874  -0.921  24.348  0.00  0.00    -0.305 N 
ATOM     17  C   UNL     1      -3.250  -0.298  23.957  0.00  0.00    +0.108 C 
ATOM     18  C   UNL     1      -2.926   0.460  23.982  0.00  0.00    +0.094 C 
BRANCH  16  19
ATOM     19  C   UNL     1      -3.198  -1.679  24.323  0.00  0.00    +0.048 A 
ATOM     20  C   UNL     1      -3.933  -1.801  23.968  0.00  0.00    +0.017 A 
ATOM     21  C   UNL     1      -4.258  -2.559  23.943  0.00  0.00    +0.031 A 
ATOM     22  C   UNL     1      -3.848  -3.194  24.272  0.00  0.00    +0.140 A 
ATOM     23  F   UNL     1      -4.173  -3.952  24.247  0.00  0.00    -0.204 F 
ATOM     24  C   UNL     1      -3.114  -3.072  24.627  0.00  0.00    +0.031 A 
ATOM     25  C   UNL     1      -2.789  -2.314  24.652  0.00  0.00    +0.017 A 
ENDBRANCH  16  19
ENDBRANCH  12  13
ENDBRANCH  11  12
ENDBRANCH  10  11
BRANCH  26  28
ATOM     28  C   UNL     1      -3.839   3.524  25.170  0.00  0.00    +0.290 C 
BRANCH  28  29
ATOM     29  O   UNL     1      -4.581   3.644  25.509  0.00  0.00    -0.466 OA
BRANCH  29  30
ATOM     30  C   UNL     1      -5.155   3.052  25.465  0.00  0.00    +0.139 A 
ATOM     31  C   UNL     1      -5.389   2.757  24.732  0.00  0.00    +0.037 A 
ATOM     32  C   UNL     1      -5.962   2.165  24.690  0.00  0.00    +0.003 A 
ATOM     33  C   UNL     1      -6.300   1.868  25.382  0.00  0.00    +0.000 A 
ATOM     34  C   UNL     1      -6.066   2.163  26.115  0.00  0.00    +0.003 A 
ATOM     35  C   UNL     1      -5.493   2.754  26.158  0.00  0.00    +0.037 A 
ENDBRANCH  29  30
ENDBRANCH  28  29
ENDBRANCH  26  28
TORSDOF 9
ENDMDL
