REMARK  Name = 
REMARK  4 active torsions:
REMARK  status: ('A' for Active; 'I' for Inactive)
REMARK    1  A    between atoms: C_4  and  C_5
REMARK    2  A    between atoms: C_5  and  N_6
REMARK    3  A    between atoms: C_9  and  C_11
REMARK    4  A    between atoms: C_14  and  C_16
REMARK                            x       y       z     vdW  Elec       q    Type
REMARK                         _______ _______ _______ _____ _____    ______ ____
ROOT
ATOM      6  N   UNL     1       2.024  -3.041   0.000  0.00  0.00    -0.268 NA
ATOM      7  C   UNL     1       2.692  -3.525   0.000  0.00  0.00    +0.073 C 
ATOM      8  C   UNL     1       2.437  -4.310   0.000  0.00  0.00    +0.028 C 
ATOM      9  C   UNL     1       1.612  -4.310   0.000  0.00  0.00    +0.096 C 
ATOM     10  C   UNL     1       1.357  -3.525   0.000  0.00  0.00    +0.082 C 
ENDROOT
BRANCH   9  11
ATOM     11  C   UNL     1       1.127  -4.977   0.000  0.00  0.00    +0.227 A 
ATOM     12  N   UNL     1       1.382  -5.762   0.000  0.00  0.00    -0.111 NA
ATOM     13  N   UNL     1       0.715  -6.247   0.000  0.00  0.00    -0.107 NA
ATOM     14  C   UNL     1       0.047  -5.762   0.000  0.00  0.00    +0.250 A 
ATOM     15  O   UNL     1       0.302  -4.977   0.000  0.00  0.00    -0.419 OA
BRANCH  14  16
ATOM     16  C   UNL     1      -0.738  -6.017   0.000  0.00  0.00    +0.058 A 
ATOM     17  C   UNL     1      -0.909  -6.824   0.000  0.00  0.00    +0.025 A 
ATOM     18  C   UNL     1      -1.694  -7.079   0.000  0.00  0.00    +0.099 A 
ATOM     19  N   UNL     1      -2.307  -6.527   0.000  0.00  0.00    -0.242 NA
ATOM     20  C   UNL     1      -2.135  -5.720   0.000  0.00  0.00    +0.099 A 
ATOM     21  C   UNL     1      -1.351  -5.465   0.000  0.00  0.00    +0.025 A 
ENDBRANCH  14  16
ENDBRANCH   9  11
BRANCH   6   5
ATOM      5  C   UNL     1       2.024  -2.216   0.000  0.00  0.00    +0.099 C 
BRANCH   5   4
ATOM      1 CL   UNL     1       4.882  -2.216   0.000  0.00  0.00    -0.082 Cl
ATOM      2  C   UNL     1       4.168  -1.803   0.000  0.00  0.00    +0.057 A 
ATOM      3  C   UNL     1       3.453  -2.216   0.000  0.00  0.00    +0.008 A 
ATOM      4  C   UNL     1       2.739  -1.803   0.000  0.00  0.00    -0.005 A 
ATOM     22  C   UNL     1       2.739  -0.978   0.000  0.00  0.00    -0.003 A 
ATOM     23  C   UNL     1       3.453  -0.566   0.000  0.00  0.00    +0.001 A 
ATOM     24  C   UNL     1       4.168  -0.978   0.000  0.00  0.00    +0.011 A 
ENDBRANCH   5   4
ENDBRANCH   6   5
TORSDOF 4
