MODEL 1
REMARK VINA RESULT:     -10.9      0.000      0.000
REMARK  Name = 
REMARK  6 active torsions:
REMARK  status: ('A' for Active; 'I' for Inactive)
REMARK    1  A    between atoms: N_2  and  C_4
REMARK    2  A    between atoms: C_8  and  O_9
REMARK    3  A    between atoms: O_9  and  C_10
REMARK    4  A    between atoms: N_14  and  C_15
REMARK    5  A    between atoms: C_19  and  N_23
REMARK    6  A    between atoms: N_26  and  C_27
REMARK                            x       y       z     vdW  Elec       q    Type
REMARK                         _______ _______ _______ _____ _____    ______ ____
ROOT
ATOM     15  C   UNL     1      -0.846   1.127  24.276  0.00  0.00    +0.170 C 
ATOM     16  C   UNL     1      -1.276   0.944  23.596  0.00  0.00    +0.169 C 
ATOM     17  O   UNL     1      -1.795   0.330  23.780  0.00  0.00    -0.350 OA
ATOM     18  C   UNL     1      -1.686   0.133  24.573  0.00  0.00    +0.167 C 
ATOM     19  C   UNL     1      -1.938  -0.368  25.178  0.00  0.00    +0.156 C 
ATOM     20  C   UNL     1      -1.509  -0.186  25.858  0.00  0.00    +0.166 C 
ATOM     21  O   UNL     1      -0.990   0.429  25.673  0.00  0.00    -0.350 OA
ATOM     22  C   UNL     1      -1.100   0.626  24.879  0.00  0.00    +0.169 C 
ENDROOT
BRANCH  15  14
ATOM     10  C   UNL     1      -0.383   2.522  24.264  0.00  0.00    +0.343 A 
ATOM     11  N   UNL     1       0.346   2.896  24.369  0.00  0.00    -0.071 NA
ATOM     12  N   UNL     1       0.913   2.313  24.510  0.00  0.00    -0.020 NA
ATOM     13  N   UNL     1       0.536   1.580  24.492  0.00  0.00    -0.040 NA
ATOM     14  N   UNL     1      -0.265   1.709  24.340  0.00  0.00    -0.180 N 
BRANCH  10   9
ATOM      9  O   UNL     1      -1.102   2.896  24.111  0.00  0.00    -0.421 OA
BRANCH   9   8
ATOM      4  C   UNL     1      -2.218   4.215  25.443  0.00  0.00    +0.051 A 
ATOM      5  C   UNL     1      -1.756   4.898  25.410  0.00  0.00    +0.015 A 
ATOM      6  C   UNL     1      -1.076   4.914  24.944  0.00  0.00    +0.004 A 
ATOM      7  C   UNL     1      -0.858   4.246  24.511  0.00  0.00    +0.038 A 
ATOM      8  C   UNL     1      -1.320   3.564  24.544  0.00  0.00    +0.150 A 
ATOM     33  C   UNL     1      -2.000   3.548  25.010  0.00  0.00    +0.052 A 
BRANCH   4   2
ATOM      1  C   UNL     1      -3.643   4.190  25.553  0.00  0.00    +0.112 C 
ATOM      2  N   UNL     1      -2.899   4.200  25.910  0.00  0.00    -0.304 N 
ATOM      3  C   UNL     1      -2.835   4.194  26.732  0.00  0.00    +0.112 C 
ENDBRANCH   4   2
ENDBRANCH   9   8
ENDBRANCH  10   9
ENDBRANCH  15  14
BRANCH  19  23
ATOM     23  N   UNL     1      -2.520  -0.950  25.114  0.00  0.00    -0.184 NA
ATOM     24  C   UNL     1      -2.912  -1.219  25.788  0.00  0.00    +0.339 C 
ATOM     25  O   UNL     1      -2.722  -0.905  26.527  0.00  0.00    -0.249 OA
ATOM     26  N   UNL     1      -3.493  -1.801  25.724  0.00  0.00    -0.189 NA
BRANCH  26  27
ATOM     27  C   UNL     1      -3.682  -2.114  24.985  0.00  0.00    +0.097 C 
ATOM     28  C   UNL     1      -3.333  -2.818  24.733  0.00  0.00    +0.022 C 
ATOM     29  C   UNL     1      -3.523  -3.131  23.994  0.00  0.00    +0.002 C 
ATOM     30  C   UNL     1      -4.062  -2.742  23.506  0.00  0.00    +0.000 C 
ATOM     31  C   UNL     1      -4.411  -2.038  23.758  0.00  0.00    +0.002 C 
ATOM     32  C   UNL     1      -4.221  -1.725  24.497  0.00  0.00    +0.022 C 
ENDBRANCH  26  27
ENDBRANCH  19  23
TORSDOF 6
ENDMDL
MODEL 2
REMARK VINA RESULT:      -9.7      1.691      2.549
REMARK  Name = 
REMARK  6 active torsions:
REMARK  status: ('A' for Active; 'I' for Inactive)
REMARK    1  A    between atoms: N_2  and  C_4
REMARK    2  A    between atoms: C_8  and  O_9
REMARK    3  A    between atoms: O_9  and  C_10
REMARK    4  A    between atoms: N_14  and  C_15
REMARK    5  A    between atoms: C_19  and  N_23
REMARK    6  A    between atoms: N_26  and  C_27
REMARK                            x       y       z     vdW  Elec       q    Type
REMARK                         _______ _______ _______ _____ _____    ______ ____
ROOT
ATOM     15  C   UNL     1      -3.550   1.729  23.902  0.00  0.00    +0.170 C 
ATOM     16  C   UNL     1      -2.878   1.384  23.572  0.00  0.00    +0.169 C 
ATOM     17  O   UNL     1      -2.852   0.596  23.813  0.00  0.00    -0.350 OA
ATOM     18  C   UNL     1      -3.506   0.454  24.293  0.00  0.00    +0.167 C 
ATOM     19  C   UNL     1      -3.896  -0.120  24.740  0.00  0.00    +0.156 C 
ATOM     20  C   UNL     1      -4.568   0.225  25.071  0.00  0.00    +0.166 C 
ATOM     21  O   UNL     1      -4.594   1.013  24.829  0.00  0.00    -0.350 OA
ATOM     22  C   UNL     1      -3.938   1.154  24.348  0.00  0.00    +0.169 C 
ENDROOT
BRANCH  15  14
ATOM     10  C   UNL     1      -3.593   3.145  24.294  0.00  0.00    +0.343 A 
ATOM     11  N   UNL     1      -3.952   3.824  23.991  0.00  0.00    -0.071 NA
ATOM     12  N   UNL     1      -4.372   3.610  23.314  0.00  0.00    -0.020 NA
ATOM     13  N   UNL     1      -4.272   2.799  23.198  0.00  0.00    -0.040 NA
ATOM     14  N   UNL     1      -3.791   2.512  23.804  0.00  0.00    -0.180 N 
BRANCH  10   9
ATOM      9  O   UNL     1      -3.119   3.107  24.968  0.00  0.00    -0.421 OA
BRANCH   9   8
ATOM      4  C   UNL     1      -1.523   4.581  25.173  0.00  0.00    +0.051 A 
ATOM      5  C   UNL     1      -1.863   5.106  25.711  0.00  0.00    +0.015 A 
ATOM      6  C   UNL     1      -2.622   4.965  26.002  0.00  0.00    +0.004 A 
ATOM      7  C   UNL     1      -3.040   4.298  25.754  0.00  0.00    +0.038 A 
ATOM      8  C   UNL     1      -2.701   3.774  25.216  0.00  0.00    +0.150 A 
ATOM     33  C   UNL     1      -1.942   3.915  24.926  0.00  0.00    +0.052 A 
BRANCH   4   2
ATOM      1  C   UNL     1      -0.199   4.120  24.892  0.00  0.00    +0.112 C 
ATOM      2  N   UNL     1      -0.763   4.723  24.882  0.00  0.00    -0.304 N 
ATOM      3  C   UNL     1      -0.569   5.466  24.582  0.00  0.00    +0.112 C 
ENDBRANCH   4   2
ENDBRANCH   9   8
ENDBRANCH  10   9
ENDBRANCH  15  14
BRANCH  19  23
ATOM     23  N   UNL     1      -3.655  -0.904  24.838  0.00  0.00    -0.184 NA
ATOM     24  C   UNL     1      -3.687  -1.255  25.584  0.00  0.00    +0.339 C 
ATOM     25  O   UNL     1      -3.959  -0.823  26.232  0.00  0.00    -0.249 OA
ATOM     26  N   UNL     1      -3.446  -2.037  25.683  0.00  0.00    -0.189 NA
BRANCH  26  27
ATOM     27  C   UNL     1      -3.173  -2.469  25.035  0.00  0.00    +0.097 C 
ATOM     28  C   UNL     1      -2.365  -2.506  24.873  0.00  0.00    +0.022 C 
ATOM     29  C   UNL     1      -2.092  -2.938  24.226  0.00  0.00    +0.002 C 
ATOM     30  C   UNL     1      -2.627  -3.334  23.738  0.00  0.00    +0.000 C 
ATOM     31  C   UNL     1      -3.436  -3.297  23.900  0.00  0.00    +0.002 C 
ATOM     32  C   UNL     1      -3.708  -2.866  24.547  0.00  0.00    +0.022 C 
ENDBRANCH  26  27
ENDBRANCH  19  23
TORSDOF 6
ENDMDL
MODEL 3
REMARK VINA RESULT:      -9.7      2.773      4.689
REMARK  Name = 
REMARK  6 active torsions:
REMARK  status: ('A' for Active; 'I' for Inactive)
REMARK    1  A    between atoms: N_2  and  C_4
REMARK    2  A    between atoms: C_8  and  O_9
REMARK    3  A    between atoms: O_9  and  C_10
REMARK    4  A    between atoms: N_14  and  C_15
REMARK    5  A    between atoms: C_19  and  N_23
REMARK    6  A    between atoms: N_26  and  C_27
REMARK                            x       y       z     vdW  Elec       q    Type
REMARK                         _______ _______ _______ _____ _____    ______ ____
ROOT
ATOM     15  C   UNL     1      -0.457   0.720  24.423  0.00  0.00    +0.170 C 
ATOM     16  C   UNL     1       0.071   1.325  24.612  0.00  0.00    +0.169 C 
ATOM     17  O   UNL     1       0.775   1.184  24.205  0.00  0.00    -0.350 OA
ATOM     18  C   UNL     1       0.682   0.494  23.765  0.00  0.00    +0.167 C 
ATOM     19  C   UNL     1       1.058  -0.021  23.241  0.00  0.00    +0.156 C 
ATOM     20  C   UNL     1       0.530  -0.626  23.053  0.00  0.00    +0.166 C 
ATOM     21  O   UNL     1      -0.173  -0.485  23.460  0.00  0.00    -0.350 OA
ATOM     22  C   UNL     1      -0.080   0.206  23.900  0.00  0.00    +0.169 C 
ENDROOT
BRANCH  15  14
ATOM     10  C   UNL     1      -1.851   1.164  24.567  0.00  0.00    +0.343 A 
ATOM     11  N   UNL     1      -2.519   0.874  24.956  0.00  0.00    -0.071 NA
ATOM     12  N   UNL     1      -2.307   0.173  25.338  0.00  0.00    -0.020 NA
ATOM     13  N   UNL     1      -1.509   0.030  25.185  0.00  0.00    -0.040 NA
ATOM     14  N   UNL     1      -1.228   0.643  24.708  0.00  0.00    -0.180 N 
BRANCH  10   9
ATOM      9  O   UNL     1      -1.814   1.854  24.116  0.00  0.00    -0.421 OA
BRANCH   9   8
ATOM      4  C   UNL     1      -2.812   3.625  24.908  0.00  0.00    +0.051 A 
ATOM      5  C   UNL     1      -3.497   3.639  24.448  0.00  0.00    +0.015 A 
ATOM      6  C   UNL     1      -3.620   3.056  23.877  0.00  0.00    +0.004 A 
ATOM      7  C   UNL     1      -3.059   2.461  23.766  0.00  0.00    +0.038 A 
ATOM      8  C   UNL     1      -2.375   2.449  24.226  0.00  0.00    +0.150 A 
ATOM     33  C   UNL     1      -2.251   3.031  24.797  0.00  0.00    +0.052 A 
BRANCH   4   2
ATOM      1  C   UNL     1      -2.072   4.750  25.389  0.00  0.00    +0.112 C 
ATOM      2  N   UNL     1      -2.688   4.208  25.480  0.00  0.00    -0.304 N 
ATOM      3  C   UNL     1      -3.179   4.249  26.140  0.00  0.00    +0.112 C 
ENDBRANCH   4   2
ENDBRANCH   9   8
ENDBRANCH  10   9
ENDBRANCH  15  14
BRANCH  19  23
ATOM     23  N   UNL     1       1.829   0.056  22.956  0.00  0.00    -0.184 NA
ATOM     24  C   UNL     1       1.988  -0.073  22.157  0.00  0.00    +0.339 C 
ATOM     25  O   UNL     1       1.377  -0.279  21.643  0.00  0.00    -0.249 OA
ATOM     26  N   UNL     1       2.758   0.004  21.872  0.00  0.00    -0.189 NA
BRANCH  26  27
ATOM     27  C   UNL     1       3.369   0.211  22.386  0.00  0.00    +0.097 C 
ATOM     28  C   UNL     1       3.747  -0.371  22.833  0.00  0.00    +0.022 C 
ATOM     29  C   UNL     1       4.358  -0.165  23.347  0.00  0.00    +0.002 C 
ATOM     30  C   UNL     1       4.593   0.623  23.415  0.00  0.00    +0.000 C 
ATOM     31  C   UNL     1       4.215   1.205  22.968  0.00  0.00    +0.002 C 
ATOM     32  C   UNL     1       3.604   0.999  22.454  0.00  0.00    +0.022 C 
ENDBRANCH  26  27
ENDBRANCH  19  23
TORSDOF 6
ENDMDL
MODEL 4
REMARK VINA RESULT:      -9.6      2.432      4.954
REMARK  Name = 
REMARK  6 active torsions:
REMARK  status: ('A' for Active; 'I' for Inactive)
REMARK    1  A    between atoms: N_2  and  C_4
REMARK    2  A    between atoms: C_8  and  O_9
REMARK    3  A    between atoms: O_9  and  C_10
REMARK    4  A    between atoms: N_14  and  C_15
REMARK    5  A    between atoms: C_19  and  N_23
REMARK    6  A    between atoms: N_26  and  C_27
REMARK                            x       y       z     vdW  Elec       q    Type
REMARK                         _______ _______ _______ _____ _____    ______ ____
ROOT
ATOM     15  C   UNL     1      -1.072   0.307  24.703  0.00  0.00    +0.170 C 
ATOM     16  C   UNL     1      -0.912   0.972  25.164  0.00  0.00    +0.169 C 
ATOM     17  O   UNL     1      -1.557   1.483  25.104  0.00  0.00    -0.350 OA
ATOM     18  C   UNL     1      -2.114   1.134  24.608  0.00  0.00    +0.167 C 
ATOM     19  C   UNL     1      -2.857   1.233  24.263  0.00  0.00    +0.156 C 
ATOM     20  C   UNL     1      -3.017   0.568  23.802  0.00  0.00    +0.166 C 
ATOM     21  O   UNL     1      -2.372   0.057  23.862  0.00  0.00    -0.350 OA
ATOM     22  C   UNL     1      -1.814   0.407  24.359  0.00  0.00    +0.169 C 
ENDROOT
BRANCH  15  14
ATOM     10  C   UNL     1       0.085  -0.380  24.110  0.00  0.00    +0.343 A 
ATOM     11  N   UNL     1       0.417  -1.132  24.182  0.00  0.00    -0.071 NA
ATOM     12  N   UNL     1      -0.038  -1.562  24.719  0.00  0.00    -0.020 NA
ATOM     13  N   UNL     1      -0.651  -1.075  24.980  0.00  0.00    -0.040 NA
ATOM     14  N   UNL     1      -0.575  -0.345  24.603  0.00  0.00    -0.180 N 
BRANCH  10   9
ATOM      9  O   UNL     1       0.365   0.230  23.630  0.00  0.00    -0.421 OA
BRANCH   9   8
ATOM      4  C   UNL     1       2.320   0.127  22.666  0.00  0.00    +0.051 A 
ATOM      5  C   UNL     1       2.123  -0.229  21.949  0.00  0.00    +0.015 A 
ATOM      6  C   UNL     1       1.339  -0.432  21.791  0.00  0.00    +0.004 A 
ATOM      7  C   UNL     1       0.753  -0.279  22.352  0.00  0.00    +0.038 A 
ATOM      8  C   UNL     1       0.951   0.077  23.069  0.00  0.00    +0.150 A 
ATOM     33  C   UNL     1       1.735   0.280  23.226  0.00  0.00    +0.052 A 
BRANCH   4   2
ATOM      1  C   UNL     1       3.354   1.113  22.738  0.00  0.00    +0.112 C 
ATOM      2  N   UNL     1       3.105   0.330  22.824  0.00  0.00    -0.304 N 
ATOM      3  C   UNL     1       3.640  -0.248  23.067  0.00  0.00    +0.112 C 
ENDBRANCH   4   2
ENDBRANCH   9   8
ENDBRANCH  10   9
ENDBRANCH  15  14
BRANCH  19  23
ATOM     23  N   UNL     1      -3.354   1.885  24.363  0.00  0.00    -0.184 NA
ATOM     24  C   UNL     1      -3.596   2.324  23.707  0.00  0.00    +0.339 C 
ATOM     25  O   UNL     1      -3.341   2.111  22.952  0.00  0.00    -0.249 OA
ATOM     26  N   UNL     1      -4.092   2.975  23.806  0.00  0.00    -0.189 NA
BRANCH  26  27
ATOM     27  C   UNL     1      -4.348   3.187  24.561  0.00  0.00    +0.097 C 
ATOM     28  C   UNL     1      -5.035   2.855  24.873  0.00  0.00    +0.022 C 
ATOM     29  C   UNL     1      -5.290   3.067  25.629  0.00  0.00    +0.002 C 
ATOM     30  C   UNL     1      -4.859   3.612  26.073  0.00  0.00    +0.000 C 
ATOM     31  C   UNL     1      -4.170   3.945  25.760  0.00  0.00    +0.002 C 
ATOM     32  C   UNL     1      -3.916   3.732  25.006  0.00  0.00    +0.022 C 
ENDBRANCH  26  27
ENDBRANCH  19  23
TORSDOF 6
ENDMDL
MODEL 5
REMARK VINA RESULT:      -9.5      1.432      5.321
REMARK  Name = 
REMARK  6 active torsions:
REMARK  status: ('A' for Active; 'I' for Inactive)
REMARK    1  A    between atoms: N_2  and  C_4
REMARK    2  A    between atoms: C_8  and  O_9
REMARK    3  A    between atoms: O_9  and  C_10
REMARK    4  A    between atoms: N_14  and  C_15
REMARK    5  A    between atoms: C_19  and  N_23
REMARK    6  A    between atoms: N_26  and  C_27
REMARK                            x       y       z     vdW  Elec       q    Type
REMARK                         _______ _______ _______ _____ _____    ______ ____
ROOT
ATOM     15  C   UNL     1      -0.974   0.469  24.613  0.00  0.00    +0.170 C 
ATOM     16  C   UNL     1      -0.932   0.781  25.375  0.00  0.00    +0.169 C 
ATOM     17  O   UNL     1      -1.372   1.478  25.389  0.00  0.00    -0.350 OA
ATOM     18  C   UNL     1      -1.687   1.597  24.637  0.00  0.00    +0.167 C 
ATOM     19  C   UNL     1      -2.153   2.101  24.179  0.00  0.00    +0.156 C 
ATOM     20  C   UNL     1      -2.196   1.789  23.417  0.00  0.00    +0.166 C 
ATOM     21  O   UNL     1      -1.755   1.092  23.403  0.00  0.00    -0.350 OA
ATOM     22  C   UNL     1      -1.440   0.973  24.156  0.00  0.00    +0.169 C 
ENDROOT
BRANCH  15  14
ATOM     10  C   UNL     1      -0.839  -0.994  24.552  0.00  0.00    +0.343 A 
ATOM     11  N   UNL     1      -0.328  -1.517  24.170  0.00  0.00    -0.071 NA
ATOM     12  N   UNL     1       0.214  -1.073  23.734  0.00  0.00    -0.020 NA
ATOM     13  N   UNL     1       0.038  -0.275  23.847  0.00  0.00    -0.040 NA
ATOM     14  N   UNL     1      -0.613  -0.226  24.352  0.00  0.00    -0.180 N 
BRANCH  10   9
ATOM      9  O   UNL     1      -1.466  -1.202  25.046  0.00  0.00    -0.421 OA
BRANCH   9   8
ATOM      4  C   UNL     1      -3.264  -2.203  24.322  0.00  0.00    +0.051 A 
ATOM      5  C   UNL     1      -3.033  -2.993  24.367  0.00  0.00    +0.015 A 
ATOM      6  C   UNL     1      -2.279  -3.187  24.639  0.00  0.00    +0.004 A 
ATOM      7  C   UNL     1      -1.756  -2.589  24.865  0.00  0.00    +0.038 A 
ATOM      8  C   UNL     1      -1.988  -1.800  24.820  0.00  0.00    +0.150 A 
ATOM     33  C   UNL     1      -2.742  -1.606  24.548  0.00  0.00    +0.052 A 
BRANCH   4   2
ATOM      1  C   UNL     1      -4.367  -1.294  24.272  0.00  0.00    +0.112 C 
ATOM      2  N   UNL     1      -4.020  -2.009  24.050  0.00  0.00    -0.304 N 
ATOM      3  C   UNL     1      -4.426  -2.530  23.557  0.00  0.00    +0.112 C 
ENDBRANCH   4   2
ENDBRANCH   9   8
ENDBRANCH  10   9
ENDBRANCH  15  14
BRANCH  19  23
ATOM     23  N   UNL     1      -2.515   2.796  24.439  0.00  0.00    -0.184 NA
ATOM     24  C   UNL     1      -3.128   3.131  24.001  0.00  0.00    +0.339 C 
ATOM     25  O   UNL     1      -3.380   2.772  23.303  0.00  0.00    -0.249 OA
ATOM     26  N   UNL     1      -3.489   3.825  24.261  0.00  0.00    -0.189 NA
BRANCH  26  27
ATOM     27  C   UNL     1      -3.237   4.185  24.959  0.00  0.00    +0.097 C 
ATOM     28  C   UNL     1      -2.602   4.710  24.947  0.00  0.00    +0.022 C 
ATOM     29  C   UNL     1      -2.349   5.070  25.645  0.00  0.00    +0.002 C 
ATOM     30  C   UNL     1      -2.732   4.904  26.357  0.00  0.00    +0.000 C 
ATOM     31  C   UNL     1      -3.368   4.378  26.369  0.00  0.00    +0.002 C 
ATOM     32  C   UNL     1      -3.620   4.019  25.671  0.00  0.00    +0.022 C 
ENDBRANCH  26  27
ENDBRANCH  19  23
TORSDOF 6
ENDMDL
MODEL 6
REMARK VINA RESULT:      -9.3      1.867      3.005
REMARK  Name = 
REMARK  6 active torsions:
REMARK  status: ('A' for Active; 'I' for Inactive)
REMARK    1  A    between atoms: N_2  and  C_4
REMARK    2  A    between atoms: C_8  and  O_9
REMARK    3  A    between atoms: O_9  and  C_10
REMARK    4  A    between atoms: N_14  and  C_15
REMARK    5  A    between atoms: C_19  and  N_23
REMARK    6  A    between atoms: N_26  and  C_27
REMARK                            x       y       z     vdW  Elec       q    Type
REMARK                         _______ _______ _______ _____ _____    ______ ____
ROOT
ATOM     15  C   UNL     1      -1.182   2.841  25.310  0.00  0.00    +0.170 C 
ATOM     16  C   UNL     1      -0.975   2.402  25.977  0.00  0.00    +0.169 C 
ATOM     17  O   UNL     1      -0.842   1.624  25.737  0.00  0.00    -0.350 OA
ATOM     18  C   UNL     1      -0.967   1.582  24.923  0.00  0.00    +0.167 C 
ATOM     19  C   UNL     1      -0.963   1.077  24.271  0.00  0.00    +0.156 C 
ATOM     20  C   UNL     1      -1.171   1.516  23.605  0.00  0.00    +0.166 C 
ATOM     21  O   UNL     1      -1.303   2.294  23.845  0.00  0.00    -0.350 OA
ATOM     22  C   UNL     1      -1.178   2.335  24.660  0.00  0.00    +0.169 C 
ENDROOT
BRANCH  15  14
ATOM     10  C   UNL     1      -2.030   3.999  25.630  0.00  0.00    +0.343 A 
ATOM     11  N   UNL     1      -1.988   4.811  25.488  0.00  0.00    -0.071 NA
ATOM     12  N   UNL     1      -1.294   4.960  25.067  0.00  0.00    -0.020 NA
ATOM     13  N   UNL     1      -0.908   4.240  24.949  0.00  0.00    -0.040 NA
ATOM     14  N   UNL     1      -1.363   3.647  25.297  0.00  0.00    -0.180 N 
BRANCH  10   9
ATOM      9  O   UNL     1      -2.634   3.609  26.035  0.00  0.00    -0.421 OA
BRANCH   9   8
ATOM      4  C   UNL     1      -4.677   3.266  25.349  0.00  0.00    +0.051 A 
ATOM      5  C   UNL     1      -4.998   4.023  25.427  0.00  0.00    +0.015 A 
ATOM      6  C   UNL     1      -4.530   4.641  25.708  0.00  0.00    +0.004 A 
ATOM      7  C   UNL     1      -3.742   4.503  25.911  0.00  0.00    +0.038 A 
ATOM      8  C   UNL     1      -3.422   3.747  25.832  0.00  0.00    +0.150 A 
ATOM     33  C   UNL     1      -3.890   3.129  25.551  0.00  0.00    +0.052 A 
BRANCH   4   2
ATOM      1  C   UNL     1      -4.946   2.267  24.362  0.00  0.00    +0.112 C 
ATOM      2  N   UNL     1      -5.145   2.647  25.067  0.00  0.00    -0.304 N 
ATOM      3  C   UNL     1      -5.811   2.409  25.490  0.00  0.00    +0.112 C 
ENDBRANCH   4   2
ENDBRANCH   9   8
ENDBRANCH  10   9
ENDBRANCH  15  14
BRANCH  19  23
ATOM     23  N   UNL     1      -0.782   0.271  24.284  0.00  0.00    -0.184 NA
ATOM     24  C   UNL     1      -0.151  -0.017  23.838  0.00  0.00    +0.339 C 
ATOM     25  O   UNL     1       0.299   0.499  23.379  0.00  0.00    -0.249 OA
ATOM     26  N   UNL     1       0.029  -0.822  23.851  0.00  0.00    -0.189 NA
BRANCH  26  27
ATOM     27  C   UNL     1      -0.421  -1.338  24.310  0.00  0.00    +0.097 C 
ATOM     28  C   UNL     1      -1.105  -1.678  23.998  0.00  0.00    +0.022 C 
ATOM     29  C   UNL     1      -1.556  -2.194  24.457  0.00  0.00    +0.002 C 
ATOM     30  C   UNL     1      -1.323  -2.372  25.229  0.00  0.00    +0.000 C 
ATOM     31  C   UNL     1      -0.638  -2.032  25.541  0.00  0.00    +0.002 C 
ATOM     32  C   UNL     1      -0.188  -1.516  25.081  0.00  0.00    +0.022 C 
ENDBRANCH  26  27
ENDBRANCH  19  23
TORSDOF 6
ENDMDL
MODEL 7
REMARK VINA RESULT:      -9.2      1.894      5.621
REMARK  Name = 
REMARK  6 active torsions:
REMARK  status: ('A' for Active; 'I' for Inactive)
REMARK    1  A    between atoms: N_2  and  C_4
REMARK    2  A    between atoms: C_8  and  O_9
REMARK    3  A    between atoms: O_9  and  C_10
REMARK    4  A    between atoms: N_14  and  C_15
REMARK    5  A    between atoms: C_19  and  N_23
REMARK    6  A    between atoms: N_26  and  C_27
REMARK                            x       y       z     vdW  Elec       q    Type
REMARK                         _______ _______ _______ _____ _____    ______ ____
ROOT
ATOM     15  C   UNL     1      -4.073  -0.245  24.579  0.00  0.00    +0.170 C 
ATOM     16  C   UNL     1      -4.285   0.028  25.328  0.00  0.00    +0.169 C 
ATOM     17  O   UNL     1      -4.155   0.843  25.348  0.00  0.00    -0.350 OA
ATOM     18  C   UNL     1      -3.863   1.073  24.612  0.00  0.00    +0.167 C 
ATOM     19  C   UNL     1      -3.603   1.717  24.168  0.00  0.00    +0.156 C 
ATOM     20  C   UNL     1      -3.391   1.444  23.419  0.00  0.00    +0.166 C 
ATOM     21  O   UNL     1      -3.521   0.630  23.400  0.00  0.00    -0.350 OA
ATOM     22  C   UNL     1      -3.813   0.400  24.137  0.00  0.00    +0.169 C 
ENDROOT
BRANCH  15  14
ATOM     10  C   UNL     1      -3.628  -1.646  24.564  0.00  0.00    +0.343 A 
ATOM     11  N   UNL     1      -3.863  -2.329  24.164  0.00  0.00    -0.071 NA
ATOM     12  N   UNL     1      -4.496  -2.132  23.673  0.00  0.00    -0.020 NA
ATOM     13  N   UNL     1      -4.652  -1.327  23.769  0.00  0.00    -0.040 NA
ATOM     14  N   UNL     1      -4.115  -1.027  24.319  0.00  0.00    -0.180 N 
BRANCH  10   9
ATOM      9  O   UNL     1      -3.013  -1.592  25.111  0.00  0.00    -0.421 OA
BRANCH   9   8
ATOM      4  C   UNL     1      -0.906  -1.489  24.553  0.00  0.00    +0.051 A 
ATOM      5  C   UNL     1      -0.725  -2.290  24.474  0.00  0.00    +0.015 A 
ATOM      6  C   UNL     1      -1.308  -2.859  24.607  0.00  0.00    +0.004 A 
ATOM      7  C   UNL     1      -2.070  -2.626  24.819  0.00  0.00    +0.038 A 
ATOM      8  C   UNL     1      -2.250  -1.825  24.899  0.00  0.00    +0.150 A 
ATOM     33  C   UNL     1      -1.668  -1.256  24.765  0.00  0.00    +0.052 A 
BRANCH   4   2
ATOM      1  C   UNL     1      -0.248  -0.278  24.934  0.00  0.00    +0.112 C 
ATOM      2  N   UNL     1      -0.322  -0.920  24.420  0.00  0.00    -0.304 N 
ATOM      3  C   UNL     1       0.185  -0.993  23.774  0.00  0.00    +0.112 C 
ENDBRANCH   4   2
ENDBRANCH   9   8
ENDBRANCH  10   9
ENDBRANCH  15  14
BRANCH  19  23
ATOM     23  N   UNL     1      -3.561   2.499  24.428  0.00  0.00    -0.184 NA
ATOM     24  C   UNL     1      -3.861   3.108  23.958  0.00  0.00    +0.339 C 
ATOM     25  O   UNL     1      -4.202   2.934  23.227  0.00  0.00    -0.249 OA
ATOM     26  N   UNL     1      -3.819   3.889  24.218  0.00  0.00    -0.189 NA
BRANCH  26  27
ATOM     27  C   UNL     1      -3.478   4.063  24.948  0.00  0.00    +0.097 C 
ATOM     28  C   UNL     1      -3.945   4.085  25.628  0.00  0.00    +0.022 C 
ATOM     29  C   UNL     1      -3.603   4.259  26.358  0.00  0.00    +0.002 C 
ATOM     30  C   UNL     1      -2.794   4.411  26.411  0.00  0.00    +0.000 C 
ATOM     31  C   UNL     1      -2.326   4.389  25.730  0.00  0.00    +0.002 C 
ATOM     32  C   UNL     1      -2.668   4.215  25.001  0.00  0.00    +0.022 C 
ENDBRANCH  26  27
ENDBRANCH  19  23
TORSDOF 6
ENDMDL
