MODEL 1
REMARK VINA RESULT:     -11.4      0.000      0.000
REMARK  Name = 
REMARK  6 active torsions:
REMARK  status: ('A' for Active; 'I' for Inactive)
REMARK    1  A    between atoms: C_2  and  C_3
REMARK    2  A    between atoms: C_5  and  C_6
REMARK    3  A    between atoms: C_6  and  N_7
REMARK    4  A    between atoms: C_8  and  C_10
REMARK    5  A    between atoms: C_15  and  N_18
REMARK    6  A    between atoms: N_21  and  C_24
REMARK                            x       y       z     vdW  Elec       q    Type
REMARK                         _______ _______ _______ _____ _____    ______ ____
ROOT
ATOM      3  C   UNL     1      -5.287   2.966  25.287  0.00  0.00    +0.180 C 
ATOM      4  O   UNL     1      -4.488   3.168  25.312  0.00  0.00    -0.350 OA
ATOM      5  C   UNL     1      -4.048   2.482  25.180  0.00  0.00    +0.154 C 
ATOM     15  C   UNL     1      -4.575   1.857  25.073  0.00  0.00    +0.120 C 
ATOM     16  C   UNL     1      -5.342   2.156  25.140  0.00  0.00    +0.198 C 
ATOM     17  O   UNL     1      -6.040   1.721  25.071  0.00  0.00    -0.219 OA
ENDROOT
BRANCH  15  18
ATOM     18  N   UNL     1      -4.373   1.071  24.927  0.00  0.00    -0.267 NA
ATOM     19  C   UNL     1      -4.366   0.524  25.545  0.00  0.00    +0.094 C 
ATOM     20  C   UNL     1      -4.163  -0.262  25.398  0.00  0.00    +0.108 C 
ATOM     21  N   UNL     1      -3.967  -0.501  24.633  0.00  0.00    -0.305 N 
ATOM     22  C   UNL     1      -3.974   0.045  24.016  0.00  0.00    +0.108 C 
ATOM     23  C   UNL     1      -4.176   0.831  24.162  0.00  0.00    +0.094 C 
BRANCH  21  24
ATOM     24  C   UNL     1      -3.764  -1.288  24.486  0.00  0.00    +0.048 A 
ATOM     25  C   UNL     1      -4.248  -1.756  24.010  0.00  0.00    +0.015 A 
ATOM     26  C   UNL     1      -4.045  -2.543  23.863  0.00  0.00    +0.001 A 
ATOM     27  C   UNL     1      -3.358  -2.861  24.194  0.00  0.00    +0.000 A 
ATOM     28  C   UNL     1      -2.875  -2.391  24.670  0.00  0.00    +0.001 A 
ATOM     29  C   UNL     1      -3.079  -1.605  24.817  0.00  0.00    +0.015 A 
ENDBRANCH  21  24
ENDBRANCH  15  18
BRANCH   3   2
ATOM      1  O   UNL     1      -5.805   4.207  25.770  0.00  0.00    -0.218 OA
ATOM      2  C   UNL     1      -5.921   3.483  25.392  0.00  0.00    +0.214 C 
ENDBRANCH   3   2
BRANCH   5   6
ATOM      6  C   UNL     1      -3.225   2.432  25.158  0.00  0.00    +0.146 C 
BRANCH   6   7
ATOM      7  N   UNL     1      -2.773   3.111  25.042  0.00  0.00    -0.199 NA
ATOM      8  C   UNL     1      -1.965   3.103  25.211  0.00  0.00    +0.271 C 
ATOM      9  O   UNL     1      -1.610   2.417  25.497  0.00  0.00    -0.268 OA
BRANCH   8  10
ATOM     10  C   UNL     1      -1.513   3.784  25.094  0.00  0.00    +0.084 A 
ATOM     11  C   UNL     1      -1.722   4.550  25.317  0.00  0.00    +0.012 A 
ATOM     12  C   UNL     1      -1.111   5.056  25.094  0.00  0.00    +0.008 A 
ATOM     13  C   UNL     1      -0.523   4.603  24.732  0.00  0.00    +0.036 A 
ATOM     14  S   UNL     1      -0.771   3.816  24.732  0.00  0.00    -0.082 S 
ENDBRANCH   8  10
ENDBRANCH   6   7
ENDBRANCH   5   6
TORSDOF 6
ENDMDL
MODEL 2
REMARK VINA RESULT:     -10.9      1.449      4.795
REMARK  Name = 
REMARK  6 active torsions:
REMARK  status: ('A' for Active; 'I' for Inactive)
REMARK    1  A    between atoms: C_2  and  C_3
REMARK    2  A    between atoms: C_5  and  C_6
REMARK    3  A    between atoms: C_6  and  N_7
REMARK    4  A    between atoms: C_8  and  C_10
REMARK    5  A    between atoms: C_15  and  N_18
REMARK    6  A    between atoms: N_21  and  C_24
REMARK                            x       y       z     vdW  Elec       q    Type
REMARK                         _______ _______ _______ _____ _____    ______ ____
ROOT
ATOM      3  C   UNL     1      -5.814   1.902  25.156  0.00  0.00    +0.180 C 
ATOM      4  O   UNL     1      -5.374   1.226  24.981  0.00  0.00    -0.350 OA
ATOM      5  C   UNL     1      -4.584   1.449  24.902  0.00  0.00    +0.154 C 
ATOM     15  C   UNL     1      -4.535   2.263  25.029  0.00  0.00    +0.120 C 
ATOM     16  C   UNL     1      -5.295   2.543  25.186  0.00  0.00    +0.198 C 
ATOM     17  O   UNL     1      -5.500   3.327  25.345  0.00  0.00    -0.219 OA
ENDROOT
BRANCH  15  18
ATOM     18  N   UNL     1      -3.847   2.718  25.003  0.00  0.00    -0.267 NA
ATOM     19  C   UNL     1      -3.405   2.836  25.690  0.00  0.00    +0.094 C 
ATOM     20  C   UNL     1      -2.717   3.291  25.665  0.00  0.00    +0.108 C 
ATOM     21  N   UNL     1      -2.471   3.627  24.951  0.00  0.00    -0.305 N 
ATOM     22  C   UNL     1      -2.912   3.508  24.266  0.00  0.00    +0.108 C 
ATOM     23  C   UNL     1      -3.600   3.053  24.291  0.00  0.00    +0.094 C 
BRANCH  21  24
ATOM     24  C   UNL     1      -1.782   4.081  24.926  0.00  0.00    +0.048 A 
ATOM     25  C   UNL     1      -1.821   4.895  25.053  0.00  0.00    +0.015 A 
ATOM     26  C   UNL     1      -1.132   5.350  25.028  0.00  0.00    +0.001 A 
ATOM     27  C   UNL     1      -0.405   4.990  24.875  0.00  0.00    +0.000 A 
ATOM     28  C   UNL     1      -0.368   4.175  24.748  0.00  0.00    +0.001 A 
ATOM     29  C   UNL     1      -1.056   3.721  24.774  0.00  0.00    +0.015 A 
ENDBRANCH  21  24
ENDBRANCH  15  18
BRANCH   3   2
ATOM      1  O   UNL     1      -7.141   1.567  24.745  0.00  0.00    -0.218 OA
ATOM      2  C   UNL     1      -6.628   1.931  25.280  0.00  0.00    +0.214 C 
ENDBRANCH   3   2
BRANCH   5   6
ATOM      6  C   UNL     1      -3.954   0.947  24.727  0.00  0.00    +0.146 C 
BRANCH   6   7
ATOM      7  N   UNL     1      -4.068   0.131  24.716  0.00  0.00    -0.199 NA
ATOM      8  C   UNL     1      -3.449  -0.370  24.494  0.00  0.00    +0.271 C 
ATOM      9  O   UNL     1      -2.718  -0.053  24.283  0.00  0.00    -0.268 OA
BRANCH   8  10
ATOM     10  C   UNL     1      -3.564  -1.187  24.484  0.00  0.00    +0.084 A 
ATOM     11  C   UNL     1      -4.012  -1.607  23.934  0.00  0.00    +0.012 A 
ATOM     12  C   UNL     1      -3.976  -2.407  24.132  0.00  0.00    +0.008 A 
ATOM     13  C   UNL     1      -3.505  -2.481  24.805  0.00  0.00    +0.036 A 
ATOM     14  S   UNL     1      -3.250  -1.727  25.023  0.00  0.00    -0.082 S 
ENDBRANCH   8  10
ENDBRANCH   6   7
ENDBRANCH   5   6
TORSDOF 6
ENDMDL
MODEL 3
REMARK VINA RESULT:     -10.2      2.569      5.919
REMARK  Name = 
REMARK  6 active torsions:
REMARK  status: ('A' for Active; 'I' for Inactive)
REMARK    1  A    between atoms: C_2  and  C_3
REMARK    2  A    between atoms: C_5  and  C_6
REMARK    3  A    between atoms: C_6  and  N_7
REMARK    4  A    between atoms: C_8  and  C_10
REMARK    5  A    between atoms: C_15  and  N_18
REMARK    6  A    between atoms: N_21  and  C_24
REMARK                            x       y       z     vdW  Elec       q    Type
REMARK                         _______ _______ _______ _____ _____    ______ ____
ROOT
ATOM      3  C   UNL     1       0.264  -0.044  23.697  0.00  0.00    +0.180 C 
ATOM      4  O   UNL     1      -0.417  -0.426  23.960  0.00  0.00    -0.350 OA
ATOM      5  C   UNL     1      -0.921   0.143  24.282  0.00  0.00    +0.154 C 
ATOM     15  C   UNL     1      -0.550   0.877  24.218  0.00  0.00    +0.120 C 
ATOM     16  C   UNL     1       0.183   0.762  23.856  0.00  0.00    +0.198 C 
ATOM     17  O   UNL     1       0.736   1.350  23.684  0.00  0.00    -0.219 OA
ENDROOT
BRANCH  15  18
ATOM     18  N   UNL     1      -0.858   1.599  24.471  0.00  0.00    -0.267 NA
ATOM     19  C   UNL     1      -1.305   2.061  23.953  0.00  0.00    +0.094 C 
ATOM     20  C   UNL     1      -1.613   2.784  24.206  0.00  0.00    +0.108 C 
ATOM     21  N   UNL     1      -1.473   3.044  24.977  0.00  0.00    -0.305 N 
ATOM     22  C   UNL     1      -1.027   2.583  25.494  0.00  0.00    +0.108 C 
ATOM     23  C   UNL     1      -0.719   1.860  25.241  0.00  0.00    +0.094 C 
BRANCH  21  24
ATOM     24  C   UNL     1      -1.781   3.767  25.230  0.00  0.00    +0.048 A 
ATOM     25  C   UNL     1      -2.485   3.788  25.659  0.00  0.00    +0.015 A 
ATOM     26  C   UNL     1      -2.793   4.511  25.911  0.00  0.00    +0.001 A 
ATOM     27  C   UNL     1      -2.397   5.213  25.735  0.00  0.00    +0.000 A 
ATOM     28  C   UNL     1      -1.692   5.191  25.306  0.00  0.00    +0.001 A 
ATOM     29  C   UNL     1      -1.385   4.469  25.054  0.00  0.00    +0.015 A 
ENDBRANCH  21  24
ENDBRANCH  15  18
BRANCH   3   2
ATOM      1  O   UNL     1       0.851  -0.693  22.567  0.00  0.00    -0.218 OA
ATOM      2  C   UNL     1       0.914  -0.402  23.338  0.00  0.00    +0.214 C 
ENDBRANCH   3   2
BRANCH   5   6
ATOM      6  C   UNL     1      -1.664   0.002  24.610  0.00  0.00    +0.146 C 
BRANCH   6   7
ATOM      7  N   UNL     1      -2.092  -0.668  24.390  0.00  0.00    -0.199 NA
ATOM      8  C   UNL     1      -2.788  -0.862  24.789  0.00  0.00    +0.271 C 
ATOM      9  O   UNL     1      -3.056  -0.387  25.407  0.00  0.00    -0.268 OA
BRANCH   8  10
ATOM     10  C   UNL     1      -3.216  -1.533  24.568  0.00  0.00    +0.084 A 
ATOM     11  C   UNL     1      -3.846  -1.553  24.036  0.00  0.00    +0.012 A 
ATOM     12  C   UNL     1      -4.107  -2.333  23.980  0.00  0.00    +0.008 A 
ATOM     13  C   UNL     1      -3.639  -2.795  24.478  0.00  0.00    +0.036 A 
ATOM     14  S   UNL     1      -3.088  -2.301  24.842  0.00  0.00    -0.082 S 
ENDBRANCH   8  10
ENDBRANCH   6   7
ENDBRANCH   5   6
TORSDOF 6
ENDMDL
MODEL 4
REMARK VINA RESULT:      -9.6      1.766      3.188
REMARK  Name = 
REMARK  6 active torsions:
REMARK  status: ('A' for Active; 'I' for Inactive)
REMARK    1  A    between atoms: C_2  and  C_3
REMARK    2  A    between atoms: C_5  and  C_6
REMARK    3  A    between atoms: C_6  and  N_7
REMARK    4  A    between atoms: C_8  and  C_10
REMARK    5  A    between atoms: C_15  and  N_18
REMARK    6  A    between atoms: N_21  and  C_24
REMARK                            x       y       z     vdW  Elec       q    Type
REMARK                         _______ _______ _______ _____ _____    ______ ____
ROOT
ATOM      3  C   UNL     1      -0.823   2.043  25.569  0.00  0.00    +0.180 C 
ATOM      4  O   UNL     1      -1.458   2.454  25.241  0.00  0.00    -0.350 OA
ATOM      5  C   UNL     1      -2.012   1.901  24.979  0.00  0.00    +0.154 C 
ATOM     15  C   UNL     1      -1.719   1.148  25.145  0.00  0.00    +0.120 C 
ATOM     16  C   UNL     1      -0.984   1.235  25.509  0.00  0.00    +0.198 C 
ATOM     17  O   UNL     1      -0.496   0.623  25.769  0.00  0.00    -0.219 OA
ENDROOT
BRANCH  15  18
ATOM     18  N   UNL     1      -2.094   0.433  24.976  0.00  0.00    -0.267 NA
ATOM     19  C   UNL     1      -2.551   0.061  25.554  0.00  0.00    +0.094 C 
ATOM     20  C   UNL     1      -2.927  -0.654  25.386  0.00  0.00    +0.108 C 
ATOM     21  N   UNL     1      -2.846  -0.997  24.639  0.00  0.00    -0.305 N 
ATOM     22  C   UNL     1      -2.389  -0.625  24.062  0.00  0.00    +0.108 C 
ATOM     23  C   UNL     1      -2.013   0.091  24.230  0.00  0.00    +0.094 C 
BRANCH  21  24
ATOM     24  C   UNL     1      -3.221  -1.712  24.470  0.00  0.00    +0.048 A 
ATOM     25  C   UNL     1      -2.909  -2.419  24.758  0.00  0.00    +0.015 A 
ATOM     26  C   UNL     1      -3.285  -3.135  24.590  0.00  0.00    +0.001 A 
ATOM     27  C   UNL     1      -3.973  -3.142  24.134  0.00  0.00    +0.000 A 
ATOM     28  C   UNL     1      -4.285  -2.434  23.846  0.00  0.00    +0.001 A 
ATOM     29  C   UNL     1      -3.909  -1.720  24.015  0.00  0.00    +0.015 A 
ENDBRANCH  21  24
ENDBRANCH  15  18
BRANCH   3   2
ATOM      1  O   UNL     1      -0.050   3.199  25.896  0.00  0.00    -0.218 OA
ATOM      2  C   UNL     1      -0.147   2.379  25.898  0.00  0.00    +0.214 C 
ENDBRANCH   3   2
BRANCH   5   6
ATOM      6  C   UNL     1      -2.732   2.072  24.614  0.00  0.00    +0.146 C 
BRANCH   6   7
ATOM      7  N   UNL     1      -3.303   2.512  25.015  0.00  0.00    -0.199 NA
ATOM      8  C   UNL     1      -3.983   2.764  24.619  0.00  0.00    +0.271 C 
ATOM      9  O   UNL     1      -4.091   2.575  23.824  0.00  0.00    -0.268 OA
BRANCH   8  10
ATOM     10  C   UNL     1      -4.553   3.205  25.021  0.00  0.00    +0.084 A 
ATOM     11  C   UNL     1      -4.537   4.019  25.147  0.00  0.00    +0.012 A 
ATOM     12  C   UNL     1      -5.214   4.226  25.571  0.00  0.00    +0.008 A 
ATOM     13  C   UNL     1      -5.649   3.538  25.706  0.00  0.00    +0.036 A 
ATOM     14  S   UNL     1      -5.241   2.906  25.366  0.00  0.00    -0.082 S 
ENDBRANCH   8  10
ENDBRANCH   6   7
ENDBRANCH   5   6
TORSDOF 6
ENDMDL
MODEL 5
REMARK VINA RESULT:      -9.1      2.572      3.977
REMARK  Name = 
REMARK  6 active torsions:
REMARK  status: ('A' for Active; 'I' for Inactive)
REMARK    1  A    between atoms: C_2  and  C_3
REMARK    2  A    between atoms: C_5  and  C_6
REMARK    3  A    between atoms: C_6  and  N_7
REMARK    4  A    between atoms: C_8  and  C_10
REMARK    5  A    between atoms: C_15  and  N_18
REMARK    6  A    between atoms: N_21  and  C_24
REMARK                            x       y       z     vdW  Elec       q    Type
REMARK                         _______ _______ _______ _____ _____    ______ ____
ROOT
ATOM      3  C   UNL     1       1.106   1.070  23.567  0.00  0.00    +0.180 C 
ATOM      4  O   UNL     1       0.783   1.648  24.058  0.00  0.00    -0.350 OA
ATOM      5  C   UNL     1       0.092   1.343  24.391  0.00  0.00    +0.154 C 
ATOM     15  C   UNL     1      -0.012   0.576  24.106  0.00  0.00    +0.120 C 
ATOM     16  C   UNL     1       0.615   0.407  23.596  0.00  0.00    +0.198 C 
ATOM     17  O   UNL     1       0.730  -0.301  23.188  0.00  0.00    -0.219 OA
ENDROOT
BRANCH  15  18
ATOM     18  N   UNL     1      -0.632   0.068  24.297  0.00  0.00    -0.267 NA
ATOM     19  C   UNL     1      -0.540  -0.487  24.901  0.00  0.00    +0.094 C 
ATOM     20  C   UNL     1      -1.161  -0.997  25.093  0.00  0.00    +0.108 C 
ATOM     21  N   UNL     1      -1.874  -0.950  24.679  0.00  0.00    -0.305 N 
ATOM     22  C   UNL     1      -1.966  -0.396  24.076  0.00  0.00    +0.108 C 
ATOM     23  C   UNL     1      -1.345   0.113  23.885  0.00  0.00    +0.094 C 
BRANCH  21  24
ATOM     24  C   UNL     1      -2.495  -1.460  24.871  0.00  0.00    +0.048 A 
ATOM     25  C   UNL     1      -3.034  -1.249  25.458  0.00  0.00    +0.015 A 
ATOM     26  C   UNL     1      -3.655  -1.758  25.649  0.00  0.00    +0.001 A 
ATOM     27  C   UNL     1      -3.735  -2.478  25.253  0.00  0.00    +0.000 A 
ATOM     28  C   UNL     1      -3.195  -2.688  24.666  0.00  0.00    +0.001 A 
ATOM     29  C   UNL     1      -2.575  -2.178  24.475  0.00  0.00    +0.015 A 
ENDBRANCH  21  24
ENDBRANCH  15  18
BRANCH   3   2
ATOM      1  O   UNL     1       2.472   1.474  23.463  0.00  0.00    -0.218 OA
ATOM      2  C   UNL     1       1.797   1.141  23.124  0.00  0.00    +0.214 C 
ENDBRANCH   3   2
BRANCH   5   6
ATOM      6  C   UNL     1      -0.406   1.737  24.918  0.00  0.00    +0.146 C 
BRANCH   6   7
ATOM      7  N   UNL     1      -0.591   2.531  24.795  0.00  0.00    -0.199 NA
ATOM      8  C   UNL     1      -0.933   2.973  25.403  0.00  0.00    +0.271 C 
ATOM      9  O   UNL     1      -1.090   2.621  26.131  0.00  0.00    -0.268 OA
BRANCH   8  10
ATOM     10  C   UNL     1      -1.118   3.768  25.279  0.00  0.00    +0.084 A 
ATOM     11  C   UNL     1      -0.599   4.352  25.016  0.00  0.00    +0.012 A 
ATOM     12  C   UNL     1      -1.015   5.063  24.972  0.00  0.00    +0.008 A 
ATOM     13  C   UNL     1      -1.792   4.918  25.209  0.00  0.00    +0.036 A 
ATOM     14  S   UNL     1      -1.856   4.118  25.399  0.00  0.00    -0.082 S 
ENDBRANCH   8  10
ENDBRANCH   6   7
ENDBRANCH   5   6
TORSDOF 6
ENDMDL
MODEL 6
REMARK VINA RESULT:      -8.8      3.194      4.151
REMARK  Name = 
REMARK  6 active torsions:
REMARK  status: ('A' for Active; 'I' for Inactive)
REMARK    1  A    between atoms: C_2  and  C_3
REMARK    2  A    between atoms: C_5  and  C_6
REMARK    3  A    between atoms: C_6  and  N_7
REMARK    4  A    between atoms: C_8  and  C_10
REMARK    5  A    between atoms: C_15  and  N_18
REMARK    6  A    between atoms: N_21  and  C_24
REMARK                            x       y       z     vdW  Elec       q    Type
REMARK                         _______ _______ _______ _____ _____    ______ ____
ROOT
ATOM      3  C   UNL     1      -0.272   2.140  25.349  0.00  0.00    +0.180 C 
ATOM      4  O   UNL     1       0.223   1.796  24.786  0.00  0.00    -0.350 OA
ATOM      5  C   UNL     1      -0.154   1.123  24.492  0.00  0.00    +0.154 C 
ATOM     15  C   UNL     1      -0.882   1.052  24.873  0.00  0.00    +0.120 C 
ATOM     16  C   UNL     1      -0.955   1.680  25.403  0.00  0.00    +0.198 C 
ATOM     17  O   UNL     1      -1.598   1.824  25.900  0.00  0.00    -0.219 OA
ENDROOT
BRANCH  15  18
ATOM     18  N   UNL     1      -1.440   0.457  24.747  0.00  0.00    -0.267 NA
ATOM     19  C   UNL     1      -1.391  -0.250  25.170  0.00  0.00    +0.094 C 
ATOM     20  C   UNL     1      -1.949  -0.845  25.045  0.00  0.00    +0.108 C 
ATOM     21  N   UNL     1      -2.554  -0.733  24.495  0.00  0.00    -0.305 N 
ATOM     22  C   UNL     1      -2.602  -0.027  24.072  0.00  0.00    +0.108 C 
ATOM     23  C   UNL     1      -2.045   0.569  24.198  0.00  0.00    +0.094 C 
BRANCH  21  24
ATOM     24  C   UNL     1      -3.112  -1.328  24.369  0.00  0.00    +0.048 A 
ATOM     25  C   UNL     1      -3.819  -1.156  23.981  0.00  0.00    +0.015 A 
ATOM     26  C   UNL     1      -4.376  -1.751  23.855  0.00  0.00    +0.001 A 
ATOM     27  C   UNL     1      -4.226  -2.519  24.118  0.00  0.00    +0.000 A 
ATOM     28  C   UNL     1      -3.519  -2.691  24.506  0.00  0.00    +0.001 A 
ATOM     29  C   UNL     1      -2.962  -2.096  24.631  0.00  0.00    +0.015 A 
ENDBRANCH  21  24
ENDBRANCH  15  18
BRANCH   3   2
ATOM      1  O   UNL     1       0.552   2.856  26.271  0.00  0.00    -0.218 OA
ATOM      2  C   UNL     1      -0.112   2.823  25.782  0.00  0.00    +0.214 C 
ENDBRANCH   3   2
BRANCH   5   6
ATOM      6  C   UNL     1       0.145   0.613  23.917  0.00  0.00    +0.146 C 
BRANCH   6   7
ATOM      7  N   UNL     1       0.913   0.712  23.636  0.00  0.00    -0.199 NA
ATOM      8  C   UNL     1       1.234   0.164  23.108  0.00  0.00    +0.271 C 
ATOM      9  O   UNL     1       0.786  -0.483  22.863  0.00  0.00    -0.268 OA
BRANCH   8  10
ATOM     10  C   UNL     1       2.004   0.265  22.827  0.00  0.00    +0.084 A 
ATOM     11  C   UNL     1       2.601   0.699  23.193  0.00  0.00    +0.012 A 
ATOM     12  C   UNL     1       3.277   0.651  22.723  0.00  0.00    +0.008 A 
ATOM     13  C   UNL     1       3.096   0.186  22.065  0.00  0.00    +0.036 A 
ATOM     14  S   UNL     1       2.309  -0.053  22.129  0.00  0.00    -0.082 S 
ENDBRANCH   8  10
ENDBRANCH   6   7
ENDBRANCH   5   6
TORSDOF 6
ENDMDL
MODEL 7
REMARK VINA RESULT:      -8.8      2.388      4.460
REMARK  Name = 
REMARK  6 active torsions:
REMARK  status: ('A' for Active; 'I' for Inactive)
REMARK    1  A    between atoms: C_2  and  C_3
REMARK    2  A    between atoms: C_5  and  C_6
REMARK    3  A    between atoms: C_6  and  N_7
REMARK    4  A    between atoms: C_8  and  C_10
REMARK    5  A    between atoms: C_15  and  N_18
REMARK    6  A    between atoms: N_21  and  C_24
REMARK                            x       y       z     vdW  Elec       q    Type
REMARK                         _______ _______ _______ _____ _____    ______ ____
ROOT
ATOM      3  C   UNL     1      -3.558  -1.967  24.163  0.00  0.00    +0.180 C 
ATOM      4  O   UNL     1      -2.794  -1.706  24.333  0.00  0.00    -0.350 OA
ATOM      5  C   UNL     1      -2.837  -0.909  24.543  0.00  0.00    +0.154 C 
ATOM     15  C   UNL     1      -3.628  -0.677  24.502  0.00  0.00    +0.120 C 
ATOM     16  C   UNL     1      -4.073  -1.330  24.267  0.00  0.00    +0.198 C 
ATOM     17  O   UNL     1      -4.891  -1.345  24.156  0.00  0.00    -0.219 OA
ENDROOT
BRANCH  15  18
ATOM     18  N   UNL     1      -3.921   0.076  24.667  0.00  0.00    -0.267 NA
ATOM     19  C   UNL     1      -4.223   0.246  25.416  0.00  0.00    +0.094 C 
ATOM     20  C   UNL     1      -4.517   1.000  25.581  0.00  0.00    +0.108 C 
ATOM     21  N   UNL     1      -4.509   1.582  24.997  0.00  0.00    -0.305 N 
ATOM     22  C   UNL     1      -4.207   1.412  24.249  0.00  0.00    +0.108 C 
ATOM     23  C   UNL     1      -3.913   0.659  24.083  0.00  0.00    +0.094 C 
BRANCH  21  24
ATOM     24  C   UNL     1      -4.803   2.336  25.162  0.00  0.00    +0.048 A 
ATOM     25  C   UNL     1      -4.317   2.996  25.071  0.00  0.00    +0.015 A 
ATOM     26  C   UNL     1      -4.611   3.750  25.236  0.00  0.00    +0.001 A 
ATOM     27  C   UNL     1      -5.391   3.842  25.493  0.00  0.00    +0.000 A 
ATOM     28  C   UNL     1      -5.875   3.180  25.583  0.00  0.00    +0.001 A 
ATOM     29  C   UNL     1      -5.581   2.428  25.418  0.00  0.00    +0.015 A 
ENDBRANCH  21  24
ENDBRANCH  15  18
BRANCH   3   2
ATOM      1  O   UNL     1      -3.407  -3.383  24.279  0.00  0.00    -0.218 OA
ATOM      2  C   UNL     1      -3.769  -2.728  23.930  0.00  0.00    +0.214 C 
ENDBRANCH   3   2
BRANCH   5   6
ATOM      6  C   UNL     1      -2.201  -0.429  24.756  0.00  0.00    +0.146 C 
BRANCH   6   7
ATOM      7  N   UNL     1      -1.540  -0.379  24.266  0.00  0.00    -0.199 NA
ATOM      8  C   UNL     1      -0.848  -0.022  24.541  0.00  0.00    +0.271 C 
ATOM      9  O   UNL     1      -0.818   0.285  25.306  0.00  0.00    -0.268 OA
BRANCH   8  10
ATOM     10  C   UNL     1      -0.187   0.028  24.050  0.00  0.00    +0.084 A 
ATOM     11  C   UNL     1       0.261  -0.606  23.773  0.00  0.00    +0.012 A 
ATOM     12  C   UNL     1       0.867  -0.305  23.302  0.00  0.00    +0.008 A 
ATOM     13  C   UNL     1       0.793   0.517  23.287  0.00  0.00    +0.036 A 
ATOM     14  S   UNL     1       0.142   0.724  23.749  0.00  0.00    -0.082 S 
ENDBRANCH   8  10
ENDBRANCH   6   7
ENDBRANCH   5   6
TORSDOF 6
ENDMDL
