REMARK  Name = 
REMARK  6 active torsions:
REMARK  status: ('A' for Active; 'I' for Inactive)
REMARK    1  A    between atoms: N_2  and  C_4
REMARK    2  A    between atoms: C_7  and  C_8
REMARK    3  A    between atoms: C_8  and  N_9
REMARK    4  A    between atoms: C_18  and  C_19
REMARK    5  A    between atoms: C_19  and  C_20
REMARK    6  A    between atoms: C_20  and  C_21
REMARK                            x       y       z     vdW  Elec       q    Type
REMARK                         _______ _______ _______ _____ _____    ______ ____
ROOT
ATOM      9  N   UNL     1       0.032  -1.498   0.000  0.00  0.00    -0.262 NA
ATOM     10  C   UNL     1       0.411  -2.230   0.000  0.00  0.00    +0.074 C 
ATOM     11  C   UNL     1       1.225  -2.095   0.000  0.00  0.00    +0.035 C 
ATOM     12  C   UNL     1       1.348  -1.279   0.000  0.00  0.00    +0.083 C 
ATOM     13  C   UNL     1       0.611  -0.910   0.000  0.00  0.00    +0.151 C 
ATOM     14  C   UNL     1       0.439  -0.103   0.000  0.00  0.00    +0.257 C 
ATOM     15  O   UNL     1      -0.362   0.093   0.000  0.00  0.00    -0.272 OA
ATOM     16  N   UNL     1       0.963   0.534   0.000  0.00  0.00    -0.203 NA
ATOM     17  C   UNL     1       1.788   0.522   0.000  0.00  0.00    +0.131 C 
ATOM     18  C   UNL     1       2.292  -0.131   0.000  0.00  0.00    +0.080 C 
ATOM     32  N   UNL     1       2.097  -0.932   0.000  0.00  0.00    -0.271 NA
ATOM     33  C   UNL     1       2.734  -1.456   0.000  0.00  0.00    +0.090 C 
ENDROOT
BRANCH   9   8
ATOM      8  C   UNL     1      -0.784  -1.375   0.000  0.00  0.00    +0.100 C 
BRANCH   8   7
ATOM      4  C   UNL     1      -2.327  -3.310   0.000  0.00  0.00    +0.048 A 
ATOM      5  C   UNL     1      -2.629  -2.542   0.000  0.00  0.00    +0.014 A 
ATOM      6  C   UNL     1      -2.115  -1.897   0.000  0.00  0.00    -0.002 A 
ATOM      7  C   UNL     1      -1.299  -2.019   0.000  0.00  0.00    -0.006 A 
ATOM     34  C   UNL     1      -0.997  -2.788   0.000  0.00  0.00    -0.002 A 
ATOM     35  C   UNL     1      -1.512  -3.433   0.000  0.00  0.00    +0.014 A 
BRANCH   4   2
ATOM      1  C   UNL     1      -2.540  -4.723   0.000  0.00  0.00    +0.112 C 
ATOM      2  N   UNL     1      -2.842  -3.955   0.000  0.00  0.00    -0.304 N 
ATOM      3  C   UNL     1      -3.658  -3.832   0.000  0.00  0.00    +0.112 C 
ENDBRANCH   4   2
ENDBRANCH   8   7
ENDBRANCH   9   8
BRANCH  18  19
ATOM     19  C   UNL     1       3.099   0.041   0.000  0.00  0.00    +0.027 C 
BRANCH  19  20
ATOM     20  C   UNL     1       3.354   0.826   0.000  0.00  0.00    +0.087 C 
BRANCH  20  21
ATOM     21  C   UNL     1       4.161   0.997   0.000  0.00  0.00    +0.229 C 
ATOM     22  O   UNL     1       4.713   0.384   0.000  0.00  0.00    -0.275 OA
ATOM     23  N   UNL     1       4.416   1.782   0.000  0.00  0.00    -0.259 N 
ATOM     24  C   UNL     1       3.931   2.449   0.000  0.00  0.00    +0.103 C 
ATOM     25  C   UNL     1       4.416   3.117   0.000  0.00  0.00    +0.049 C 
ATOM     26  C   UNL     1       5.201   2.862   0.000  0.00  0.00    -0.007 A 
ATOM     27  C   UNL     1       5.915   3.274   0.000  0.00  0.00    -0.003 A 
ATOM     28  C   UNL     1       6.630   2.862   0.000  0.00  0.00    -0.000 A 
ATOM     29  C   UNL     1       6.630   2.037   0.000  0.00  0.00    +0.001 A 
ATOM     30  C   UNL     1       5.915   1.624   0.000  0.00  0.00    +0.015 A 
ATOM     31  C   UNL     1       5.201   2.037   0.000  0.00  0.00    +0.050 A 
ENDBRANCH  20  21
ENDBRANCH  19  20
ENDBRANCH  18  19
TORSDOF 6
