MODEL 1
REMARK VINA RESULT:     -12.3      0.000      0.000
REMARK  Name = 
REMARK  3 active torsions:
REMARK  status: ('A' for Active; 'I' for Inactive)
REMARK    1  A    between atoms: C_4  and  C_20
REMARK    2  A    between atoms: C_5  and  N_6
REMARK    3  A    between atoms: C_7  and  C_9
REMARK                            x       y       z     vdW  Elec       q    Type
REMARK                         _______ _______ _______ _____ _____    ______ ____
ROOT
ATOM      1  O   UNL     1      -5.682   3.484  25.362  0.00  0.00    -0.220 OA
ATOM      2  C   UNL     1      -5.095   2.982  25.072  0.00  0.00    +0.184 C 
ATOM      3  C   UNL     1      -4.343   3.209  24.821  0.00  0.00    +0.042 C 
ATOM      4  C   UNL     1      -3.940   2.532  24.576  0.00  0.00    +0.049 C 
ATOM      5  C   UNL     1      -4.443   1.886  24.676  0.00  0.00    +0.133 C 
ATOM     18  C   UNL     1      -5.157   2.164  24.983  0.00  0.00    +0.202 C 
ATOM     19  O   UNL     1      -5.817   1.705  25.168  0.00  0.00    -0.219 OA
ENDROOT
BRANCH   4  20
ATOM     20  C   UNL     1      -3.169   2.505  24.283  0.00  0.00    -0.002 A 
ATOM     21  C   UNL     1      -3.039   2.403  23.474  0.00  0.00    -0.001 A 
ATOM     22  C   UNL     1      -2.269   2.377  23.181  0.00  0.00    +0.020 A 
ATOM     23  C   UNL     1      -1.628   2.452  23.696  0.00  0.00    +0.099 A 
ATOM     24  N   UNL     1      -1.759   2.554  24.504  0.00  0.00    -0.243 NA
ATOM     25  C   UNL     1      -2.530   2.580  24.798  0.00  0.00    +0.095 A 
ENDBRANCH   4  20
BRANCH   5   6
ATOM      6  N   UNL     1      -4.264   1.100  24.501  0.00  0.00    -0.199 NA
ATOM      7  C   UNL     1      -4.376   0.513  25.071  0.00  0.00    +0.289 C 
ATOM      8  O   UNL     1      -4.667   0.714  25.817  0.00  0.00    -0.266 OA
BRANCH   7   9
ATOM      9  C   UNL     1      -4.197  -0.273  24.896  0.00  0.00    +0.166 A 
ATOM     10  N   UNL     1      -4.442  -0.688  24.227  0.00  0.00    -0.234 NA
ATOM     11  C   UNL     1      -4.138  -1.453  24.276  0.00  0.00    +0.088 A 
ATOM     12  C   UNL     1      -3.706  -1.511  24.977  0.00  0.00    +0.049 A 
ATOM     13  S   UNL     1      -3.742  -0.781  25.360  0.00  0.00    -0.062 S 
ATOM     14  C   UNL     1      -3.334  -2.221  25.174  0.00  0.00    +0.008 A 
ATOM     15  C   UNL     1      -3.396  -2.872  24.673  0.00  0.00    +0.001 A 
ATOM     16  C   UNL     1      -3.828  -2.814  23.973  0.00  0.00    +0.002 A 
ATOM     17  C   UNL     1      -4.200  -2.105  23.774  0.00  0.00    +0.020 A 
ENDBRANCH   7   9
ENDBRANCH   5   6
TORSDOF 3
ENDMDL
MODEL 2
REMARK VINA RESULT:     -11.3      1.842      2.577
REMARK  Name = 
REMARK  3 active torsions:
REMARK  status: ('A' for Active; 'I' for Inactive)
REMARK    1  A    between atoms: C_4  and  C_20
REMARK    2  A    between atoms: C_5  and  N_6
REMARK    3  A    between atoms: C_7  and  C_9
REMARK                            x       y       z     vdW  Elec       q    Type
REMARK                         _______ _______ _______ _____ _____    ______ ____
ROOT
ATOM      1  O   UNL     1      -0.559   3.837  24.623  0.00  0.00    -0.220 OA
ATOM      2  C   UNL     1      -1.284   3.446  24.670  0.00  0.00    +0.184 C 
ATOM      3  C   UNL     1      -2.002   3.782  24.899  0.00  0.00    +0.042 C 
ATOM      4  C   UNL     1      -2.580   3.194  24.867  0.00  0.00    +0.049 C 
ATOM      5  C   UNL     1      -2.220   2.495  24.619  0.00  0.00    +0.133 C 
ATOM     18  C   UNL     1      -1.418   2.651  24.497  0.00  0.00    +0.202 C 
ATOM     19  O   UNL     1      -0.851   2.107  24.247  0.00  0.00    -0.219 OA
ENDROOT
BRANCH   4  20
ATOM     20  C   UNL     1      -3.379   3.288  25.051  0.00  0.00    -0.002 A 
ATOM     21  C   UNL     1      -3.938   3.345  24.446  0.00  0.00    -0.001 A 
ATOM     22  C   UNL     1      -4.736   3.439  24.630  0.00  0.00    +0.020 A 
ATOM     23  C   UNL     1      -4.976   3.477  25.419  0.00  0.00    +0.099 A 
ATOM     24  N   UNL     1      -4.418   3.420  26.023  0.00  0.00    -0.243 NA
ATOM     25  C   UNL     1      -3.619   3.325  25.839  0.00  0.00    +0.095 A 
ENDBRANCH   4  20
BRANCH   5   6
ATOM      6  N   UNL     1      -2.594   1.767  24.511  0.00  0.00    -0.199 NA
ATOM      7  C   UNL     1      -2.299   1.092  24.883  0.00  0.00    +0.289 C 
ATOM      8  O   UNL     1      -1.630   1.145  25.362  0.00  0.00    -0.266 OA
BRANCH   7   9
ATOM      9  C   UNL     1      -2.673   0.365  24.775  0.00  0.00    +0.166 A 
ATOM     10  N   UNL     1      -3.181   0.168  24.156  0.00  0.00    -0.234 NA
ATOM     11  C   UNL     1      -3.426  -0.612  24.266  0.00  0.00    +0.088 A 
ATOM     12  C   UNL     1      -3.069  -0.897  24.953  0.00  0.00    +0.049 A 
ATOM     13  S   UNL     1      -2.604  -0.294  25.268  0.00  0.00    -0.062 S 
ATOM     14  C   UNL     1      -3.215  -1.670  25.202  0.00  0.00    +0.008 A 
ATOM     15  C   UNL     1      -3.717  -2.157  24.766  0.00  0.00    +0.001 A 
ATOM     16  C   UNL     1      -4.075  -1.872  24.079  0.00  0.00    +0.002 A 
ATOM     17  C   UNL     1      -3.929  -1.099  23.829  0.00  0.00    +0.020 A 
ENDBRANCH   7   9
ENDBRANCH   5   6
TORSDOF 3
ENDMDL
MODEL 3
REMARK VINA RESULT:     -11.0      2.725      3.423
REMARK  Name = 
REMARK  3 active torsions:
REMARK  status: ('A' for Active; 'I' for Inactive)
REMARK    1  A    between atoms: C_4  and  C_20
REMARK    2  A    between atoms: C_5  and  N_6
REMARK    3  A    between atoms: C_7  and  C_9
REMARK                            x       y       z     vdW  Elec       q    Type
REMARK                         _______ _______ _______ _____ _____    ______ ____
ROOT
ATOM      1  O   UNL     1      -1.342   5.331  25.288  0.00  0.00    -0.220 OA
ATOM      2  C   UNL     1      -1.714   4.599  25.219  0.00  0.00    +0.184 C 
ATOM      3  C   UNL     1      -2.507   4.473  25.028  0.00  0.00    +0.042 C 
ATOM      4  C   UNL     1      -2.641   3.659  25.020  0.00  0.00    +0.049 C 
ATOM      5  C   UNL     1      -1.932   3.281  25.206  0.00  0.00    +0.133 C 
ATOM     18  C   UNL     1      -1.359   3.862  25.330  0.00  0.00    +0.202 C 
ATOM     19  O   UNL     1      -0.569   3.730  25.528  0.00  0.00    -0.219 OA
ENDROOT
BRANCH   4  20
ATOM     20  C   UNL     1      -3.359   3.287  24.854  0.00  0.00    -0.002 A 
ATOM     21  C   UNL     1      -3.858   3.060  25.471  0.00  0.00    -0.001 A 
ATOM     22  C   UNL     1      -4.575   2.689  25.306  0.00  0.00    +0.020 A 
ATOM     23  C   UNL     1      -4.795   2.544  24.524  0.00  0.00    +0.099 A 
ATOM     24  N   UNL     1      -4.296   2.771  23.907  0.00  0.00    -0.243 NA
ATOM     25  C   UNL     1      -3.578   3.143  24.072  0.00  0.00    +0.095 A 
ENDBRANCH   4  20
BRANCH   5   6
ATOM      6  N   UNL     1      -1.816   2.466  25.260  0.00  0.00    -0.199 NA
ATOM      7  C   UNL     1      -1.203   2.107  24.838  0.00  0.00    +0.289 C 
ATOM      8  O   UNL     1      -0.708   2.565  24.363  0.00  0.00    -0.266 OA
BRANCH   7   9
ATOM      9  C   UNL     1      -1.087   1.292  24.893  0.00  0.00    +0.166 A 
ATOM     10  N   UNL     1      -1.298   0.814  25.530  0.00  0.00    -0.234 NA
ATOM     11  C   UNL     1      -1.081   0.039  25.350  0.00  0.00    +0.088 A 
ATOM     12  C   UNL     1      -0.735   0.039  24.601  0.00  0.00    +0.049 A 
ATOM     13  S   UNL     1      -0.739   0.813  24.318  0.00  0.00    -0.062 S 
ATOM     14  C   UNL     1      -0.461  -0.668  24.274  0.00  0.00    +0.008 A 
ATOM     15  C   UNL     1      -0.534  -1.373  24.694  0.00  0.00    +0.001 A 
ATOM     16  C   UNL     1      -0.879  -1.373  25.443  0.00  0.00    +0.002 A 
ATOM     17  C   UNL     1      -1.153  -0.667  25.772  0.00  0.00    +0.020 A 
ENDBRANCH   7   9
ENDBRANCH   5   6
TORSDOF 3
ENDMDL
MODEL 4
REMARK VINA RESULT:     -11.0      1.851      4.226
REMARK  Name = 
REMARK  3 active torsions:
REMARK  status: ('A' for Active; 'I' for Inactive)
REMARK    1  A    between atoms: C_4  and  C_20
REMARK    2  A    between atoms: C_5  and  N_6
REMARK    3  A    between atoms: C_7  and  C_9
REMARK                            x       y       z     vdW  Elec       q    Type
REMARK                         _______ _______ _______ _____ _____    ______ ____
ROOT
ATOM      1  O   UNL     1      -4.020  -3.174  24.227  0.00  0.00    -0.220 OA
ATOM      2  C   UNL     1      -3.608  -2.465  24.317  0.00  0.00    +0.184 C 
ATOM      3  C   UNL     1      -2.827  -2.387  24.571  0.00  0.00    +0.042 C 
ATOM      4  C   UNL     1      -2.641  -1.583  24.580  0.00  0.00    +0.049 C 
ATOM      5  C   UNL     1      -3.307  -1.164  24.333  0.00  0.00    +0.133 C 
ATOM     18  C   UNL     1      -3.905  -1.710  24.171  0.00  0.00    +0.202 C 
ATOM     19  O   UNL     1      -4.666  -1.530  23.908  0.00  0.00    -0.219 OA
ENDROOT
BRANCH   4  20
ATOM     20  C   UNL     1      -1.915  -1.256  24.799  0.00  0.00    -0.002 A 
ATOM     21  C   UNL     1      -1.749  -1.116  25.595  0.00  0.00    -0.001 A 
ATOM     22  C   UNL     1      -1.024  -0.789  25.813  0.00  0.00    +0.020 A 
ATOM     23  C   UNL     1      -0.466  -0.601  25.236  0.00  0.00    +0.099 A 
ATOM     24  N   UNL     1      -0.632  -0.740  24.440  0.00  0.00    -0.243 NA
ATOM     25  C   UNL     1      -1.357  -1.068  24.221  0.00  0.00    +0.095 A 
ENDBRANCH   4  20
BRANCH   5   6
ATOM      6  N   UNL     1      -3.366  -0.345  24.262  0.00  0.00    -0.199 NA
ATOM      7  C   UNL     1      -3.967   0.062  24.654  0.00  0.00    +0.289 C 
ATOM      8  O   UNL     1      -4.510  -0.351  25.118  0.00  0.00    -0.266 OA
BRANCH   7   9
ATOM      9  C   UNL     1      -4.026   0.882  24.582  0.00  0.00    +0.166 A 
ATOM     10  N   UNL     1      -3.706   1.340  23.975  0.00  0.00    -0.234 NA
ATOM     11  C   UNL     1      -3.897   2.128  24.123  0.00  0.00    +0.088 A 
ATOM     12  C   UNL     1      -4.335   2.158  24.821  0.00  0.00    +0.049 A 
ATOM     13  S   UNL     1      -4.415   1.388  25.105  0.00  0.00    -0.062 S 
ATOM     14  C   UNL     1      -4.605   2.884  25.107  0.00  0.00    +0.008 A 
ATOM     15  C   UNL     1      -4.437   3.578  24.696  0.00  0.00    +0.001 A 
ATOM     16  C   UNL     1      -3.999   3.548  23.998  0.00  0.00    +0.002 A 
ATOM     17  C   UNL     1      -3.729   2.824  23.711  0.00  0.00    +0.020 A 
ENDBRANCH   7   9
ENDBRANCH   5   6
TORSDOF 3
ENDMDL
MODEL 5
REMARK VINA RESULT:     -10.9      2.661      5.130
REMARK  Name = 
REMARK  3 active torsions:
REMARK  status: ('A' for Active; 'I' for Inactive)
REMARK    1  A    between atoms: C_4  and  C_20
REMARK    2  A    between atoms: C_5  and  N_6
REMARK    3  A    between atoms: C_7  and  C_9
REMARK                            x       y       z     vdW  Elec       q    Type
REMARK                         _______ _______ _______ _____ _____    ______ ____
ROOT
ATOM      1  O   UNL     1      -0.292  -1.476  24.650  0.00  0.00    -0.220 OA
ATOM      2  C   UNL     1      -0.857  -0.875  24.653  0.00  0.00    +0.184 C 
ATOM      3  C   UNL     1      -1.676  -0.979  24.660  0.00  0.00    +0.042 C 
ATOM      4  C   UNL     1      -2.028  -0.233  24.660  0.00  0.00    +0.049 C 
ATOM      5  C   UNL     1      -1.427   0.332  24.653  0.00  0.00    +0.133 C 
ATOM     18  C   UNL     1      -0.703  -0.065  24.648  0.00  0.00    +0.202 C 
ATOM     19  O   UNL     1       0.042   0.287  24.640  0.00  0.00    -0.219 OA
ENDROOT
BRANCH   4  20
ATOM     20  C   UNL     1      -2.839  -0.079  24.667  0.00  0.00    -0.002 A 
ATOM     21  C   UNL     1      -3.282  -0.231  25.346  0.00  0.00    -0.001 A 
ATOM     22  C   UNL     1      -4.092  -0.077  25.352  0.00  0.00    +0.020 A 
ATOM     23  C   UNL     1      -4.459   0.229  24.679  0.00  0.00    +0.099 A 
ATOM     24  N   UNL     1      -4.016   0.381  24.000  0.00  0.00    -0.243 NA
ATOM     25  C   UNL     1      -3.205   0.227  23.994  0.00  0.00    +0.095 A 
ENDBRANCH   4  20
BRANCH   5   6
ATOM      6  N   UNL     1      -1.531   1.151  24.651  0.00  0.00    -0.199 NA
ATOM      7  C   UNL     1      -1.156   1.616  25.220  0.00  0.00    +0.289 C 
ATOM      8  O   UNL     1      -0.677   1.263  25.791  0.00  0.00    -0.266 OA
BRANCH   7   9
ATOM      9  C   UNL     1      -1.260   2.435  25.217  0.00  0.00    +0.166 A 
ATOM     10  N   UNL     1      -1.914   2.841  25.512  0.00  0.00    -0.234 NA
ATOM     11  C   UNL     1      -1.786   3.648  25.397  0.00  0.00    +0.088 A 
ATOM     12  C   UNL     1      -1.052   3.740  25.031  0.00  0.00    +0.049 A 
ATOM     13  S   UNL     1      -0.727   2.991  24.920  0.00  0.00    -0.062 S 
ATOM     14  C   UNL     1      -0.776   4.495  24.846  0.00  0.00    +0.008 A 
ATOM     15  C   UNL     1      -1.232   5.157  25.027  0.00  0.00    +0.001 A 
ATOM     16  C   UNL     1      -1.966   5.065  25.393  0.00  0.00    +0.002 A 
ATOM     17  C   UNL     1      -2.243   4.311  25.578  0.00  0.00    +0.020 A 
ENDBRANCH   7   9
ENDBRANCH   5   6
TORSDOF 3
ENDMDL
MODEL 6
REMARK VINA RESULT:     -10.8      2.002      4.418
REMARK  Name = 
REMARK  3 active torsions:
REMARK  status: ('A' for Active; 'I' for Inactive)
REMARK    1  A    between atoms: C_4  and  C_20
REMARK    2  A    between atoms: C_5  and  N_6
REMARK    3  A    between atoms: C_7  and  C_9
REMARK                            x       y       z     vdW  Elec       q    Type
REMARK                         _______ _______ _______ _____ _____    ______ ____
ROOT
ATOM      1  O   UNL     1      -4.944  -0.943  24.248  0.00  0.00    -0.220 OA
ATOM      2  C   UNL     1      -4.217  -0.608  24.447  0.00  0.00    +0.184 C 
ATOM      3  C   UNL     1      -3.505  -1.014  24.542  0.00  0.00    +0.042 C 
ATOM      4  C   UNL     1      -2.922  -0.465  24.740  0.00  0.00    +0.049 C 
ATOM      5  C   UNL     1      -3.274   0.281  24.767  0.00  0.00    +0.133 C 
ATOM     18  C   UNL     1      -4.074   0.193  24.586  0.00  0.00    +0.202 C 
ATOM     19  O   UNL     1      -4.633   0.798  24.550  0.00  0.00    -0.219 OA
ENDROOT
BRANCH   4  20
ATOM     20  C   UNL     1      -2.127  -0.632  24.885  0.00  0.00    -0.002 A 
ATOM     21  C   UNL     1      -1.845  -0.653  25.660  0.00  0.00    -0.001 A 
ATOM     22  C   UNL     1      -1.051  -0.820  25.804  0.00  0.00    +0.020 A 
ATOM     23  C   UNL     1      -0.538  -0.966  25.175  0.00  0.00    +0.099 A 
ATOM     24  N   UNL     1      -0.820  -0.945  24.400  0.00  0.00    -0.243 NA
ATOM     25  C   UNL     1      -1.615  -0.778  24.255  0.00  0.00    +0.095 A 
ENDBRANCH   4  20
BRANCH   5   6
ATOM      6  N   UNL     1      -2.892   0.991  24.944  0.00  0.00    -0.199 NA
ATOM      7  C   UNL     1      -2.956   1.633  24.429  0.00  0.00    +0.289 C 
ATOM      8  O   UNL     1      -3.401   1.565  23.738  0.00  0.00    -0.266 OA
BRANCH   7   9
ATOM      9  C   UNL     1      -2.574   2.343  24.606  0.00  0.00    +0.166 A 
ATOM     10  N   UNL     1      -1.798   2.539  24.409  0.00  0.00    -0.234 NA
ATOM     11  C   UNL     1      -1.646   3.298  24.693  0.00  0.00    +0.088 A 
ATOM     12  C   UNL     1      -2.330   3.572  25.065  0.00  0.00    +0.049 A 
ATOM     13  S   UNL     1      -2.903   2.983  25.012  0.00  0.00    -0.062 S 
ATOM     14  C   UNL     1      -2.340   4.325  25.404  0.00  0.00    +0.008 A 
ATOM     15  C   UNL     1      -1.669   4.802  25.371  0.00  0.00    +0.001 A 
ATOM     16  C   UNL     1      -0.986   4.528  24.999  0.00  0.00    +0.002 A 
ATOM     17  C   UNL     1      -0.974   3.776  24.660  0.00  0.00    +0.020 A 
ENDBRANCH   7   9
ENDBRANCH   5   6
TORSDOF 3
ENDMDL
MODEL 7
REMARK VINA RESULT:     -10.8      2.123      4.459
REMARK  Name = 
REMARK  3 active torsions:
REMARK  status: ('A' for Active; 'I' for Inactive)
REMARK    1  A    between atoms: C_4  and  C_20
REMARK    2  A    between atoms: C_5  and  N_6
REMARK    3  A    between atoms: C_7  and  C_9
REMARK                            x       y       z     vdW  Elec       q    Type
REMARK                         _______ _______ _______ _____ _____    ______ ____
ROOT
ATOM      1  O   UNL     1       0.131  -0.287  24.016  0.00  0.00    -0.220 OA
ATOM      2  C   UNL     1      -0.651  -0.343  24.272  0.00  0.00    +0.184 C 
ATOM      3  C   UNL     1      -1.073  -1.042  24.393  0.00  0.00    +0.042 C 
ATOM      4  C   UNL     1      -1.832  -0.840  24.648  0.00  0.00    +0.049 C 
ATOM      5  C   UNL     1      -1.879  -0.018  24.684  0.00  0.00    +0.133 C 
ATOM     18  C   UNL     1      -1.149   0.290  24.452  0.00  0.00    +0.202 C 
ATOM     19  O   UNL     1      -0.952   1.089  24.407  0.00  0.00    -0.219 OA
ENDROOT
BRANCH   4  20
ATOM     20  C   UNL     1      -2.438  -1.369  24.834  0.00  0.00    -0.002 A 
ATOM     21  C   UNL     1      -2.806  -1.801  24.236  0.00  0.00    -0.001 A 
ATOM     22  C   UNL     1      -3.411  -2.330  24.422  0.00  0.00    +0.020 A 
ATOM     23  C   UNL     1      -3.648  -2.427  25.206  0.00  0.00    +0.099 A 
ATOM     24  N   UNL     1      -3.280  -1.995  25.805  0.00  0.00    -0.243 NA
ATOM     25  C   UNL     1      -2.674  -1.466  25.619  0.00  0.00    +0.095 A 
ENDBRANCH   4  20
BRANCH   5   6
ATOM      6  N   UNL     1      -2.540   0.421  24.913  0.00  0.00    -0.199 NA
ATOM      7  C   UNL     1      -2.847   0.998  24.408  0.00  0.00    +0.289 C 
ATOM      8  O   UNL     1      -2.493   1.135  23.675  0.00  0.00    -0.266 OA
BRANCH   7   9
ATOM      9  C   UNL     1      -3.507   1.436  24.636  0.00  0.00    +0.166 A 
ATOM     10  N   UNL     1      -4.292   1.183  24.608  0.00  0.00    -0.234 NA
ATOM     11  C   UNL     1      -4.768   1.795  24.887  0.00  0.00    +0.088 A 
ATOM     12  C   UNL     1      -4.278   2.428  25.088  0.00  0.00    +0.049 A 
ATOM     13  S   UNL     1      -3.499   2.206  24.933  0.00  0.00    -0.062 S 
ATOM     14  C   UNL     1      -4.606   3.124  25.386  0.00  0.00    +0.008 A 
ATOM     15  C   UNL     1      -5.422   3.187  25.484  0.00  0.00    +0.001 A 
ATOM     16  C   UNL     1      -5.912   2.555  25.282  0.00  0.00    +0.002 A 
ATOM     17  C   UNL     1      -5.585   1.858  24.984  0.00  0.00    +0.020 A 
ENDBRANCH   7   9
ENDBRANCH   5   6
TORSDOF 3
ENDMDL
