MODEL 1
REMARK VINA RESULT:     -13.2      0.000      0.000
REMARK  Name = 
REMARK  7 active torsions:
REMARK  status: ('A' for Active; 'I' for Inactive)
REMARK    1  A    between atoms: C_2  and  C_3
REMARK    2  A    between atoms: C_3  and  S_4
REMARK    3  A    between atoms: S_4  and  N_7
REMARK    4  A    between atoms: N_7  and  C_8
REMARK    5  A    between atoms: C_16  and  C_18
REMARK    6  A    between atoms: C_18  and  O_19
REMARK    7  A    between atoms: O_19  and  C_20
REMARK                            x       y       z     vdW  Elec       q    Type
REMARK                         _______ _______ _______ _____ _____    ______ ____
ROOT
ATOM      8  C   UNL     1      -3.444   2.840  25.125  0.00  0.00    +0.102 A 
ATOM      9  C   UNL     1      -4.233   2.602  25.168  0.00  0.00    +0.058 A 
ATOM     10  C   UNL     1      -5.067   2.931  25.370  0.00  0.00    +0.060 C 
ATOM     11  C   UNL     1      -5.393   3.518  25.573  0.00  0.00    +0.011 C 
ATOM     12  C   UNL     1      -5.594   2.750  25.393  0.00  0.00    +0.043 C 
ATOM     13  C   UNL     1      -6.029   1.880  25.217  0.00  0.00    +0.095 C 
ATOM     14  N   UNL     1      -5.359   1.429  25.004  0.00  0.00    -0.276 N 
ATOM     15  C   UNL     1      -5.502   2.097  25.204  0.00  0.00    +0.099 C 
ATOM     16  C   UNL     1      -4.916   0.774  24.767  0.00  0.00    +0.270 C 
ATOM     17  O   UNL     1      -5.290   0.053  24.623  0.00  0.00    -0.271 OA
ATOM     26  C   UNL     1      -4.726   2.398  25.180  0.00  0.00    +0.110 C 
ATOM     27  N   UNL     1      -4.440   1.825  24.986  0.00  0.00    -0.298 N 
ATOM     28  C   UNL     1      -3.858   1.285  24.761  0.00  0.00    +0.261 A 
ATOM     29  O   UNL     1      -3.561   0.554  24.523  0.00  0.00    -0.267 OA
ATOM     30  C   UNL     1      -3.070   1.522  24.718  0.00  0.00    +0.062 A 
ATOM     31  C   UNL     1      -2.863   2.300  24.900  0.00  0.00    +0.024 A 
ENDROOT
BRANCH   8   7
ATOM      7  N   UNL     1      -3.237   3.618  25.307  0.00  0.00    -0.100 NA
BRANCH   7   4
ATOM      4  S   UNL     1      -2.456   3.868  25.219  0.00  0.00    +0.073 S 
ATOM      5  O   UNL     1      -2.305   3.676  26.007  0.00  0.00    -0.153 OA
ATOM      6  O   UNL     1      -2.607   4.060  24.431  0.00  0.00    -0.153 OA
BRANCH   4   3
ATOM      3  C   UNL     1      -1.676   4.119  25.130  0.00  0.00    +0.174 C 
BRANCH   3   2
ATOM      1  C   UNL     1      -0.741   5.183  24.935  0.00  0.00    +0.002 C 
ATOM      2  C   UNL     1      -1.496   4.924  25.147  0.00  0.00    +0.027 C 
ENDBRANCH   3   2
ENDBRANCH   4   3
ENDBRANCH   7   4
ENDBRANCH   8   7
BRANCH  16  18
ATOM     18  C   UNL     1      -4.098   0.841  24.674  0.00  0.00    +0.290 C 
BRANCH  18  19
ATOM     19  O   UNL     1      -3.689   0.290  24.217  0.00  0.00    -0.466 OA
BRANCH  19  20
ATOM     20  C   UNL     1      -3.628  -0.492  24.470  0.00  0.00    +0.139 A 
ATOM     21  C   UNL     1      -3.956  -1.099  24.015  0.00  0.00    +0.037 A 
ATOM     22  C   UNL     1      -3.896  -1.883  24.267  0.00  0.00    +0.003 A 
ATOM     23  C   UNL     1      -3.508  -2.059  24.973  0.00  0.00    +0.000 A 
ATOM     24  C   UNL     1      -3.180  -1.453  25.428  0.00  0.00    +0.003 A 
ATOM     25  C   UNL     1      -3.241  -0.670  25.175  0.00  0.00    +0.037 A 
ENDBRANCH  19  20
ENDBRANCH  18  19
ENDBRANCH  16  18
TORSDOF 7
ENDMDL
MODEL 2
REMARK VINA RESULT:     -12.9      1.211      4.053
REMARK  Name = 
REMARK  7 active torsions:
REMARK  status: ('A' for Active; 'I' for Inactive)
REMARK    1  A    between atoms: C_2  and  C_3
REMARK    2  A    between atoms: C_3  and  S_4
REMARK    3  A    between atoms: S_4  and  N_7
REMARK    4  A    between atoms: N_7  and  C_8
REMARK    5  A    between atoms: C_16  and  C_18
REMARK    6  A    between atoms: C_18  and  O_19
REMARK    7  A    between atoms: O_19  and  C_20
REMARK                            x       y       z     vdW  Elec       q    Type
REMARK                         _______ _______ _______ _____ _____    ______ ____
ROOT
ATOM      8  C   UNL     1      -4.156   0.782  24.760  0.00  0.00    +0.102 A 
ATOM      9  C   UNL     1      -4.590   1.449  24.976  0.00  0.00    +0.058 A 
ATOM     10  C   UNL     1      -5.429   1.694  25.258  0.00  0.00    +0.060 C 
ATOM     11  C   UNL     1      -6.059   1.425  25.412  0.00  0.00    +0.011 C 
ATOM     12  C   UNL     1      -5.704   2.158  25.401  0.00  0.00    +0.043 C 
ATOM     13  C   UNL     1      -5.458   3.114  25.451  0.00  0.00    +0.095 C 
ATOM     14  N   UNL     1      -4.661   3.067  25.206  0.00  0.00    -0.276 N 
ATOM     15  C   UNL     1      -5.207   2.622  25.312  0.00  0.00    +0.099 C 
ATOM     16  C   UNL     1      -3.900   3.318  25.011  0.00  0.00    +0.270 C 
ATOM     17  O   UNL     1      -3.706   4.118  25.057  0.00  0.00    -0.271 OA
ATOM     26  C   UNL     1      -4.824   1.912  25.106  0.00  0.00    +0.110 C 
ATOM     27  N   UNL     1      -4.234   2.194  24.966  0.00  0.00    -0.298 N 
ATOM     28  C   UNL     1      -3.444   2.270  24.739  0.00  0.00    +0.261 A 
ATOM     29  O   UNL     1      -2.741   2.672  24.581  0.00  0.00    -0.267 OA
ATOM     30  C   UNL     1      -3.010   1.603  24.523  0.00  0.00    +0.062 A 
ATOM     31  C   UNL     1      -3.366   0.859  24.533  0.00  0.00    +0.024 A 
ENDROOT
BRANCH   8   7
ATOM      7  N   UNL     1      -4.512   0.038  24.770  0.00  0.00    -0.100 NA
BRANCH   7   4
ATOM      4  S   UNL     1      -4.062  -0.637  24.619  0.00  0.00    +0.073 S 
ATOM      5  O   UNL     1      -4.225  -0.566  23.814  0.00  0.00    -0.153 OA
ATOM      6  O   UNL     1      -3.899  -0.708  25.424  0.00  0.00    -0.153 OA
BRANCH   4   3
ATOM      3  C   UNL     1      -3.612  -1.312  24.468  0.00  0.00    +0.174 C 
BRANCH   3   2
ATOM      1  C   UNL     1      -3.534  -2.730  24.308  0.00  0.00    +0.002 C 
ATOM      2  C   UNL     1      -3.984  -2.039  24.356  0.00  0.00    +0.027 C 
ENDBRANCH   3   2
ENDBRANCH   4   3
ENDBRANCH   7   4
ENDBRANCH   8   7
BRANCH  16  18
ATOM     18  C   UNL     1      -3.332   2.769  24.770  0.00  0.00    +0.290 C 
BRANCH  18  19
ATOM     19  O   UNL     1      -2.666   3.020  24.354  0.00  0.00    -0.466 OA
BRANCH  19  20
ATOM     20  C   UNL     1      -2.060   3.419  24.746  0.00  0.00    +0.139 A 
ATOM     21  C   UNL     1      -2.003   4.241  24.688  0.00  0.00    +0.037 A 
ATOM     22  C   UNL     1      -1.396   4.641  25.080  0.00  0.00    +0.003 A 
ATOM     23  C   UNL     1      -0.848   4.219  25.529  0.00  0.00    +0.000 A 
ATOM     24  C   UNL     1      -0.905   3.398  25.587  0.00  0.00    +0.003 A 
ATOM     25  C   UNL     1      -1.511   2.999  25.195  0.00  0.00    +0.037 A 
ENDBRANCH  19  20
ENDBRANCH  18  19
ENDBRANCH  16  18
TORSDOF 7
ENDMDL
MODEL 3
REMARK VINA RESULT:     -11.8      2.195      3.429
REMARK  Name = 
REMARK  7 active torsions:
REMARK  status: ('A' for Active; 'I' for Inactive)
REMARK    1  A    between atoms: C_2  and  C_3
REMARK    2  A    between atoms: C_3  and  S_4
REMARK    3  A    between atoms: S_4  and  N_7
REMARK    4  A    between atoms: N_7  and  C_8
REMARK    5  A    between atoms: C_16  and  C_18
REMARK    6  A    between atoms: C_18  and  O_19
REMARK    7  A    between atoms: O_19  and  C_20
REMARK                            x       y       z     vdW  Elec       q    Type
REMARK                         _______ _______ _______ _____ _____    ______ ____
ROOT
ATOM      8  C   UNL     1      -1.513   1.455  24.733  0.00  0.00    +0.102 A 
ATOM      9  C   UNL     1      -0.997   0.868  24.468  0.00  0.00    +0.058 A 
ATOM     10  C   UNL     1      -0.157   0.764  24.111  0.00  0.00    +0.060 C 
ATOM     11  C   UNL     1       0.406   1.134  23.910  0.00  0.00    +0.011 C 
ATOM     12  C   UNL     1       0.176   0.352  23.936  0.00  0.00    +0.043 C 
ATOM     13  C   UNL     1       0.084  -0.630  23.887  0.00  0.00    +0.095 C 
ATOM     14  N   UNL     1      -0.686  -0.715  24.199  0.00  0.00    -0.276 N 
ATOM     15  C   UNL     1      -0.230  -0.186  24.057  0.00  0.00    +0.099 C 
ATOM     16  C   UNL     1      -1.377  -1.088  24.452  0.00  0.00    +0.270 C 
ATOM     17  O   UNL     1      -1.443  -1.909  24.406  0.00  0.00    -0.271 OA
ATOM     26  C   UNL     1      -0.703   0.451  24.309  0.00  0.00    +0.110 C 
ATOM     27  N   UNL     1      -1.226   0.076  24.492  0.00  0.00    -0.298 N 
ATOM     28  C   UNL     1      -1.971  -0.130  24.782  0.00  0.00    +0.261 A 
ATOM     29  O   UNL     1      -2.583  -0.641  24.991  0.00  0.00    -0.267 OA
ATOM     30  C   UNL     1      -2.486   0.457  25.048  0.00  0.00    +0.062 A 
ATOM     31  C   UNL     1      -2.257   1.249  25.023  0.00  0.00    +0.024 A 
ENDROOT
BRANCH   8   7
ATOM      7  N   UNL     1      -1.283   2.247  24.708  0.00  0.00    -0.100 NA
BRANCH   7   4
ATOM      4  S   UNL     1      -1.780   2.830  25.015  0.00  0.00    +0.073 S 
ATOM      5  O   UNL     1      -2.136   2.916  24.276  0.00  0.00    -0.153 OA
ATOM      6  O   UNL     1      -1.424   2.744  25.754  0.00  0.00    -0.153 OA
BRANCH   4   3
ATOM      3  C   UNL     1      -2.277   3.412  25.322  0.00  0.00    +0.174 C 
BRANCH   3   2
ATOM      1  C   UNL     1      -2.503   4.771  25.703  0.00  0.00    +0.002 C 
ATOM      2  C   UNL     1      -2.012   4.191  25.381  0.00  0.00    +0.027 C 
ENDBRANCH   3   2
ENDBRANCH   4   3
ENDBRANCH   7   4
ENDBRANCH   8   7
BRANCH  16  18
ATOM     18  C   UNL     1      -2.003  -0.640  24.751  0.00  0.00    +0.290 C 
BRANCH  18  19
ATOM     19  O   UNL     1      -2.609  -1.008  25.171  0.00  0.00    -0.466 OA
BRANCH  19  20
ATOM     20  C   UNL     1      -3.145  -1.498  24.780  0.00  0.00    +0.139 A 
ATOM     21  C   UNL     1      -3.116  -2.315  24.895  0.00  0.00    +0.037 A 
ATOM     22  C   UNL     1      -3.652  -2.806  24.504  0.00  0.00    +0.003 A 
ATOM     23  C   UNL     1      -4.216  -2.480  23.999  0.00  0.00    +0.000 A 
ATOM     24  C   UNL     1      -4.246  -1.663  23.884  0.00  0.00    +0.003 A 
ATOM     25  C   UNL     1      -3.710  -1.173  24.275  0.00  0.00    +0.037 A 
ENDBRANCH  19  20
ENDBRANCH  18  19
ENDBRANCH  16  18
TORSDOF 7
ENDMDL
