MODEL 1
REMARK VINA RESULT:     -13.3      0.000      0.000
REMARK  Name = 
REMARK  4 active torsions:
REMARK  status: ('A' for Active; 'I' for Inactive)
REMARK    1  A    between atoms: O_2  and  C_3
REMARK    2  A    between atoms: C_6  and  C_9
REMARK    3  A    between atoms: C_15  and  N_16
REMARK    4  A    between atoms: C_17  and  C_19
REMARK                            x       y       z     vdW  Elec       q    Type
REMARK                         _______ _______ _______ _____ _____    ______ ____
ROOT
ATOM      9  C   UNL     1      -3.600   2.709  24.785  0.00  0.00    +0.048 C 
ATOM     10  C   UNL     1      -3.999   3.410  24.961  0.00  0.00    +0.042 C 
ATOM     11  C   UNL     1      -4.802   3.236  25.031  0.00  0.00    +0.184 C 
ATOM     12  O   UNL     1      -5.402   3.775  25.204  0.00  0.00    -0.220 OA
ATOM     13  C   UNL     1      -4.900   2.427  24.897  0.00  0.00    +0.202 C 
ATOM     14  O   UNL     1      -5.616   2.017  24.913  0.00  0.00    -0.219 OA
ATOM     15  C   UNL     1      -4.158   2.102  24.745  0.00  0.00    +0.132 C 
ENDROOT
BRANCH   9   6
ATOM      3  C   UNL     1      -1.161   2.471  24.436  0.00  0.00    +0.139 A 
ATOM      4  C   UNL     1      -1.674   2.458  23.790  0.00  0.00    +0.037 A 
ATOM      5  C   UNL     1      -2.487   2.537  23.906  0.00  0.00    -0.001 A 
ATOM      6  C   UNL     1      -2.787   2.630  24.668  0.00  0.00    -0.020 A 
ATOM      7  C   UNL     1      -2.275   2.644  25.315  0.00  0.00    -0.001 A 
ATOM      8  C   UNL     1      -1.462   2.564  25.198  0.00  0.00    +0.037 A 
BRANCH   3   2
ATOM      1  C   UNL     1       0.002   1.646  24.352  0.00  0.00    +0.252 C 
ATOM      2  O   UNL     1      -0.349   2.392  24.320  0.00  0.00    -0.471 OA
ENDBRANCH   3   2
ENDBRANCH   9   6
BRANCH  15  16
ATOM     16  N   UNL     1      -4.000   1.309  24.582  0.00  0.00    -0.200 NA
ATOM     17  C   UNL     1      -4.314   0.718  25.064  0.00  0.00    +0.271 C 
ATOM     18  O   UNL     1      -4.787   0.920  25.710  0.00  0.00    -0.268 OA
BRANCH  17  19
ATOM     19  C   UNL     1      -4.156  -0.075  24.901  0.00  0.00    +0.084 A 
ATOM     20  C   UNL     1      -4.379  -0.484  24.220  0.00  0.00    +0.012 A 
ATOM     21  C   UNL     1      -4.108  -1.260  24.289  0.00  0.00    +0.007 A 
ATOM     22  C   UNL     1      -3.718  -1.331  25.012  0.00  0.00    +0.030 A 
ATOM     23  S   UNL     1      -3.747  -0.599  25.391  0.00  0.00    -0.082 S 
ATOM     24  C   UNL     1      -3.386  -2.054  25.232  0.00  0.00    +0.006 A 
ATOM     25  C   UNL     1      -3.445  -2.705  24.729  0.00  0.00    +0.001 A 
ATOM     26  C   UNL     1      -3.835  -2.634  24.006  0.00  0.00    +0.000 A 
ATOM     27  C   UNL     1      -4.167  -1.912  23.785  0.00  0.00    +0.001 A 
ENDBRANCH  17  19
ENDBRANCH  15  16
TORSDOF 4
ENDMDL
MODEL 2
REMARK VINA RESULT:     -12.0      1.099      2.942
REMARK  Name = 
REMARK  4 active torsions:
REMARK  status: ('A' for Active; 'I' for Inactive)
REMARK    1  A    between atoms: O_2  and  C_3
REMARK    2  A    between atoms: C_6  and  C_9
REMARK    3  A    between atoms: C_15  and  N_16
REMARK    4  A    between atoms: C_17  and  C_19
REMARK                            x       y       z     vdW  Elec       q    Type
REMARK                         _______ _______ _______ _____ _____    ______ ____
ROOT
ATOM      9  C   UNL     1      -2.178   2.985  24.615  0.00  0.00    +0.048 C 
ATOM     10  C   UNL     1      -1.551   3.521  24.599  0.00  0.00    +0.042 C 
ATOM     11  C   UNL     1      -0.873   3.113  24.366  0.00  0.00    +0.184 C 
ATOM     12  O   UNL     1      -0.119   3.436  24.277  0.00  0.00    -0.220 OA
ATOM     13  C   UNL     1      -1.081   2.325  24.238  0.00  0.00    +0.202 C 
ATOM     14  O   UNL     1      -0.571   1.722  23.997  0.00  0.00    -0.219 OA
ATOM     15  C   UNL     1      -1.887   2.246  24.391  0.00  0.00    +0.132 C 
ENDROOT
BRANCH   9   6
ATOM      3  C   UNL     1      -4.520   3.504  25.225  0.00  0.00    +0.139 A 
ATOM      4  C   UNL     1      -3.949   3.419  25.814  0.00  0.00    +0.037 A 
ATOM      5  C   UNL     1      -3.169   3.246  25.611  0.00  0.00    -0.001 A 
ATOM      6  C   UNL     1      -2.959   3.158  24.819  0.00  0.00    -0.020 A 
ATOM      7  C   UNL     1      -3.529   3.242  24.229  0.00  0.00    -0.001 A 
ATOM      8  C   UNL     1      -4.310   3.415  24.432  0.00  0.00    +0.037 A 
BRANCH   3   2
ATOM      1  C   UNL     1      -5.793   3.082  25.718  0.00  0.00    +0.252 C 
ATOM      2  O   UNL     1      -5.300   3.676  25.428  0.00  0.00    -0.471 OA
ENDBRANCH   3   2
ENDBRANCH   9   6
BRANCH  15  16
ATOM     16  N   UNL     1      -2.326   1.550  24.332  0.00  0.00    -0.200 NA
ATOM     17  C   UNL     1      -2.083   0.872  24.735  0.00  0.00    +0.271 C 
ATOM     18  O   UNL     1      -1.400   0.891  25.198  0.00  0.00    -0.268 OA
BRANCH  17  19
ATOM     19  C   UNL     1      -2.522   0.176  24.675  0.00  0.00    +0.084 A 
ATOM     20  C   UNL     1      -3.077   0.002  24.091  0.00  0.00    +0.012 A 
ATOM     21  C   UNL     1      -3.381  -0.749  24.245  0.00  0.00    +0.007 A 
ATOM     22  C   UNL     1      -3.013  -1.039  24.924  0.00  0.00    +0.030 A 
ATOM     23  S   UNL     1      -2.482  -0.468  25.190  0.00  0.00    -0.082 S 
ATOM     24  C   UNL     1      -3.210  -1.787  25.212  0.00  0.00    +0.006 A 
ATOM     25  C   UNL     1      -3.773  -2.245  24.821  0.00  0.00    +0.001 A 
ATOM     26  C   UNL     1      -4.141  -1.955  24.142  0.00  0.00    +0.000 A 
ATOM     27  C   UNL     1      -3.946  -1.207  23.853  0.00  0.00    +0.001 A 
ENDBRANCH  17  19
ENDBRANCH  15  16
TORSDOF 4
ENDMDL
MODEL 3
REMARK VINA RESULT:     -11.8      1.307      3.965
REMARK  Name = 
REMARK  4 active torsions:
REMARK  status: ('A' for Active; 'I' for Inactive)
REMARK    1  A    between atoms: O_2  and  C_3
REMARK    2  A    between atoms: C_6  and  C_9
REMARK    3  A    between atoms: C_15  and  N_16
REMARK    4  A    between atoms: C_17  and  C_19
REMARK                            x       y       z     vdW  Elec       q    Type
REMARK                         _______ _______ _______ _____ _____    ______ ____
ROOT
ATOM      9  C   UNL     1      -4.669   0.639  24.885  0.00  0.00    +0.048 C 
ATOM     10  C   UNL     1      -5.477   0.799  24.829  0.00  0.00    +0.042 C 
ATOM     11  C   UNL     1      -5.582   1.613  24.916  0.00  0.00    +0.184 C 
ATOM     12  O   UNL     1      -6.302   2.014  24.898  0.00  0.00    -0.220 OA
ATOM     13  C   UNL     1      -4.839   1.956  25.026  0.00  0.00    +0.202 C 
ATOM     14  O   UNL     1      -4.687   2.760  25.135  0.00  0.00    -0.219 OA
ATOM     15  C   UNL     1      -4.275   1.354  25.006  0.00  0.00    +0.132 C 
ENDROOT
BRANCH   9   6
ATOM      3  C   UNL     1      -3.614  -1.594  24.716  0.00  0.00    +0.139 A 
ATOM      4  C   UNL     1      -3.667  -1.216  25.448  0.00  0.00    +0.037 A 
ATOM      5  C   UNL     1      -4.018  -0.472  25.504  0.00  0.00    -0.001 A 
ATOM      6  C   UNL     1      -4.317  -0.105  24.828  0.00  0.00    -0.020 A 
ATOM      7  C   UNL     1      -4.265  -0.482  24.096  0.00  0.00    -0.001 A 
ATOM      8  C   UNL     1      -3.913  -1.227  24.040  0.00  0.00    +0.037 A 
BRANCH   3   2
ATOM      1  C   UNL     1      -2.455  -2.402  24.500  0.00  0.00    +0.252 C 
ATOM      2  O   UNL     1      -3.262  -2.337  24.659  0.00  0.00    -0.471 OA
ENDBRANCH   3   2
ENDBRANCH   9   6
BRANCH  15  16
ATOM     16  N   UNL     1      -3.460   1.450  25.093  0.00  0.00    -0.200 NA
ATOM     17  C   UNL     1      -3.055   1.989  24.617  0.00  0.00    +0.271 C 
ATOM     18  O   UNL     1      -3.465   2.431  24.053  0.00  0.00    -0.268 OA
BRANCH  17  19
ATOM     19  C   UNL     1      -2.240   2.085  24.703  0.00  0.00    +0.084 A 
ATOM     20  C   UNL     1      -1.850   2.327  25.388  0.00  0.00    +0.012 A 
ATOM     21  C   UNL     1      -1.042   2.347  25.228  0.00  0.00    +0.007 A 
ATOM     22  C   UNL     1      -0.931   2.117  24.444  0.00  0.00    +0.030 A 
ATOM     23  S   UNL     1      -1.672   1.954  24.119  0.00  0.00    -0.082 S 
ATOM     24  C   UNL     1      -0.170   2.085  24.127  0.00  0.00    +0.006 A 
ATOM     25  C   UNL     1       0.480   2.283  24.593  0.00  0.00    +0.001 A 
ATOM     26  C   UNL     1       0.369   2.514  25.378  0.00  0.00    +0.000 A 
ATOM     27  C   UNL     1      -0.391   2.546  25.696  0.00  0.00    +0.001 A 
ENDBRANCH  17  19
ENDBRANCH  15  16
TORSDOF 4
ENDMDL
MODEL 4
REMARK VINA RESULT:     -11.6      2.351      3.529
REMARK  Name = 
REMARK  4 active torsions:
REMARK  status: ('A' for Active; 'I' for Inactive)
REMARK    1  A    between atoms: O_2  and  C_3
REMARK    2  A    between atoms: C_6  and  C_9
REMARK    3  A    between atoms: C_15  and  N_16
REMARK    4  A    between atoms: C_17  and  C_19
REMARK                            x       y       z     vdW  Elec       q    Type
REMARK                         _______ _______ _______ _____ _____    ______ ____
ROOT
ATOM      9  C   UNL     1      -1.053   3.389  25.033  0.00  0.00    +0.048 C 
ATOM     10  C   UNL     1      -0.497   3.988  24.917  0.00  0.00    +0.042 C 
ATOM     11  C   UNL     1      -0.886   4.713  24.980  0.00  0.00    +0.184 C 
ATOM     12  O   UNL     1      -0.540   5.457  24.902  0.00  0.00    -0.220 OA
ATOM     13  C   UNL     1      -1.682   4.562  25.134  0.00  0.00    +0.202 C 
ATOM     14  O   UNL     1      -2.272   5.130  25.238  0.00  0.00    -0.219 OA
ATOM     15  C   UNL     1      -1.786   3.744  25.167  0.00  0.00    +0.132 C 
ENDROOT
BRANCH   9   6
ATOM      3  C   UNL     1      -0.602   0.956  24.985  0.00  0.00    +0.139 A 
ATOM      4  C   UNL     1      -0.675   1.376  24.279  0.00  0.00    +0.037 A 
ATOM      5  C   UNL     1      -0.825   2.187  24.295  0.00  0.00    -0.001 A 
ATOM      6  C   UNL     1      -0.902   2.578  25.017  0.00  0.00    -0.020 A 
ATOM      7  C   UNL     1      -0.829   2.158  25.723  0.00  0.00    -0.001 A 
ATOM      8  C   UNL     1      -0.679   1.347  25.708  0.00  0.00    +0.037 A 
BRANCH   3   2
ATOM      1  C   UNL     1      -1.040  -0.388  25.192  0.00  0.00    +0.252 C 
ATOM      2  O   UNL     1      -0.451   0.145  24.970  0.00  0.00    -0.471 OA
ENDBRANCH   3   2
ENDBRANCH   9   6
BRANCH  15  16
ATOM     16  N   UNL     1      -2.497   3.350  25.309  0.00  0.00    -0.200 NA
ATOM     17  C   UNL     1      -3.167   3.535  24.865  0.00  0.00    +0.271 C 
ATOM     18  O   UNL     1      -3.126   4.115  24.279  0.00  0.00    -0.268 OA
BRANCH  17  19
ATOM     19  C   UNL     1      -3.878   3.142  25.007  0.00  0.00    +0.084 A 
ATOM     20  C   UNL     1      -4.196   2.535  24.548  0.00  0.00    +0.012 A 
ATOM     21  C   UNL     1      -4.910   2.304  24.890  0.00  0.00    +0.007 A 
ATOM     22  C   UNL     1      -5.033   2.768  25.561  0.00  0.00    +0.030 A 
ATOM     23  S   UNL     1      -4.396   3.286  25.633  0.00  0.00    -0.082 S 
ATOM     24  C   UNL     1      -5.711   2.659  26.019  0.00  0.00    +0.006 A 
ATOM     25  C   UNL     1      -6.265   2.086  25.806  0.00  0.00    +0.001 A 
ATOM     26  C   UNL     1      -6.141   1.622  25.136  0.00  0.00    +0.000 A 
ATOM     27  C   UNL     1      -5.464   1.730  24.677  0.00  0.00    +0.001 A 
ENDBRANCH  17  19
ENDBRANCH  15  16
TORSDOF 4
ENDMDL
MODEL 5
REMARK VINA RESULT:     -11.6      1.801      2.269
REMARK  Name = 
REMARK  4 active torsions:
REMARK  status: ('A' for Active; 'I' for Inactive)
REMARK    1  A    between atoms: O_2  and  C_3
REMARK    2  A    between atoms: C_6  and  C_9
REMARK    3  A    between atoms: C_15  and  N_16
REMARK    4  A    between atoms: C_17  and  C_19
REMARK                            x       y       z     vdW  Elec       q    Type
REMARK                         _______ _______ _______ _____ _____    ______ ____
ROOT
ATOM      9  C   UNL     1      -4.247   2.748  25.118  0.00  0.00    +0.048 C 
ATOM     10  C   UNL     1      -5.039   2.964  25.032  0.00  0.00    +0.042 C 
ATOM     11  C   UNL     1      -5.487   2.274  24.978  0.00  0.00    +0.184 C 
ATOM     12  O   UNL     1      -6.305   2.233  24.887  0.00  0.00    -0.220 OA
ATOM     13  C   UNL     1      -4.972   1.631  25.029  0.00  0.00    +0.202 C 
ATOM     14  O   UNL     1      -5.186   0.834  24.998  0.00  0.00    -0.219 OA
ATOM     15  C   UNL     1      -4.206   1.923  25.115  0.00  0.00    +0.132 C 
ENDROOT
BRANCH   9   6
ATOM      3  C   UNL     1      -2.331   4.300  25.341  0.00  0.00    +0.139 A 
ATOM      4  C   UNL     1      -2.653   3.942  26.011  0.00  0.00    +0.037 A 
ATOM      5  C   UNL     1      -3.291   3.425  25.937  0.00  0.00    -0.001 A 
ATOM      6  C   UNL     1      -3.608   3.265  25.192  0.00  0.00    -0.020 A 
ATOM      7  C   UNL     1      -3.287   3.623  24.521  0.00  0.00    -0.001 A 
ATOM      8  C   UNL     1      -2.648   4.140  24.596  0.00  0.00    +0.037 A 
BRANCH   3   2
ATOM      1  C   UNL     1      -0.978   4.647  25.039  0.00  0.00    +0.252 C 
ATOM      2  O   UNL     1      -1.693   4.817  25.415  0.00  0.00    -0.471 OA
ENDBRANCH   3   2
ENDBRANCH   9   6
BRANCH  15  16
ATOM     16  N   UNL     1      -3.519   1.472  25.187  0.00  0.00    -0.200 NA
ATOM     17  C   UNL     1      -3.352   0.884  24.633  0.00  0.00    +0.271 C 
ATOM     18  O   UNL     1      -3.872   0.747  24.007  0.00  0.00    -0.268 OA
BRANCH  17  19
ATOM     19  C   UNL     1      -2.665   0.432  24.705  0.00  0.00    +0.084 A 
ATOM     20  C   UNL     1      -2.513  -0.131  25.288  0.00  0.00    +0.012 A 
ATOM     21  C   UNL     1      -1.764  -0.446  25.149  0.00  0.00    +0.007 A 
ATOM     22  C   UNL     1      -1.452  -0.078  24.480  0.00  0.00    +0.030 A 
ATOM     23  S   UNL     1      -2.009   0.465  24.205  0.00  0.00    -0.082 S 
ATOM     24  C   UNL     1      -0.702  -0.285  24.208  0.00  0.00    +0.006 A 
ATOM     25  C   UNL     1      -0.263  -0.860  24.604  0.00  0.00    +0.001 A 
ATOM     26  C   UNL     1      -0.575  -1.228  25.273  0.00  0.00    +0.000 A 
ATOM     27  C   UNL     1      -1.325  -1.022  25.546  0.00  0.00    +0.001 A 
ENDBRANCH  17  19
ENDBRANCH  15  16
TORSDOF 4
ENDMDL
MODEL 6
REMARK VINA RESULT:     -11.5      2.010      5.077
REMARK  Name = 
REMARK  4 active torsions:
REMARK  status: ('A' for Active; 'I' for Inactive)
REMARK    1  A    between atoms: O_2  and  C_3
REMARK    2  A    between atoms: C_6  and  C_9
REMARK    3  A    between atoms: C_15  and  N_16
REMARK    4  A    between atoms: C_17  and  C_19
REMARK                            x       y       z     vdW  Elec       q    Type
REMARK                         _______ _______ _______ _____ _____    ______ ____
ROOT
ATOM      9  C   UNL     1      -2.266  -0.116  24.790  0.00  0.00    +0.048 C 
ATOM     10  C   UNL     1      -2.009  -0.899  24.850  0.00  0.00    +0.042 C 
ATOM     11  C   UNL     1      -1.185  -0.896  24.863  0.00  0.00    +0.184 C 
ATOM     12  O   UNL     1      -0.698  -1.560  24.918  0.00  0.00    -0.220 OA
ATOM     13  C   UNL     1      -0.931  -0.112  24.812  0.00  0.00    +0.202 C 
ATOM     14  O   UNL     1      -0.147   0.144  24.807  0.00  0.00    -0.219 OA
ATOM     15  C   UNL     1      -1.599   0.370  24.767  0.00  0.00    +0.132 C 
ENDROOT
BRANCH   9   6
ATOM      3  C   UNL     1      -4.621   0.640  24.698  0.00  0.00    +0.139 A 
ATOM      4  C   UNL     1      -4.308   0.350  25.404  0.00  0.00    +0.037 A 
ATOM      5  C   UNL     1      -3.523   0.098  25.435  0.00  0.00    -0.001 A 
ATOM      6  C   UNL     1      -3.051   0.136  24.760  0.00  0.00    -0.020 A 
ATOM      7  C   UNL     1      -3.363   0.425  24.053  0.00  0.00    -0.001 A 
ATOM      8  C   UNL     1      -4.149   0.678  24.022  0.00  0.00    +0.037 A 
BRANCH   3   2
ATOM      1  C   UNL     1      -5.601   1.661  24.893  0.00  0.00    +0.252 C 
ATOM      2  O   UNL     1      -5.405   0.892  24.667  0.00  0.00    -0.471 OA
ENDBRANCH   3   2
ENDBRANCH   9   6
BRANCH  15  16
ATOM     16  N   UNL     1      -1.600   1.192  24.709  0.00  0.00    -0.200 NA
ATOM     17  C   UNL     1      -1.201   1.647  25.270  0.00  0.00    +0.271 C 
ATOM     18  O   UNL     1      -0.800   1.277  25.890  0.00  0.00    -0.268 OA
BRANCH  17  19
ATOM     19  C   UNL     1      -1.203   2.470  25.212  0.00  0.00    +0.084 A 
ATOM     20  C   UNL     1      -1.751   2.979  25.558  0.00  0.00    +0.012 A 
ATOM     21  C   UNL     1      -1.543   3.752  25.357  0.00  0.00    +0.007 A 
ATOM     22  C   UNL     1      -0.866   3.720  24.888  0.00  0.00    +0.030 A 
ATOM     23  S   UNL     1      -0.655   2.928  24.798  0.00  0.00    -0.082 S 
ATOM     24  C   UNL     1      -0.528   4.417  24.603  0.00  0.00    +0.006 A 
ATOM     25  C   UNL     1      -0.868   5.145  24.787  0.00  0.00    +0.001 A 
ATOM     26  C   UNL     1      -1.546   5.177  25.257  0.00  0.00    +0.000 A 
ATOM     27  C   UNL     1      -1.883   4.481  25.542  0.00  0.00    +0.001 A 
ENDBRANCH  17  19
ENDBRANCH  15  16
TORSDOF 4
ENDMDL
