MODEL 1
REMARK VINA RESULT:     -11.3      0.000      0.000
REMARK  Name = 
REMARK  5 active torsions:
REMARK  status: ('A' for Active; 'I' for Inactive)
REMARK    1  A    between atoms: C_4  and  C_14
REMARK    2  A    between atoms: N_5  and  C_6
REMARK    3  A    between atoms: C_6  and  C_7
REMARK    4  A    between atoms: C_16  and  C_19
REMARK    5  A    between atoms: C_23  and  N_25
REMARK                            x       y       z     vdW  Elec       q    Type
REMARK                         _______ _______ _______ _____ _____    ______ ____
ROOT
ATOM     14  C   UNL     1      -4.097   1.191  24.497  0.00  0.00    +0.251 A 
ATOM     15  N   UNL     1      -3.981   0.443  24.825  0.00  0.00    -0.190 NA
ATOM     16  C   UNL     1      -3.770  -0.073  24.216  0.00  0.00    +0.203 A 
ATOM     17  N   UNL     1      -3.757   0.356  23.512  0.00  0.00    -0.056 NA
ATOM     18  O   UNL     1      -3.958   1.137  23.685  0.00  0.00    -0.336 OA
ENDROOT
BRANCH  14   4
ATOM      1  O   UNL     1      -5.629   3.117  26.037  0.00  0.00    -0.222 OA
ATOM      2  C   UNL     1      -5.017   2.758  25.616  0.00  0.00    +0.170 C 
ATOM      3  C   UNL     1      -5.041   2.008  25.272  0.00  0.00    +0.060 C 
ATOM      4  C   UNL     1      -4.313   1.873  24.908  0.00  0.00    +0.140 C 
ATOM      5  N   UNL     1      -3.841   2.538  25.026  0.00  0.00    -0.260 NA
ATOM     13  C   UNL     1      -4.276   3.086  25.464  0.00  0.00    +0.106 C 
BRANCH   5   6
ATOM      6  C   UNL     1      -3.068   2.639  24.755  0.00  0.00    +0.100 C 
BRANCH   6   7
ATOM      7  C   UNL     1      -2.603   3.251  25.053  0.00  0.00    -0.003 A 
ATOM      8  C   UNL     1      -2.656   4.007  24.726  0.00  0.00    +0.018 A 
ATOM      9  C   UNL     1      -2.189   4.619  25.026  0.00  0.00    +0.099 A 
ATOM     10  N   UNL     1      -1.671   4.475  25.651  0.00  0.00    -0.242 NA
ATOM     11  C   UNL     1      -1.619   3.719  25.978  0.00  0.00    +0.099 A 
ATOM     12  C   UNL     1      -2.085   3.108  25.679  0.00  0.00    +0.018 A 
ENDBRANCH   6   7
ENDBRANCH   5   6
ENDBRANCH  14   4
BRANCH  16  19
ATOM     19  C   UNL     1      -3.603  -0.877  24.298  0.00  0.00    +0.041 A 
ATOM     20  C   UNL     1      -4.209  -1.433  24.231  0.00  0.00    +0.003 A 
ATOM     21  C   UNL     1      -4.041  -2.236  24.313  0.00  0.00    +0.002 A 
ATOM     22  C   UNL     1      -3.268  -2.484  24.461  0.00  0.00    +0.024 A 
ATOM     23  C   UNL     1      -2.663  -1.928  24.527  0.00  0.00    +0.143 A 
ATOM     24  C   UNL     1      -2.830  -1.124  24.446  0.00  0.00    +0.027 A 
BRANCH  23  25
ATOM     25  N   UNL     1      -1.890  -2.175  24.675  0.00  0.00    +0.058 N 
ATOM     26  O   UNL     1      -1.513  -2.687  24.148  0.00  0.00    -0.126 OA
ATOM     27  O   UNL     1      -1.493  -1.911  25.349  0.00  0.00    -0.126 OA
ENDBRANCH  23  25
ENDBRANCH  16  19
TORSDOF 5
ENDMDL
MODEL 2
REMARK VINA RESULT:     -11.2      1.771      4.432
REMARK  Name = 
REMARK  5 active torsions:
REMARK  status: ('A' for Active; 'I' for Inactive)
REMARK    1  A    between atoms: C_4  and  C_14
REMARK    2  A    between atoms: N_5  and  C_6
REMARK    3  A    between atoms: C_6  and  C_7
REMARK    4  A    between atoms: C_16  and  C_19
REMARK    5  A    between atoms: C_23  and  N_25
REMARK                            x       y       z     vdW  Elec       q    Type
REMARK                         _______ _______ _______ _____ _____    ______ ____
ROOT
ATOM     14  C   UNL     1      -3.664   2.271  24.496  0.00  0.00    +0.251 A 
ATOM     15  N   UNL     1      -3.054   2.499  25.003  0.00  0.00    -0.190 NA
ATOM     16  C   UNL     1      -2.520   2.956  24.570  0.00  0.00    +0.203 A 
ATOM     17  N   UNL     1      -2.800   3.010  23.796  0.00  0.00    -0.056 NA
ATOM     18  O   UNL     1      -3.507   2.587  23.750  0.00  0.00    -0.336 OA
ENDROOT
BRANCH  14   4
ATOM      1  O   UNL     1      -6.302   1.464  25.403  0.00  0.00    -0.222 OA
ATOM      2  C   UNL     1      -5.529   1.438  25.116  0.00  0.00    +0.170 C 
ATOM      3  C   UNL     1      -5.038   2.088  24.987  0.00  0.00    +0.060 C 
ATOM      4  C   UNL     1      -4.316   1.809  24.700  0.00  0.00    +0.140 C 
ATOM      5  N   UNL     1      -4.362   0.987  24.651  0.00  0.00    -0.260 NA
ATOM     13  C   UNL     1      -5.112   0.757  24.909  0.00  0.00    +0.106 C 
BRANCH   5   6
ATOM      6  C   UNL     1      -3.764   0.482  24.391  0.00  0.00    +0.100 C 
BRANCH   6   7
ATOM      7  C   UNL     1      -3.823  -0.330  24.522  0.00  0.00    -0.003 A 
ATOM      8  C   UNL     1      -3.571  -0.651  25.240  0.00  0.00    +0.018 A 
ATOM      9  C   UNL     1      -3.631  -1.464  25.370  0.00  0.00    +0.099 A 
ATOM     10  N   UNL     1      -3.940  -1.954  24.785  0.00  0.00    -0.242 NA
ATOM     11  C   UNL     1      -4.192  -1.633  24.067  0.00  0.00    +0.099 A 
ATOM     12  C   UNL     1      -4.132  -0.821  23.937  0.00  0.00    +0.018 A 
ENDBRANCH   6   7
ENDBRANCH   5   6
ENDBRANCH  14   4
BRANCH  16  19
ATOM     19  C   UNL     1      -1.828   3.298  24.861  0.00  0.00    +0.041 A 
ATOM     20  C   UNL     1      -1.737   4.118  24.850  0.00  0.00    +0.003 A 
ATOM     21  C   UNL     1      -1.045   4.460  25.140  0.00  0.00    +0.002 A 
ATOM     22  C   UNL     1      -0.443   3.982  25.442  0.00  0.00    +0.024 A 
ATOM     23  C   UNL     1      -0.534   3.162  25.452  0.00  0.00    +0.143 A 
ATOM     24  C   UNL     1      -1.227   2.820  25.162  0.00  0.00    +0.027 A 
BRANCH  23  25
ATOM     25  N   UNL     1       0.067   2.684  25.753  0.00  0.00    +0.058 N 
ATOM     26  O   UNL     1       0.552   2.258  25.239  0.00  0.00    -0.126 OA
ATOM     27  O   UNL     1       0.183   2.631  26.568  0.00  0.00    -0.126 OA
ENDBRANCH  23  25
ENDBRANCH  16  19
TORSDOF 5
ENDMDL
MODEL 3
REMARK VINA RESULT:     -11.1      1.362      5.231
REMARK  Name = 
REMARK  5 active torsions:
REMARK  status: ('A' for Active; 'I' for Inactive)
REMARK    1  A    between atoms: C_4  and  C_14
REMARK    2  A    between atoms: N_5  and  C_6
REMARK    3  A    between atoms: C_6  and  C_7
REMARK    4  A    between atoms: C_16  and  C_19
REMARK    5  A    between atoms: C_23  and  N_25
REMARK                            x       y       z     vdW  Elec       q    Type
REMARK                         _______ _______ _______ _____ _____    ______ ____
ROOT
ATOM     14  C   UNL     1      -2.239   1.071  24.327  0.00  0.00    +0.251 A 
ATOM     15  N   UNL     1      -2.470   1.552  24.955  0.00  0.00    -0.190 NA
ATOM     16  C   UNL     1      -2.862   2.208  24.643  0.00  0.00    +0.203 A 
ATOM     17  N   UNL     1      -2.873   2.132  23.822  0.00  0.00    -0.056 NA
ATOM     18  O   UNL     1      -2.488   1.429  23.626  0.00  0.00    -0.336 OA
ENDROOT
BRANCH  14   4
ATOM      1  O   UNL     1      -0.103  -0.895  24.357  0.00  0.00    -0.222 OA
ATOM      2  C   UNL     1      -0.849  -0.547  24.401  0.00  0.00    +0.170 C 
ATOM      3  C   UNL     1      -1.018   0.253  24.294  0.00  0.00    +0.060 C 
ATOM      4  C   UNL     1      -1.831   0.356  24.387  0.00  0.00    +0.140 C 
ATOM      5  N   UNL     1      -2.164  -0.380  24.552  0.00  0.00    -0.260 NA
ATOM     13  C   UNL     1      -1.557  -0.939  24.561  0.00  0.00    +0.106 C 
BRANCH   5   6
ATOM      6  C   UNL     1      -2.964  -0.532  24.685  0.00  0.00    +0.100 C 
BRANCH   6   7
ATOM      7  C   UNL     1      -3.248  -1.305  24.651  0.00  0.00    -0.003 A 
ATOM      8  C   UNL     1      -3.611  -1.582  23.963  0.00  0.00    +0.018 A 
ATOM      9  C   UNL     1      -3.895  -2.356  23.929  0.00  0.00    +0.099 A 
ATOM     10  N   UNL     1      -3.818  -2.852  24.583  0.00  0.00    -0.242 NA
ATOM     11  C   UNL     1      -3.456  -2.576  25.271  0.00  0.00    +0.099 A 
ATOM     12  C   UNL     1      -3.171  -1.803  25.304  0.00  0.00    +0.018 A 
ENDBRANCH   6   7
ENDBRANCH   5   6
ENDBRANCH  14   4
BRANCH  16  19
ATOM     19  C   UNL     1      -3.186   2.832  25.076  0.00  0.00    +0.041 A 
ATOM     20  C   UNL     1      -2.698   3.429  25.368  0.00  0.00    +0.003 A 
ATOM     21  C   UNL     1      -3.022   4.051  25.801  0.00  0.00    +0.002 A 
ATOM     22  C   UNL     1      -3.834   4.077  25.943  0.00  0.00    +0.024 A 
ATOM     23  C   UNL     1      -4.322   3.480  25.651  0.00  0.00    +0.143 A 
ATOM     24  C   UNL     1      -3.998   2.857  25.218  0.00  0.00    +0.027 A 
BRANCH  23  25
ATOM     25  N   UNL     1      -5.135   3.505  25.793  0.00  0.00    +0.058 N 
ATOM     26  O   UNL     1      -5.602   4.071  25.416  0.00  0.00    -0.126 OA
ATOM     27  O   UNL     1      -5.480   2.964  26.311  0.00  0.00    -0.126 OA
ENDBRANCH  23  25
ENDBRANCH  16  19
TORSDOF 5
ENDMDL
MODEL 4
REMARK VINA RESULT:     -10.9      2.407      4.683
REMARK  Name = 
REMARK  5 active torsions:
REMARK  status: ('A' for Active; 'I' for Inactive)
REMARK    1  A    between atoms: C_4  and  C_14
REMARK    2  A    between atoms: N_5  and  C_6
REMARK    3  A    between atoms: C_6  and  C_7
REMARK    4  A    between atoms: C_16  and  C_19
REMARK    5  A    between atoms: C_23  and  N_25
REMARK                            x       y       z     vdW  Elec       q    Type
REMARK                         _______ _______ _______ _____ _____    ______ ____
ROOT
ATOM     14  C   UNL     1      -2.072   2.602  24.956  0.00  0.00    +0.251 A 
ATOM     15  N   UNL     1      -2.764   2.654  25.403  0.00  0.00    -0.190 NA
ATOM     16  C   UNL     1      -3.364   2.936  24.912  0.00  0.00    +0.203 A 
ATOM     17  N   UNL     1      -3.044   3.058  24.162  0.00  0.00    -0.056 NA
ATOM     18  O   UNL     1      -2.245   2.851  24.189  0.00  0.00    -0.336 OA
ENDROOT
BRANCH  14   4
ATOM      1  O   UNL     1       0.566   2.569  26.169  0.00  0.00    -0.222 OA
ATOM      2  C   UNL     1      -0.125   2.330  25.785  0.00  0.00    +0.170 C 
ATOM      3  C   UNL     1      -0.773   2.809  25.613  0.00  0.00    +0.060 C 
ATOM      4  C   UNL     1      -1.337   2.345  25.228  0.00  0.00    +0.140 C 
ATOM      5  N   UNL     1      -1.036   1.579  25.164  0.00  0.00    -0.260 NA
ATOM     13  C   UNL     1      -0.286   1.570  25.509  0.00  0.00    +0.106 C 
BRANCH   5   6
ATOM      6  C   UNL     1      -1.418   0.936  24.816  0.00  0.00    +0.100 C 
BRANCH   6   7
ATOM      7  C   UNL     1      -1.101   0.178  24.893  0.00  0.00    -0.003 A 
ATOM      8  C   UNL     1      -1.308  -0.291  25.540  0.00  0.00    +0.018 A 
ATOM      9  C   UNL     1      -0.991  -1.050  25.616  0.00  0.00    +0.099 A 
ATOM     10  N   UNL     1      -0.469  -1.338  25.046  0.00  0.00    -0.242 NA
ATOM     11  C   UNL     1      -0.263  -0.868  24.400  0.00  0.00    +0.099 A 
ATOM     12  C   UNL     1      -0.579  -0.110  24.324  0.00  0.00    +0.018 A 
ENDBRANCH   6   7
ENDBRANCH   5   6
ENDBRANCH  14   4
BRANCH  16  19
ATOM     19  C   UNL     1      -4.147   3.072  25.133  0.00  0.00    +0.041 A 
ATOM     20  C   UNL     1      -4.395   3.835  25.325  0.00  0.00    +0.003 A 
ATOM     21  C   UNL     1      -5.178   3.971  25.546  0.00  0.00    +0.002 A 
ATOM     22  C   UNL     1      -5.714   3.345  25.574  0.00  0.00    +0.024 A 
ATOM     23  C   UNL     1      -5.466   2.582  25.382  0.00  0.00    +0.143 A 
ATOM     24  C   UNL     1      -4.683   2.445  25.161  0.00  0.00    +0.027 A 
BRANCH  23  25
ATOM     25  N   UNL     1      -6.001   1.955  25.410  0.00  0.00    +0.058 N 
ATOM     26  O   UNL     1      -6.178   1.595  26.132  0.00  0.00    -0.126 OA
ATOM     27  O   UNL     1      -6.360   1.686  24.717  0.00  0.00    -0.126 OA
ENDBRANCH  23  25
ENDBRANCH  16  19
TORSDOF 5
ENDMDL
MODEL 5
REMARK VINA RESULT:     -10.8      2.303      5.728
REMARK  Name = 
REMARK  5 active torsions:
REMARK  status: ('A' for Active; 'I' for Inactive)
REMARK    1  A    between atoms: C_4  and  C_14
REMARK    2  A    between atoms: N_5  and  C_6
REMARK    3  A    between atoms: C_6  and  C_7
REMARK    4  A    between atoms: C_16  and  C_19
REMARK    5  A    between atoms: C_23  and  N_25
REMARK                            x       y       z     vdW  Elec       q    Type
REMARK                         _______ _______ _______ _____ _____    ______ ____
ROOT
ATOM     14  C   UNL     1      -0.186   1.611  24.773  0.00  0.00    +0.251 A 
ATOM     15  N   UNL     1      -0.709   2.222  24.591  0.00  0.00    -0.190 NA
ATOM     16  C   UNL     1      -0.691   2.767  25.211  0.00  0.00    +0.203 A 
ATOM     17  N   UNL     1      -0.155   2.493  25.775  0.00  0.00    -0.056 NA
ATOM     18  O   UNL     1       0.157   1.778  25.505  0.00  0.00    -0.336 OA
ENDROOT
BRANCH  14   4
ATOM      1  O   UNL     1       0.895  -0.118  22.707  0.00  0.00    -0.222 OA
ATOM      2  C   UNL     1       0.465   0.154  23.356  0.00  0.00    +0.170 C 
ATOM      3  C   UNL     1       0.479   0.922  23.658  0.00  0.00    +0.060 C 
ATOM      4  C   UNL     1      -0.031   0.950  24.305  0.00  0.00    +0.140 C 
ATOM      5  N   UNL     1      -0.360   0.199  24.403  0.00  0.00    -0.260 NA
ATOM     13  C   UNL     1      -0.053  -0.292  23.816  0.00  0.00    +0.106 C 
BRANCH   5   6
ATOM      6  C   UNL     1      -0.901  -0.021  24.985  0.00  0.00    +0.100 C 
BRANCH   6   7
ATOM      7  C   UNL     1      -1.317  -0.730  24.915  0.00  0.00    -0.003 A 
ATOM      8  C   UNL     1      -0.975  -1.436  25.171  0.00  0.00    +0.018 A 
ATOM      9  C   UNL     1      -1.392  -2.145  25.100  0.00  0.00    +0.099 A 
ATOM     10  N   UNL     1      -2.149  -2.148  24.775  0.00  0.00    -0.242 NA
ATOM     11  C   UNL     1      -2.491  -1.442  24.519  0.00  0.00    +0.099 A 
ATOM     12  C   UNL     1      -2.074  -0.733  24.589  0.00  0.00    +0.018 A 
ENDBRANCH   6   7
ENDBRANCH   5   6
ENDBRANCH  14   4
BRANCH  16  19
ATOM     19  C   UNL     1      -1.130   3.464  25.258  0.00  0.00    +0.041 A 
ATOM     20  C   UNL     1      -0.797   4.179  25.016  0.00  0.00    +0.003 A 
ATOM     21  C   UNL     1      -1.236   4.875  25.063  0.00  0.00    +0.002 A 
ATOM     22  C   UNL     1      -2.009   4.857  25.351  0.00  0.00    +0.024 A 
ATOM     23  C   UNL     1      -2.343   4.142  25.592  0.00  0.00    +0.143 A 
ATOM     24  C   UNL     1      -1.903   3.445  25.545  0.00  0.00    +0.027 A 
BRANCH  23  25
ATOM     25  N   UNL     1      -3.115   4.123  25.880  0.00  0.00    +0.058 N 
ATOM     26  O   UNL     1      -3.261   4.270  26.679  0.00  0.00    -0.126 OA
ATOM     27  O   UNL     1      -3.742   3.958  25.370  0.00  0.00    -0.126 OA
ENDBRANCH  23  25
ENDBRANCH  16  19
TORSDOF 5
ENDMDL
MODEL 6
REMARK VINA RESULT:     -10.8      1.916      2.624
REMARK  Name = 
REMARK  5 active torsions:
REMARK  status: ('A' for Active; 'I' for Inactive)
REMARK    1  A    between atoms: C_4  and  C_14
REMARK    2  A    between atoms: N_5  and  C_6
REMARK    3  A    between atoms: C_6  and  C_7
REMARK    4  A    between atoms: C_16  and  C_19
REMARK    5  A    between atoms: C_23  and  N_25
REMARK                            x       y       z     vdW  Elec       q    Type
REMARK                         _______ _______ _______ _____ _____    ______ ____
ROOT
ATOM     14  C   UNL     1      -1.286   1.264  24.858  0.00  0.00    +0.251 A 
ATOM     15  N   UNL     1      -1.955   0.844  25.095  0.00  0.00    -0.190 NA
ATOM     16  C   UNL     1      -2.209   0.387  24.456  0.00  0.00    +0.203 A 
ATOM     17  N   UNL     1      -1.697   0.525  23.824  0.00  0.00    -0.056 NA
ATOM     18  O   UNL     1      -1.127   1.067  24.073  0.00  0.00    -0.336 OA
ENDROOT
BRANCH  14   4
ATOM      1  O   UNL     1       0.585   2.330  26.806  0.00  0.00    -0.222 OA
ATOM      2  C   UNL     1       0.007   2.279  26.219  0.00  0.00    +0.170 C 
ATOM      3  C   UNL     1      -0.286   1.583  25.887  0.00  0.00    +0.060 C 
ATOM      4  C   UNL     1      -0.853   1.789  25.324  0.00  0.00    +0.140 C 
ATOM      5  N   UNL     1      -0.911   2.612  25.310  0.00  0.00    -0.260 NA
ATOM     13  C   UNL     1      -0.379   2.914  25.863  0.00  0.00    +0.106 C 
BRANCH   5   6
ATOM      6  C   UNL     1      -1.412   3.054  24.827  0.00  0.00    +0.100 C 
BRANCH   6   7
ATOM      7  C   UNL     1      -1.526   3.857  24.976  0.00  0.00    -0.003 A 
ATOM      8  C   UNL     1      -0.983   4.411  24.693  0.00  0.00    +0.018 A 
ATOM      9  C   UNL     1      -1.098   5.214  24.843  0.00  0.00    +0.099 A 
ATOM     10  N   UNL     1      -1.754   5.464  25.275  0.00  0.00    -0.242 NA
ATOM     11  C   UNL     1      -2.297   4.910  25.558  0.00  0.00    +0.099 A 
ATOM     12  C   UNL     1      -2.182   4.108  25.408  0.00  0.00    +0.018 A 
ENDBRANCH   6   7
ENDBRANCH   5   6
ENDBRANCH  14   4
BRANCH  16  19
ATOM     19  C   UNL     1      -2.861  -0.119  24.450  0.00  0.00    +0.041 A 
ATOM     20  C   UNL     1      -3.611   0.176  24.274  0.00  0.00    +0.003 A 
ATOM     21  C   UNL     1      -4.262  -0.330  24.269  0.00  0.00    +0.002 A 
ATOM     22  C   UNL     1      -4.164  -1.132  24.439  0.00  0.00    +0.024 A 
ATOM     23  C   UNL     1      -3.414  -1.427  24.615  0.00  0.00    +0.143 A 
ATOM     24  C   UNL     1      -2.762  -0.920  24.620  0.00  0.00    +0.027 A 
BRANCH  23  25
ATOM     25  N   UNL     1      -3.315  -2.228  24.785  0.00  0.00    +0.058 N 
ATOM     26  O   UNL     1      -3.049  -2.744  24.198  0.00  0.00    -0.126 OA
ATOM     27  O   UNL     1      -3.481  -2.513  25.541  0.00  0.00    -0.126 OA
ENDBRANCH  23  25
ENDBRANCH  16  19
TORSDOF 5
ENDMDL
MODEL 7
REMARK VINA RESULT:     -10.5      1.507      4.710
REMARK  Name = 
REMARK  5 active torsions:
REMARK  status: ('A' for Active; 'I' for Inactive)
REMARK    1  A    between atoms: C_4  and  C_14
REMARK    2  A    between atoms: N_5  and  C_6
REMARK    3  A    between atoms: C_6  and  C_7
REMARK    4  A    between atoms: C_16  and  C_19
REMARK    5  A    between atoms: C_23  and  N_25
REMARK                            x       y       z     vdW  Elec       q    Type
REMARK                         _______ _______ _______ _____ _____    ______ ____
ROOT
ATOM     14  C   UNL     1      -3.727   0.396  24.171  0.00  0.00    +0.251 A 
ATOM     15  N   UNL     1      -3.961   0.915  24.768  0.00  0.00    -0.190 NA
ATOM     16  C   UNL     1      -4.018   1.671  24.441  0.00  0.00    +0.203 A 
ATOM     17  N   UNL     1      -3.819   1.620  23.643  0.00  0.00    -0.056 NA
ATOM     18  O   UNL     1      -3.638   0.832  23.475  0.00  0.00    -0.336 OA
ENDROOT
BRANCH  14   4
ATOM      1  O   UNL     1      -4.122  -2.479  24.102  0.00  0.00    -0.222 OA
ATOM      2  C   UNL     1      -3.784  -1.736  24.222  0.00  0.00    +0.170 C 
ATOM      3  C   UNL     1      -4.133  -1.011  24.044  0.00  0.00    +0.060 C 
ATOM      4  C   UNL     1      -3.602  -0.415  24.254  0.00  0.00    +0.140 C 
ATOM      5  N   UNL     1      -2.925  -0.773  24.561  0.00  0.00    -0.260 NA
ATOM     13  C   UNL     1      -3.038  -1.590  24.541  0.00  0.00    +0.106 C 
BRANCH   5   6
ATOM      6  C   UNL     1      -2.254  -0.383  24.839  0.00  0.00    +0.100 C 
BRANCH   6   7
ATOM      7  C   UNL     1      -1.536  -0.784  24.892  0.00  0.00    -0.003 A 
ATOM      8  C   UNL     1      -1.340  -1.190  25.584  0.00  0.00    +0.018 A 
ATOM      9  C   UNL     1      -0.620  -1.591  25.636  0.00  0.00    +0.099 A 
ATOM     10  N   UNL     1      -0.099  -1.587  24.998  0.00  0.00    -0.242 NA
ATOM     11  C   UNL     1      -0.294  -1.181  24.307  0.00  0.00    +0.099 A 
ATOM     12  C   UNL     1      -1.013  -0.780  24.255  0.00  0.00    +0.018 A 
ENDBRANCH   6   7
ENDBRANCH   5   6
ENDBRANCH  14   4
BRANCH  16  19
ATOM     19  C   UNL     1      -4.236   2.358  24.844  0.00  0.00    +0.041 A 
ATOM     20  C   UNL     1      -5.034   2.527  24.969  0.00  0.00    +0.003 A 
ATOM     21  C   UNL     1      -5.251   3.213  25.371  0.00  0.00    +0.002 A 
ATOM     22  C   UNL     1      -4.672   3.731  25.648  0.00  0.00    +0.024 A 
ATOM     23  C   UNL     1      -3.874   3.562  25.522  0.00  0.00    +0.143 A 
ATOM     24  C   UNL     1      -3.656   2.875  25.120  0.00  0.00    +0.027 A 
BRANCH  23  25
ATOM     25  N   UNL     1      -3.294   4.080  25.798  0.00  0.00    +0.058 N 
ATOM     26  O   UNL     1      -3.188   4.185  26.610  0.00  0.00    -0.126 OA
ATOM     27  O   UNL     1      -2.820   4.492  25.263  0.00  0.00    -0.126 OA
ENDBRANCH  23  25
ENDBRANCH  16  19
TORSDOF 5
ENDMDL
