MODEL 1
REMARK VINA RESULT:      -9.4      0.000      0.000
REMARK  Name = 
REMARK  5 active torsions:
REMARK  status: ('A' for Active; 'I' for Inactive)
REMARK    1  A    between atoms: O_2  and  C_3
REMARK    2  A    between atoms: C_3  and  C_4
REMARK    3  A    between atoms: C_10  and  C_13
REMARK    4  A    between atoms: C_16  and  C_18
REMARK    5  A    between atoms: N_22  and  C_23
REMARK                            x       y       z     vdW  Elec       q    Type
REMARK                         _______ _______ _______ _____ _____    ______ ____
ROOT
ATOM     13  C   UNL     1      -1.199   0.401  24.563  0.00  0.00    +0.205 A 
ATOM     14  N   UNL     1      -1.307   0.360  25.380  0.00  0.00    -0.056 NA
ATOM     15  O   UNL     1      -2.102   0.506  25.540  0.00  0.00    -0.336 OA
ATOM     16  C   UNL     1      -2.487   0.638  24.821  0.00  0.00    +0.251 A 
ATOM     17  N   UNL     1      -1.928   0.573  24.219  0.00  0.00    -0.190 NA
ENDROOT
BRANCH  13  10
ATOM      4  C   UNL     1       2.218   0.557  22.952  0.00  0.00    +0.277 C 
ATOM      5  O   UNL     1       2.074   1.266  23.348  0.00  0.00    -0.270 OA
ATOM      6  N   UNL     1       1.650  -0.042  22.957  0.00  0.00    -0.158 NA
ATOM      7  C   UNL     1       0.937   0.069  23.358  0.00  0.00    +0.155 A 
ATOM      8  N   UNL     1       0.370  -0.529  23.363  0.00  0.00    -0.227 NA
ATOM      9  C   UNL     1      -0.342  -0.418  23.765  0.00  0.00    +0.103 A 
ATOM     10  C   UNL     1      -0.487   0.291  24.161  0.00  0.00    +0.058 A 
ATOM     11  C   UNL     1       0.082   0.889  24.156  0.00  0.00    +0.008 A 
ATOM     12  C   UNL     1       0.794   0.779  23.755  0.00  0.00    +0.036 A 
BRANCH   4   3
ATOM      3  C   UNL     1       2.930   0.446  22.550  0.00  0.00    +0.229 C 
BRANCH   3   2
ATOM      1  C   UNL     1       4.350   0.596  22.594  0.00  0.00    +0.175 C 
ATOM      2  O   UNL     1       3.596   0.884  22.763  0.00  0.00    -0.342 OA
ENDBRANCH   3   2
ENDBRANCH   4   3
ENDBRANCH  13  10
BRANCH  16  18
ATOM     18  C   UNL     1      -3.289   0.804  24.725  0.00  0.00    +0.138 C 
ATOM     19  C   UNL     1      -3.621   1.553  24.631  0.00  0.00    +0.027 C 
ATOM     20  C   UNL     1      -4.438   1.462  24.554  0.00  0.00    +0.019 C 
ATOM     21  C   UNL     1      -4.609   0.656  24.601  0.00  0.00    +0.072 C 
ATOM     22  N   UNL     1      -3.900   0.250  24.706  0.00  0.00    -0.268 NA
BRANCH  22  23
ATOM     23  C   UNL     1      -3.815  -0.568  24.780  0.00  0.00    +0.063 C 
ATOM     24  C   UNL     1      -3.824  -1.045  24.106  0.00  0.00    +0.048 C 
ATOM     25  C   UNL     1      -3.739  -1.862  24.180  0.00  0.00    +0.144 C 
ATOM     26  O   UNL     1      -3.644  -2.202  24.926  0.00  0.00    -0.354 OA
ATOM     27  C   UNL     1      -3.635  -1.725  25.598  0.00  0.00    +0.144 C 
ATOM     28  C   UNL     1      -3.721  -0.907  25.525  0.00  0.00    +0.048 C 
ENDBRANCH  22  23
ENDBRANCH  16  18
TORSDOF 5
ENDMDL
MODEL 2
REMARK VINA RESULT:      -9.4      2.570      4.705
REMARK  Name = 
REMARK  5 active torsions:
REMARK  status: ('A' for Active; 'I' for Inactive)
REMARK    1  A    between atoms: O_2  and  C_3
REMARK    2  A    between atoms: C_3  and  C_4
REMARK    3  A    between atoms: C_10  and  C_13
REMARK    4  A    between atoms: C_16  and  C_18
REMARK    5  A    between atoms: N_22  and  C_23
REMARK                            x       y       z     vdW  Elec       q    Type
REMARK                         _______ _______ _______ _____ _____    ______ ____
ROOT
ATOM     13  C   UNL     1      -1.074   1.813  25.435  0.00  0.00    +0.205 A 
ATOM     14  N   UNL     1      -0.792   2.058  26.170  0.00  0.00    -0.056 NA
ATOM     15  O   UNL     1      -0.735   2.881  26.160  0.00  0.00    -0.336 OA
ATOM     16  C   UNL     1      -0.983   3.144  25.418  0.00  0.00    +0.251 A 
ATOM     17  N   UNL     1      -1.192   2.485  24.971  0.00  0.00    -0.190 NA
ENDROOT
BRANCH  13  10
ATOM      4  C   UNL     1      -2.339  -1.678  24.723  0.00  0.00    +0.277 C 
ATOM      5  O   UNL     1      -2.904  -1.270  25.164  0.00  0.00    -0.270 OA
ATOM      6  N   UNL     1      -1.633  -1.306  24.513  0.00  0.00    -0.158 NA
ATOM      7  C   UNL     1      -1.493  -0.526  24.743  0.00  0.00    +0.155 A 
ATOM      8  N   UNL     1      -0.788  -0.154  24.533  0.00  0.00    -0.227 NA
ATOM      9  C   UNL     1      -0.648   0.625  24.763  0.00  0.00    +0.103 A 
ATOM     10  C   UNL     1      -1.214   1.033  25.204  0.00  0.00    +0.058 A 
ATOM     11  C   UNL     1      -1.920   0.661  25.414  0.00  0.00    +0.008 A 
ATOM     12  C   UNL     1      -2.060  -0.119  25.184  0.00  0.00    +0.036 A 
BRANCH   4   3
ATOM      3  C   UNL     1      -2.479  -2.458  24.493  0.00  0.00    +0.229 C 
BRANCH   3   2
ATOM      1  C   UNL     1      -3.515  -3.400  24.211  0.00  0.00    +0.175 C 
ATOM      2  O   UNL     1      -3.182  -2.832  24.708  0.00  0.00    -0.342 OA
ENDBRANCH   3   2
ENDBRANCH   4   3
ENDBRANCH  13  10
BRANCH  16  18
ATOM     18  C   UNL     1      -1.015   3.930  25.169  0.00  0.00    +0.138 C 
ATOM     19  C   UNL     1      -0.387   4.370  24.868  0.00  0.00    +0.027 C 
ATOM     20  C   UNL     1      -0.666   5.126  24.691  0.00  0.00    +0.019 C 
ATOM     21  C   UNL     1      -1.468   5.153  24.884  0.00  0.00    +0.072 C 
ATOM     22  N   UNL     1      -1.684   4.415  25.180  0.00  0.00    -0.268 NA
BRANCH  22  23
ATOM     23  C   UNL     1      -2.436   4.197  25.440  0.00  0.00    +0.063 C 
ATOM     24  C   UNL     1      -2.998   3.931  24.897  0.00  0.00    +0.048 C 
ATOM     25  C   UNL     1      -3.751   3.713  25.157  0.00  0.00    +0.144 C 
ATOM     26  O   UNL     1      -3.940   3.760  25.959  0.00  0.00    -0.354 OA
ATOM     27  C   UNL     1      -3.378   4.025  26.501  0.00  0.00    +0.144 C 
ATOM     28  C   UNL     1      -2.625   4.244  26.241  0.00  0.00    +0.048 C 
ENDBRANCH  22  23
ENDBRANCH  16  18
TORSDOF 5
ENDMDL
MODEL 3
REMARK VINA RESULT:      -9.0      0.946      2.120
REMARK  Name = 
REMARK  5 active torsions:
REMARK  status: ('A' for Active; 'I' for Inactive)
REMARK    1  A    between atoms: O_2  and  C_3
REMARK    2  A    between atoms: C_3  and  C_4
REMARK    3  A    between atoms: C_10  and  C_13
REMARK    4  A    between atoms: C_16  and  C_18
REMARK    5  A    between atoms: N_22  and  C_23
REMARK                            x       y       z     vdW  Elec       q    Type
REMARK                         _______ _______ _______ _____ _____    ______ ____
ROOT
ATOM     13  C   UNL     1      -1.303   0.599  24.635  0.00  0.00    +0.205 A 
ATOM     14  N   UNL     1      -1.389   0.981  25.361  0.00  0.00    -0.056 NA
ATOM     15  O   UNL     1      -2.193   1.013  25.539  0.00  0.00    -0.336 OA
ATOM     16  C   UNL     1      -2.605   0.651  24.922  0.00  0.00    +0.251 A 
ATOM     17  N   UNL     1      -2.055   0.396  24.364  0.00  0.00    -0.190 NA
ENDROOT
BRANCH  13  10
ATOM      4  C   UNL     1       2.125   0.583  23.038  0.00  0.00    +0.277 C 
ATOM      5  O   UNL     1       1.988   1.322  23.379  0.00  0.00    -0.270 OA
ATOM      6  N   UNL     1       1.547  -0.005  23.085  0.00  0.00    -0.158 NA
ATOM      7  C   UNL     1       0.835   0.146  23.473  0.00  0.00    +0.155 A 
ATOM      8  N   UNL     1       0.258  -0.442  23.519  0.00  0.00    -0.227 NA
ATOM      9  C   UNL     1      -0.454  -0.290  23.907  0.00  0.00    +0.103 A 
ATOM     10  C   UNL     1      -0.590   0.448  24.247  0.00  0.00    +0.058 A 
ATOM     11  C   UNL     1      -0.013   1.036  24.201  0.00  0.00    +0.008 A 
ATOM     12  C   UNL     1       0.700   0.885  23.813  0.00  0.00    +0.036 A 
BRANCH   4   3
ATOM      3  C   UNL     1       2.837   0.432  22.651  0.00  0.00    +0.229 C 
BRANCH   3   2
ATOM      1  C   UNL     1       4.252   0.624  22.603  0.00  0.00    +0.175 C 
ATOM      2  O   UNL     1       3.501   0.893  22.815  0.00  0.00    -0.342 OA
ENDBRANCH   3   2
ENDBRANCH   4   3
ENDBRANCH  13  10
BRANCH  16  18
ATOM     18  C   UNL     1      -3.424   0.561  24.874  0.00  0.00    +0.138 C 
ATOM     19  C   UNL     1      -3.846  -0.130  25.031  0.00  0.00    +0.027 C 
ATOM     20  C   UNL     1      -4.648   0.030  24.914  0.00  0.00    +0.019 C 
ATOM     21  C   UNL     1      -4.719   0.819  24.686  0.00  0.00    +0.072 C 
ATOM     22  N   UNL     1      -3.964   1.148  24.661  0.00  0.00    -0.268 NA
BRANCH  22  23
ATOM     23  C   UNL     1      -3.779   1.926  24.459  0.00  0.00    +0.063 C 
ATOM     24  C   UNL     1      -3.744   2.506  25.045  0.00  0.00    +0.048 C 
ATOM     25  C   UNL     1      -3.559   3.285  24.844  0.00  0.00    +0.144 C 
ATOM     26  O   UNL     1      -3.409   3.483  24.057  0.00  0.00    -0.354 OA
ATOM     27  C   UNL     1      -3.443   2.903  23.472  0.00  0.00    +0.144 C 
ATOM     28  C   UNL     1      -3.628   2.124  23.673  0.00  0.00    +0.048 C 
ENDBRANCH  22  23
ENDBRANCH  16  18
TORSDOF 5
ENDMDL
MODEL 4
REMARK VINA RESULT:      -8.4      2.914      4.098
REMARK  Name = 
REMARK  5 active torsions:
REMARK  status: ('A' for Active; 'I' for Inactive)
REMARK    1  A    between atoms: O_2  and  C_3
REMARK    2  A    between atoms: C_3  and  C_4
REMARK    3  A    between atoms: C_10  and  C_13
REMARK    4  A    between atoms: C_16  and  C_18
REMARK    5  A    between atoms: N_22  and  C_23
REMARK                            x       y       z     vdW  Elec       q    Type
REMARK                         _______ _______ _______ _____ _____    ______ ____
ROOT
ATOM     13  C   UNL     1      -3.698   0.595  24.882  0.00  0.00    +0.205 A 
ATOM     14  N   UNL     1      -4.123   0.274  25.512  0.00  0.00    -0.056 NA
ATOM     15  O   UNL     1      -4.228  -0.531  25.366  0.00  0.00    -0.336 OA
ATOM     16  C   UNL     1      -3.868  -0.707  24.644  0.00  0.00    +0.251 A 
ATOM     17  N   UNL     1      -3.541  -0.012  24.346  0.00  0.00    -0.190 NA
ENDROOT
BRANCH  13  10
ATOM      4  C   UNL     1      -2.198   4.061  25.050  0.00  0.00    +0.277 C 
ATOM      5  O   UNL     1      -1.836   3.582  25.616  0.00  0.00    -0.270 OA
ATOM      6  N   UNL     1      -2.788   3.751  24.563  0.00  0.00    -0.158 NA
ATOM      7  C   UNL     1      -3.016   2.962  24.643  0.00  0.00    +0.155 A 
ATOM      8  N   UNL     1      -3.605   2.652  24.157  0.00  0.00    -0.227 NA
ATOM      9  C   UNL     1      -3.832   1.863  24.237  0.00  0.00    +0.103 A 
ATOM     10  C   UNL     1      -3.470   1.384  24.802  0.00  0.00    +0.058 A 
ATOM     11  C   UNL     1      -2.880   1.694  25.289  0.00  0.00    +0.008 A 
ATOM     12  C   UNL     1      -2.653   2.483  25.209  0.00  0.00    +0.036 A 
BRANCH   4   3
ATOM      3  C   UNL     1      -1.970   4.850  24.970  0.00  0.00    +0.229 C 
BRANCH   3   2
ATOM      1  C   UNL     1      -0.897   5.770  24.766  0.00  0.00    +0.175 C 
ATOM      2  O   UNL     1      -1.183   5.066  25.087  0.00  0.00    -0.342 OA
ENDBRANCH   3   2
ENDBRANCH   4   3
ENDBRANCH  13  10
BRANCH  16  18
ATOM     18  C   UNL     1      -3.841  -1.450  24.285  0.00  0.00    +0.138 C 
ATOM     19  C   UNL     1      -4.449  -1.804  23.856  0.00  0.00    +0.027 C 
ATOM     20  C   UNL     1      -4.183  -2.542  23.599  0.00  0.00    +0.019 C 
ATOM     21  C   UNL     1      -3.411  -2.643  23.870  0.00  0.00    +0.072 C 
ATOM     22  N   UNL     1      -3.198  -1.969  24.294  0.00  0.00    -0.268 NA
BRANCH  22  23
ATOM     23  C   UNL     1      -2.472  -1.835  24.662  0.00  0.00    +0.063 C 
ATOM     24  C   UNL     1      -1.830  -1.567  24.219  0.00  0.00    +0.048 C 
ATOM     25  C   UNL     1      -1.103  -1.432  24.588  0.00  0.00    +0.144 C 
ATOM     26  O   UNL     1      -1.020  -1.566  25.398  0.00  0.00    -0.354 OA
ATOM     27  C   UNL     1      -1.662  -1.835  25.839  0.00  0.00    +0.144 C 
ATOM     28  C   UNL     1      -2.389  -1.969  25.471  0.00  0.00    +0.048 C 
ENDBRANCH  22  23
ENDBRANCH  16  18
TORSDOF 5
ENDMDL
MODEL 5
REMARK VINA RESULT:      -8.3      2.425      3.636
REMARK  Name = 
REMARK  5 active torsions:
REMARK  status: ('A' for Active; 'I' for Inactive)
REMARK    1  A    between atoms: O_2  and  C_3
REMARK    2  A    between atoms: C_3  and  C_4
REMARK    3  A    between atoms: C_10  and  C_13
REMARK    4  A    between atoms: C_16  and  C_18
REMARK    5  A    between atoms: N_22  and  C_23
REMARK                            x       y       z     vdW  Elec       q    Type
REMARK                         _______ _______ _______ _____ _____    ______ ____
ROOT
ATOM     13  C   UNL     1      -1.014   0.246  25.209  0.00  0.00    +0.205 A 
ATOM     14  N   UNL     1      -0.844  -0.166  25.902  0.00  0.00    -0.056 NA
ATOM     15  O   UNL     1      -1.066  -0.953  25.793  0.00  0.00    -0.336 OA
ATOM     16  C   UNL     1      -1.375  -1.026  25.031  0.00  0.00    +0.251 A 
ATOM     17  N   UNL     1      -1.343  -0.286  24.671  0.00  0.00    -0.190 NA
ENDROOT
BRANCH  13  10
ATOM      4  C   UNL     1      -0.923   4.024  25.086  0.00  0.00    +0.277 C 
ATOM      5  O   UNL     1      -1.502   3.785  25.624  0.00  0.00    -0.270 OA
ATOM      6  N   UNL     1      -0.479   3.459  24.681  0.00  0.00    -0.158 NA
ATOM      7  C   UNL     1      -0.613   2.656  24.813  0.00  0.00    +0.155 A 
ATOM      8  N   UNL     1      -0.168   2.092  24.408  0.00  0.00    -0.227 NA
ATOM      9  C   UNL     1      -0.302   1.289  24.540  0.00  0.00    +0.103 A 
ATOM     10  C   UNL     1      -0.880   1.049  25.077  0.00  0.00    +0.058 A 
ATOM     11  C   UNL     1      -1.325   1.614  25.483  0.00  0.00    +0.008 A 
ATOM     12  C   UNL     1      -1.191   2.418  25.351  0.00  0.00    +0.036 A 
BRANCH   4   3
ATOM      3  C   UNL     1      -0.790   4.828  24.954  0.00  0.00    +0.229 C 
BRANCH   3   2
ATOM      1  C   UNL     1      -1.367   6.122  24.782  0.00  0.00    +0.175 C 
ATOM      2  O   UNL     1      -1.374   5.379  25.139  0.00  0.00    -0.342 OA
ENDBRANCH   3   2
ENDBRANCH   4   3
ENDBRANCH  13  10
BRANCH  16  18
ATOM     18  C   UNL     1      -1.665  -1.720  24.691  0.00  0.00    +0.138 C 
ATOM     19  C   UNL     1      -1.212  -2.324  24.359  0.00  0.00    +0.027 C 
ATOM     20  C   UNL     1      -1.727  -2.908  24.087  0.00  0.00    +0.019 C 
ATOM     21  C   UNL     1      -2.498  -2.665  24.250  0.00  0.00    +0.072 C 
ATOM     22  N   UNL     1      -2.460  -1.931  24.624  0.00  0.00    -0.268 NA
BRANCH  22  23
ATOM     23  C   UNL     1      -3.103  -1.485  24.884  0.00  0.00    +0.063 C 
ATOM     24  C   UNL     1      -3.324  -1.507  25.680  0.00  0.00    +0.048 C 
ATOM     25  C   UNL     1      -3.967  -1.061  25.941  0.00  0.00    +0.144 C 
ATOM     26  O   UNL     1      -4.389  -0.593  25.408  0.00  0.00    -0.354 OA
ATOM     27  C   UNL     1      -4.168  -0.571  24.614  0.00  0.00    +0.144 C 
ATOM     28  C   UNL     1      -3.525  -1.017  24.353  0.00  0.00    +0.048 C 
ENDBRANCH  22  23
ENDBRANCH  16  18
TORSDOF 5
ENDMDL
MODEL 6
REMARK VINA RESULT:      -8.2      2.719      5.197
REMARK  Name = 
REMARK  5 active torsions:
REMARK  status: ('A' for Active; 'I' for Inactive)
REMARK    1  A    between atoms: O_2  and  C_3
REMARK    2  A    between atoms: C_3  and  C_4
REMARK    3  A    between atoms: C_10  and  C_13
REMARK    4  A    between atoms: C_16  and  C_18
REMARK    5  A    between atoms: N_22  and  C_23
REMARK                            x       y       z     vdW  Elec       q    Type
REMARK                         _______ _______ _______ _____ _____    ______ ____
ROOT
ATOM     13  C   UNL     1      -3.225   2.032  24.217  0.00  0.00    +0.205 A 
ATOM     14  N   UNL     1      -3.102   2.467  23.527  0.00  0.00    -0.056 NA
ATOM     15  O   UNL     1      -2.827   3.214  23.741  0.00  0.00    -0.336 OA
ATOM     16  C   UNL     1      -2.779   3.241  24.565  0.00  0.00    +0.251 A 
ATOM     17  N   UNL     1      -3.025   2.511  24.858  0.00  0.00    -0.190 NA
ENDROOT
BRANCH  13  10
ATOM      4  C   UNL     1      -3.826  -1.701  24.175  0.00  0.00    +0.277 C 
ATOM      5  O   UNL     1      -3.055  -1.548  23.925  0.00  0.00    -0.270 OA
ATOM      6  N   UNL     1      -4.323  -1.075  24.384  0.00  0.00    -0.158 NA
ATOM      7  C   UNL     1      -4.049  -0.298  24.342  0.00  0.00    +0.155 A 
ATOM      8  N   UNL     1      -4.545   0.326  24.551  0.00  0.00    -0.227 NA
ATOM      9  C   UNL     1      -4.271   1.103  24.509  0.00  0.00    +0.103 A 
ATOM     10  C   UNL     1      -3.500   1.255  24.259  0.00  0.00    +0.058 A 
ATOM     11  C   UNL     1      -3.002   0.630  24.050  0.00  0.00    +0.008 A 
ATOM     12  C   UNL     1      -3.277  -0.147  24.092  0.00  0.00    +0.036 A 
BRANCH   4   3
ATOM      3  C   UNL     1      -4.101  -2.478  24.217  0.00  0.00    +0.229 C 
BRANCH   3   2
ATOM      1  C   UNL     1      -3.669  -3.838  24.278  0.00  0.00    +0.175 C 
ATOM      2  O   UNL     1      -3.631  -3.063  24.558  0.00  0.00    -0.342 OA
ENDBRANCH   3   2
ENDBRANCH   4   3
ENDBRANCH  13  10
BRANCH  16  18
ATOM     18  C   UNL     1      -2.529   3.886  25.014  0.00  0.00    +0.138 C 
ATOM     19  C   UNL     1      -2.999   4.515  25.265  0.00  0.00    +0.027 C 
ATOM     20  C   UNL     1      -2.524   5.033  25.697  0.00  0.00    +0.019 C 
ATOM     21  C   UNL     1      -1.760   4.723  25.714  0.00  0.00    +0.072 C 
ATOM     22  N   UNL     1      -1.762   4.015  25.292  0.00  0.00    -0.268 NA
BRANCH  22  23
ATOM     23  C   UNL     1      -1.113   3.521  25.169  0.00  0.00    +0.063 C 
ATOM     24  C   UNL     1      -0.900   2.969  25.745  0.00  0.00    +0.048 C 
ATOM     25  C   UNL     1      -0.251   2.474  25.622  0.00  0.00    +0.144 C 
ATOM     26  O   UNL     1       0.185   2.531  24.923  0.00  0.00    -0.354 OA
ATOM     27  C   UNL     1      -0.028   3.082  24.348  0.00  0.00    +0.144 C 
ATOM     28  C   UNL     1      -0.678   3.576  24.471  0.00  0.00    +0.048 C 
ENDBRANCH  22  23
ENDBRANCH  16  18
TORSDOF 5
ENDMDL
