MODEL 1
REMARK VINA RESULT:     -10.8      0.000      0.000
REMARK  Name = 
REMARK  7 active torsions:
REMARK  status: ('A' for Active; 'I' for Inactive)
REMARK    1  A    between atoms: C_2  and  C_4
REMARK    2  A    between atoms: C_6  and  C_7
REMARK    3  A    between atoms: C_7  and  C_8
REMARK    4  A    between atoms: C_21  and  C_22
REMARK    5  A    between atoms: C_22  and  N_23
REMARK    6  A    between atoms: C_24  and  C_26
REMARK    7  A    between atoms: C_26  and  N_27
REMARK                            x       y       z     vdW  Elec       q    Type
REMARK                         _______ _______ _______ _____ _____    ______ ____
ROOT
ATOM      4  C   UNL     1      -3.365   1.835  23.807  0.00  0.00    +0.006 C 
ATOM      5  C   UNL     1      -3.821   1.162  23.943  0.00  0.00    +0.005 C 
ATOM      6  C   UNL     1      -4.409   1.172  24.522  0.00  0.00    +0.026 C 
ATOM     18  C   UNL     1      -4.541   1.855  24.965  0.00  0.00    -0.048 C 
ATOM     19  C   UNL     1      -5.128   1.865  25.544  0.00  0.00    +0.026 C 
ATOM     20  C   UNL     1      -4.084   2.529  24.828  0.00  0.00    -0.033 C 
ATOM     21  C   UNL     1      -3.496   2.519  24.249  0.00  0.00    +0.043 C 
ENDROOT
BRANCH   4   2
ATOM      1  C   UNL     1      -2.945   2.090  22.465  0.00  0.00    +0.000 C 
ATOM      2  C   UNL     1      -2.778   1.825  23.228  0.00  0.00    +0.000 C 
ATOM      3  C   UNL     1      -2.022   1.551  23.411  0.00  0.00    +0.000 C 
ENDBRANCH   4   2
BRANCH   6   7
ATOM      7  C   UNL     1      -4.866   0.498  24.658  0.00  0.00    +0.070 C 
BRANCH   7   8
ATOM      8  C   UNL     1      -4.504  -0.242  24.713  0.00  0.00    +0.139 A 
ATOM      9  N   UNL     1      -4.077  -0.526  25.359  0.00  0.00    -0.229 NA
ATOM     10  C   UNL     1      -3.814  -1.287  25.176  0.00  0.00    +0.100 A 
ATOM     11  C   UNL     1      -4.079  -1.472  24.417  0.00  0.00    +0.100 A 
ATOM     12  N   UNL     1      -4.505  -0.826  24.131  0.00  0.00    -0.229 NA
ATOM     13  C   UNL     1      -3.899  -2.205  24.085  0.00  0.00    +0.016 A 
ATOM     14  C   UNL     1      -3.453  -2.752  24.512  0.00  0.00    -0.020 A 
ATOM     15  C   UNL     1      -3.272  -3.486  24.179  0.00  0.00    +0.031 C 
ATOM     16  C   UNL     1      -3.188  -2.567  25.271  0.00  0.00    -0.003 A 
ATOM     17  C   UNL     1      -3.369  -1.834  25.603  0.00  0.00    +0.020 A 
ENDBRANCH   7   8
ENDBRANCH   6   7
BRANCH  21  22
ATOM     22  C   UNL     1      -3.040   3.193  24.113  0.00  0.00    +0.119 C 
BRANCH  22  23
ATOM     23  N   UNL     1      -2.583   3.512  24.720  0.00  0.00    -0.204 NA
ATOM     24  C   UNL     1      -2.395   4.315  24.718  0.00  0.00    +0.258 C 
ATOM     25  O   UNL     1      -2.665   4.799  24.107  0.00  0.00    -0.272 OA
BRANCH  24  26
ATOM     26  C   UNL     1      -1.938   4.634  25.326  0.00  0.00    +0.160 C 
BRANCH  26  27
ATOM     27  N   UNL     1      -1.183   4.926  25.165  0.00  0.00    -0.263 NA
ATOM     28  C   UNL     1      -0.529   4.427  25.213  0.00  0.00    +0.090 C 
ATOM     29  C   UNL     1      -1.084   5.718  24.957  0.00  0.00    +0.090 C 
ENDBRANCH  26  27
ENDBRANCH  24  26
ENDBRANCH  22  23
ENDBRANCH  21  22
TORSDOF 7
ENDMDL
MODEL 2
REMARK VINA RESULT:     -10.1      2.808      4.389
REMARK  Name = 
REMARK  7 active torsions:
REMARK  status: ('A' for Active; 'I' for Inactive)
REMARK    1  A    between atoms: C_2  and  C_4
REMARK    2  A    between atoms: C_6  and  C_7
REMARK    3  A    between atoms: C_7  and  C_8
REMARK    4  A    between atoms: C_21  and  C_22
REMARK    5  A    between atoms: C_22  and  N_23
REMARK    6  A    between atoms: C_24  and  C_26
REMARK    7  A    between atoms: C_26  and  N_27
REMARK                            x       y       z     vdW  Elec       q    Type
REMARK                         _______ _______ _______ _____ _____    ______ ____
ROOT
ATOM      4  C   UNL     1      -1.390   2.346  24.416  0.00  0.00    +0.006 C 
ATOM      5  C   UNL     1      -2.141   2.657  24.274  0.00  0.00    +0.005 C 
ATOM      6  C   UNL     1      -2.545   2.457  23.583  0.00  0.00    +0.026 C 
ATOM     18  C   UNL     1      -2.200   1.947  23.035  0.00  0.00    -0.048 C 
ATOM     19  C   UNL     1      -2.604   1.748  22.344  0.00  0.00    +0.026 C 
ATOM     20  C   UNL     1      -1.449   1.637  23.178  0.00  0.00    -0.033 C 
ATOM     21  C   UNL     1      -1.044   1.836  23.869  0.00  0.00    +0.043 C 
ENDROOT
BRANCH   4   2
ATOM      1  C   UNL     1      -0.546   3.243  25.141  0.00  0.00    +0.000 C 
ATOM      2  C   UNL     1      -0.986   2.546  25.107  0.00  0.00    +0.000 C 
ATOM      3  C   UNL     1      -1.021   2.048  25.764  0.00  0.00    +0.000 C 
ENDBRANCH   4   2
BRANCH   6   7
ATOM      7  C   UNL     1      -3.297   2.768  23.440  0.00  0.00    +0.070 C 
BRANCH   7   8
ATOM      8  C   UNL     1      -3.885   2.706  24.015  0.00  0.00    +0.139 A 
ATOM      9  N   UNL     1      -4.153   3.317  24.502  0.00  0.00    -0.229 NA
ATOM     10  C   UNL     1      -4.743   3.011  24.992  0.00  0.00    +0.100 A 
ATOM     11  C   UNL     1      -4.838   2.213  24.809  0.00  0.00    +0.100 A 
ATOM     12  N   UNL     1      -4.308   2.024  24.205  0.00  0.00    -0.229 NA
ATOM     13  C   UNL     1      -5.395   1.760  25.215  0.00  0.00    +0.016 A 
ATOM     14  C   UNL     1      -5.857   2.106  25.805  0.00  0.00    -0.020 A 
ATOM     15  C   UNL     1      -6.414   1.653  26.211  0.00  0.00    +0.031 C 
ATOM     16  C   UNL     1      -5.761   2.905  25.988  0.00  0.00    -0.003 A 
ATOM     17  C   UNL     1      -5.204   3.357  25.582  0.00  0.00    +0.020 A 
ENDBRANCH   7   8
ENDBRANCH   6   7
BRANCH  21  22
ATOM     22  C   UNL     1      -0.293   1.525  24.011  0.00  0.00    +0.119 C 
BRANCH  22  23
ATOM     23  N   UNL     1      -0.072   0.809  23.669  0.00  0.00    -0.204 NA
ATOM     24  C   UNL     1       0.725   0.646  23.530  0.00  0.00    +0.258 C 
ATOM     25  O   UNL     1       1.301   1.200  23.734  0.00  0.00    -0.272 OA
BRANCH  24  26
ATOM     26  C   UNL     1       0.947  -0.071  23.188  0.00  0.00    +0.160 C 
BRANCH  26  27
ATOM     27  N   UNL     1       1.561  -0.094  22.638  0.00  0.00    -0.263 NA
ATOM     28  C   UNL     1       1.404  -0.288  21.852  0.00  0.00    +0.090 C 
ATOM     29  C   UNL     1       2.333   0.077  22.874  0.00  0.00    +0.090 C 
ENDBRANCH  26  27
ENDBRANCH  24  26
ENDBRANCH  22  23
ENDBRANCH  21  22
TORSDOF 7
ENDMDL
MODEL 3
REMARK VINA RESULT:      -9.7      1.513      5.332
REMARK  Name = 
REMARK  7 active torsions:
REMARK  status: ('A' for Active; 'I' for Inactive)
REMARK    1  A    between atoms: C_2  and  C_4
REMARK    2  A    between atoms: C_6  and  C_7
REMARK    3  A    between atoms: C_7  and  C_8
REMARK    4  A    between atoms: C_21  and  C_22
REMARK    5  A    between atoms: C_22  and  N_23
REMARK    6  A    between atoms: C_24  and  C_26
REMARK    7  A    between atoms: C_26  and  N_27
REMARK                            x       y       z     vdW  Elec       q    Type
REMARK                         _______ _______ _______ _____ _____    ______ ____
ROOT
ATOM      4  C   UNL     1      -3.543   1.151  23.934  0.00  0.00    +0.006 C 
ATOM      5  C   UNL     1      -3.639   1.934  24.175  0.00  0.00    +0.005 C 
ATOM      6  C   UNL     1      -4.254   2.135  24.687  0.00  0.00    +0.026 C 
ATOM     18  C   UNL     1      -4.773   1.554  24.957  0.00  0.00    -0.048 C 
ATOM     19  C   UNL     1      -5.388   1.755  25.468  0.00  0.00    +0.026 C 
ATOM     20  C   UNL     1      -4.676   0.771  24.715  0.00  0.00    -0.033 C 
ATOM     21  C   UNL     1      -4.061   0.570  24.203  0.00  0.00    +0.043 C 
ENDROOT
BRANCH   4   2
ATOM      1  C   UNL     1      -2.193   0.730  23.726  0.00  0.00    +0.000 C 
ATOM      2  C   UNL     1      -2.928   0.950  23.422  0.00  0.00    +0.000 C 
ATOM      3  C   UNL     1      -3.046   0.969  22.606  0.00  0.00    +0.000 C 
ENDBRANCH   4   2
BRANCH   6   7
ATOM      7  C   UNL     1      -4.351   2.918  24.929  0.00  0.00    +0.070 C 
BRANCH   7   8
ATOM      8  C   UNL     1      -3.690   3.398  25.049  0.00  0.00    +0.139 A 
ATOM      9  N   UNL     1      -3.212   3.406  25.722  0.00  0.00    -0.229 NA
ATOM     10  C   UNL     1      -2.618   3.966  25.606  0.00  0.00    +0.100 A 
ATOM     11  C   UNL     1      -2.727   4.304  24.861  0.00  0.00    +0.100 A 
ATOM     12  N   UNL     1      -3.390   3.952  24.517  0.00  0.00    -0.229 NA
ATOM     13  C   UNL     1      -2.211   4.888  24.592  0.00  0.00    +0.016 A 
ATOM     14  C   UNL     1      -1.584   5.133  25.069  0.00  0.00    -0.020 A 
ATOM     15  C   UNL     1      -1.066   5.718  24.800  0.00  0.00    +0.031 C 
ATOM     16  C   UNL     1      -1.474   4.796  25.813  0.00  0.00    -0.003 A 
ATOM     17  C   UNL     1      -1.991   4.213  26.082  0.00  0.00    +0.020 A 
ENDBRANCH   7   8
ENDBRANCH   6   7
BRANCH  21  22
ATOM     22  C   UNL     1      -3.965  -0.213  23.962  0.00  0.00    +0.119 C 
BRANCH  22  23
ATOM     23  N   UNL     1      -3.909  -0.814  24.523  0.00  0.00    -0.204 NA
ATOM     24  C   UNL     1      -4.028  -1.600  24.301  0.00  0.00    +0.258 C 
ATOM     25  O   UNL     1      -4.206  -1.784  23.516  0.00  0.00    -0.272 OA
BRANCH  24  26
ATOM     26  C   UNL     1      -3.972  -2.201  24.862  0.00  0.00    +0.160 C 
BRANCH  26  27
ATOM     27  N   UNL     1      -3.382  -2.775  24.795  0.00  0.00    -0.263 NA
ATOM     28  C   UNL     1      -3.515  -3.454  24.347  0.00  0.00    +0.090 C 
ATOM     29  C   UNL     1      -2.658  -2.668  25.177  0.00  0.00    +0.090 C 
ENDBRANCH  26  27
ENDBRANCH  24  26
ENDBRANCH  22  23
ENDBRANCH  21  22
TORSDOF 7
ENDMDL
