MODEL 1
REMARK VINA RESULT:     -10.0      0.000      0.000
REMARK  Name = 
REMARK  5 active torsions:
REMARK  status: ('A' for Active; 'I' for Inactive)
REMARK    1  A    between atoms: C_2  and  O_10
REMARK    2  A    between atoms: N_3  and  C_4
REMARK    3  A    between atoms: O_10  and  C_11
REMARK    4  A    between atoms: C_15  and  N_19
REMARK    5  A    between atoms: C_22  and  C_26
REMARK                            x       y       z     vdW  Elec       q    Type
REMARK                         _______ _______ _______ _____ _____    ______ ____
ROOT
ATOM     11  C   UNL     1      -2.154   1.499  23.834  0.00  0.00    +0.229 C 
ATOM     12  C   UNL     1      -1.759   2.220  23.895  0.00  0.00    +0.188 C 
ATOM     13  O   UNL     1      -0.950   2.066  23.939  0.00  0.00    -0.348 OA
ATOM     14  C   UNL     1      -0.845   1.248  23.905  0.00  0.00    +0.168 C 
ATOM     15  C   UNL     1      -0.279   0.648  23.910  0.00  0.00    +0.155 C 
ATOM     16  C   UNL     1      -0.674  -0.074  23.850  0.00  0.00    +0.166 C 
ATOM     17  O   UNL     1      -1.483   0.080  23.806  0.00  0.00    -0.348 OA
ATOM     18  C   UNL     1      -1.589   0.897  23.840  0.00  0.00    +0.186 C 
ENDROOT
BRANCH  15  19
ATOM     19  N   UNL     1       0.537   0.751  23.967  0.00  0.00    -0.200 NA
ATOM     20  C   UNL     1       1.035   0.419  23.399  0.00  0.00    +0.237 A 
ATOM     21  N   UNL     1       1.853   0.522  23.456  0.00  0.00    -0.212 NA
ATOM     22  C   UNL     1       2.351   0.190  22.888  0.00  0.00    +0.086 A 
ATOM     23  C   UNL     1       2.031  -0.245  22.264  0.00  0.00    +0.040 A 
ATOM     24  C   UNL     1       1.215  -0.349  22.207  0.00  0.00    +0.103 A 
ATOM     25  N   UNL     1       0.717  -0.017  22.775  0.00  0.00    -0.211 NA
BRANCH  22  26
ATOM     26  C   UNL     1       3.166   0.293  22.944  0.00  0.00    +0.021 A 
ATOM     27  C   UNL     1       3.629  -0.276  23.321  0.00  0.00    +0.042 A 
ATOM     28  C   UNL     1       4.446  -0.173  23.378  0.00  0.00    +0.176 A 
ATOM     29  C   UNL     1       4.800   0.500  23.058  0.00  0.00    +0.176 A 
ATOM     30  O   UNL     1       5.611   0.452  23.196  0.00  0.00    -0.435 OA
ATOM     31  C   UNL     1       5.759  -0.250  23.603  0.00  0.00    +0.429 C 
ATOM     32  O   UNL     1       5.039  -0.636  23.715  0.00  0.00    -0.435 OA
ATOM     33  C   UNL     1       4.337   1.070  22.680  0.00  0.00    +0.040 A 
ATOM     34  C   UNL     1       3.520   0.966  22.624  0.00  0.00    +0.005 A 
ENDBRANCH  22  26
ENDBRANCH  15  19
BRANCH  11  10
ATOM     10  O   UNL     1      -2.970   1.395  23.778  0.00  0.00    -0.432 OA
BRANCH  10   2
ATOM      1  O   UNL     1      -3.236   1.782  25.127  0.00  0.00    -0.225 OA
ATOM      2  C   UNL     1      -3.469   1.740  24.337  0.00  0.00    +0.421 C 
ATOM      3  N   UNL     1      -4.201   2.043  24.105  0.00  0.00    -0.170 NA
BRANCH   3   4
ATOM      4  C   UNL     1      -4.700   2.388  24.664  0.00  0.00    +0.099 C 
ATOM      5  C   UNL     1      -5.286   1.937  25.029  0.00  0.00    +0.022 C 
ATOM      6  C   UNL     1      -5.785   2.281  25.588  0.00  0.00    +0.002 C 
ATOM      7  C   UNL     1      -5.698   3.078  25.783  0.00  0.00    +0.000 C 
ATOM      8  C   UNL     1      -5.112   3.530  25.419  0.00  0.00    +0.002 C 
ATOM      9  C   UNL     1      -4.613   3.186  24.859  0.00  0.00    +0.022 C 
ENDBRANCH   3   4
ENDBRANCH  10   2
ENDBRANCH  11  10
TORSDOF 5
ENDMDL
MODEL 2
REMARK VINA RESULT:     -10.0      1.397      7.495
REMARK  Name = 
REMARK  5 active torsions:
REMARK  status: ('A' for Active; 'I' for Inactive)
REMARK    1  A    between atoms: C_2  and  O_10
REMARK    2  A    between atoms: N_3  and  C_4
REMARK    3  A    between atoms: O_10  and  C_11
REMARK    4  A    between atoms: C_15  and  N_19
REMARK    5  A    between atoms: C_22  and  C_26
REMARK                            x       y       z     vdW  Elec       q    Type
REMARK                         _______ _______ _______ _____ _____    ______ ____
ROOT
ATOM     11  C   UNL     1       1.025   0.516  23.313  0.00  0.00    +0.229 C 
ATOM     12  C   UNL     1       1.019   1.324  23.475  0.00  0.00    +0.188 C 
ATOM     13  O   UNL     1       0.319   1.499  23.876  0.00  0.00    -0.348 OA
ATOM     14  C   UNL     1      -0.107   0.798  23.961  0.00  0.00    +0.168 C 
ATOM     15  C   UNL     1      -0.803   0.473  24.262  0.00  0.00    +0.155 C 
ATOM     16  C   UNL     1      -0.797  -0.336  24.100  0.00  0.00    +0.166 C 
ATOM     17  O   UNL     1      -0.097  -0.511  23.699  0.00  0.00    -0.348 OA
ATOM     18  C   UNL     1       0.329   0.190  23.613  0.00  0.00    +0.186 C 
ENDROOT
BRANCH  15  19
ATOM     19  N   UNL     1      -1.400   0.884  24.656  0.00  0.00    -0.200 NA
ATOM     20  C   UNL     1      -2.161   0.910  24.338  0.00  0.00    +0.237 A 
ATOM     21  N   UNL     1      -2.759   1.322  24.732  0.00  0.00    -0.212 NA
ATOM     22  C   UNL     1      -3.520   1.348  24.414  0.00  0.00    +0.086 A 
ATOM     23  C   UNL     1      -3.683   0.963  23.703  0.00  0.00    +0.040 A 
ATOM     24  C   UNL     1      -3.086   0.552  23.310  0.00  0.00    +0.103 A 
ATOM     25  N   UNL     1      -2.325   0.525  23.627  0.00  0.00    -0.211 NA
BRANCH  22  26
ATOM     26  C   UNL     1      -4.116   1.759  24.808  0.00  0.00    +0.021 A 
ATOM     27  C   UNL     1      -4.115   2.584  24.812  0.00  0.00    +0.042 A 
ATOM     28  C   UNL     1      -4.712   2.996  25.205  0.00  0.00    +0.176 A 
ATOM     29  C   UNL     1      -5.310   2.582  25.595  0.00  0.00    +0.176 A 
ATOM     30  O   UNL     1      -5.822   3.133  25.934  0.00  0.00    -0.435 OA
ATOM     31  C   UNL     1      -5.541   3.887  25.754  0.00  0.00    +0.429 C 
ATOM     32  O   UNL     1      -4.855   3.801  25.304  0.00  0.00    -0.435 OA
ATOM     33  C   UNL     1      -5.311   1.756  25.591  0.00  0.00    +0.040 A 
ATOM     34  C   UNL     1      -4.714   1.346  25.197  0.00  0.00    +0.005 A 
ENDBRANCH  22  26
ENDBRANCH  15  19
BRANCH  11  10
ATOM     10  O   UNL     1       1.622   0.104  22.919  0.00  0.00    -0.432 OA
BRANCH  10   2
ATOM      1  O   UNL     1       2.627   0.988  23.418  0.00  0.00    -0.225 OA
ATOM      2  C   UNL     1       2.413   0.262  23.090  0.00  0.00    +0.421 C 
ATOM      3  N   UNL     1       2.990  -0.306  22.933  0.00  0.00    -0.170 NA
BRANCH   3   4
ATOM      4  C   UNL     1       3.782  -0.149  23.104  0.00  0.00    +0.099 C 
ATOM      5  C   UNL     1       4.191  -0.624  23.639  0.00  0.00    +0.022 C 
ATOM      6  C   UNL     1       4.983  -0.466  23.810  0.00  0.00    +0.002 C 
ATOM      7  C   UNL     1       5.366   0.167  23.447  0.00  0.00    +0.000 C 
ATOM      8  C   UNL     1       4.956   0.644  22.911  0.00  0.00    +0.002 C 
ATOM      9  C   UNL     1       4.164   0.486  22.740  0.00  0.00    +0.022 C 
ENDBRANCH   3   4
ENDBRANCH  10   2
ENDBRANCH  11  10
TORSDOF 5
ENDMDL
MODEL 3
REMARK VINA RESULT:      -8.9      1.857      2.489
REMARK  Name = 
REMARK  5 active torsions:
REMARK  status: ('A' for Active; 'I' for Inactive)
REMARK    1  A    between atoms: C_2  and  O_10
REMARK    2  A    between atoms: N_3  and  C_4
REMARK    3  A    between atoms: O_10  and  C_11
REMARK    4  A    between atoms: C_15  and  N_19
REMARK    5  A    between atoms: C_22  and  C_26
REMARK                            x       y       z     vdW  Elec       q    Type
REMARK                         _______ _______ _______ _____ _____    ______ ____
ROOT
ATOM     11  C   UNL     1      -1.818   0.501  24.894  0.00  0.00    +0.229 C 
ATOM     12  C   UNL     1      -1.342   0.226  25.509  0.00  0.00    +0.188 C 
ATOM     13  O   UNL     1      -0.556   0.383  25.314  0.00  0.00    -0.348 OA
ATOM     14  C   UNL     1      -0.546   0.755  24.578  0.00  0.00    +0.168 C 
ATOM     15  C   UNL     1      -0.053   1.082  24.002  0.00  0.00    +0.155 C 
ATOM     16  C   UNL     1      -0.529   1.358  23.387  0.00  0.00    +0.166 C 
ATOM     17  O   UNL     1      -1.315   1.201  23.582  0.00  0.00    -0.348 OA
ATOM     18  C   UNL     1      -1.326   0.828  24.318  0.00  0.00    +0.186 C 
ENDROOT
BRANCH  15  19
ATOM     19  N   UNL     1       0.769   1.126  24.036  0.00  0.00    -0.200 NA
ATOM     20  C   UNL     1       1.227   0.708  23.492  0.00  0.00    +0.237 A 
ATOM     21  N   UNL     1       2.051   0.752  23.525  0.00  0.00    -0.212 NA
ATOM     22  C   UNL     1       2.509   0.334  22.981  0.00  0.00    +0.086 A 
ATOM     23  C   UNL     1       2.143  -0.127  22.403  0.00  0.00    +0.040 A 
ATOM     24  C   UNL     1       1.321  -0.171  22.369  0.00  0.00    +0.103 A 
ATOM     25  N   UNL     1       0.863   0.247  22.913  0.00  0.00    -0.211 NA
BRANCH  22  26
ATOM     26  C   UNL     1       3.332   0.378  23.015  0.00  0.00    +0.021 A 
ATOM     27  C   UNL     1       3.760  -0.204  23.411  0.00  0.00    +0.042 A 
ATOM     28  C   UNL     1       4.583  -0.161  23.445  0.00  0.00    +0.176 A 
ATOM     29  C   UNL     1       4.978   0.467  23.083  0.00  0.00    +0.176 A 
ATOM     30  O   UNL     1       5.787   0.365  23.207  0.00  0.00    -0.435 OA
ATOM     31  C   UNL     1       5.892  -0.326  23.645  0.00  0.00    +0.429 C 
ATOM     32  O   UNL     1       5.148  -0.650  23.792  0.00  0.00    -0.435 OA
ATOM     33  C   UNL     1       4.549   1.050  22.686  0.00  0.00    +0.040 A 
ATOM     34  C   UNL     1       3.727   1.006  22.653  0.00  0.00    +0.005 A 
ENDBRANCH  22  26
ENDBRANCH  15  19
BRANCH  11  10
ATOM     10  O   UNL     1      -2.640   0.457  24.860  0.00  0.00    -0.432 OA
BRANCH  10   2
ATOM      1  O   UNL     1      -3.284  -0.597  25.577  0.00  0.00    -0.225 OA
ATOM      2  C   UNL     1      -3.015  -0.278  24.866  0.00  0.00    +0.421 C 
ATOM      3  N   UNL     1      -3.119  -0.694  24.161  0.00  0.00    -0.170 NA
BRANCH   3   4
ATOM      4  C   UNL     1      -3.493  -1.429  24.168  0.00  0.00    +0.099 C 
ATOM      5  C   UNL     1      -3.094  -2.093  24.450  0.00  0.00    +0.022 C 
ATOM      6  C   UNL     1      -3.468  -2.828  24.456  0.00  0.00    +0.002 C 
ATOM      7  C   UNL     1      -4.242  -2.900  24.181  0.00  0.00    +0.000 C 
ATOM      8  C   UNL     1      -4.643  -2.235  23.898  0.00  0.00    +0.002 C 
ATOM      9  C   UNL     1      -4.268  -1.500  23.892  0.00  0.00    +0.022 C 
ENDBRANCH   3   4
ENDBRANCH  10   2
ENDBRANCH  11  10
TORSDOF 5
ENDMDL
MODEL 4
REMARK VINA RESULT:      -8.3      2.296      7.396
REMARK  Name = 
REMARK  5 active torsions:
REMARK  status: ('A' for Active; 'I' for Inactive)
REMARK    1  A    between atoms: C_2  and  O_10
REMARK    2  A    between atoms: N_3  and  C_4
REMARK    3  A    between atoms: O_10  and  C_11
REMARK    4  A    between atoms: C_15  and  N_19
REMARK    5  A    between atoms: C_22  and  C_26
REMARK                            x       y       z     vdW  Elec       q    Type
REMARK                         _______ _______ _______ _____ _____    ______ ____
ROOT
ATOM     11  C   UNL     1       2.387   0.828  23.000  0.00  0.00    +0.229 C 
ATOM     12  C   UNL     1       2.222   0.188  22.506  0.00  0.00    +0.188 C 
ATOM     13  O   UNL     1       1.420   0.009  22.579  0.00  0.00    -0.348 OA
ATOM     14  C   UNL     1       1.089   0.539  23.118  0.00  0.00    +0.168 C 
ATOM     15  C   UNL     1       0.388   0.755  23.496  0.00  0.00    +0.155 C 
ATOM     16  C   UNL     1       0.553   1.395  23.990  0.00  0.00    +0.166 C 
ATOM     17  O   UNL     1       1.355   1.574  23.917  0.00  0.00    -0.348 OA
ATOM     18  C   UNL     1       1.686   1.045  23.378  0.00  0.00    +0.186 C 
ENDROOT
BRANCH  15  19
ATOM     19  N   UNL     1      -0.347   0.395  23.397  0.00  0.00    -0.200 NA
ATOM     20  C   UNL     1      -0.786   0.166  24.057  0.00  0.00    +0.237 A 
ATOM     21  N   UNL     1      -1.522  -0.194  23.959  0.00  0.00    -0.212 NA
ATOM     22  C   UNL     1      -1.961  -0.424  24.619  0.00  0.00    +0.086 A 
ATOM     23  C   UNL     1      -1.663  -0.292  25.377  0.00  0.00    +0.040 A 
ATOM     24  C   UNL     1      -0.928   0.068  25.476  0.00  0.00    +0.103 A 
ATOM     25  N   UNL     1      -0.489   0.297  24.816  0.00  0.00    -0.211 NA
BRANCH  22  26
ATOM     26  C   UNL     1      -2.696  -0.784  24.520  0.00  0.00    +0.021 A 
ATOM     27  C   UNL     1      -2.741  -1.587  24.341  0.00  0.00    +0.042 A 
ATOM     28  C   UNL     1      -3.477  -1.948  24.242  0.00  0.00    +0.176 A 
ATOM     29  C   UNL     1      -4.167  -1.504  24.323  0.00  0.00    +0.176 A 
ATOM     30  O   UNL     1      -4.809  -2.005  24.196  0.00  0.00    -0.435 OA
ATOM     31  C   UNL     1      -4.516  -2.759  24.035  0.00  0.00    +0.429 C 
ATOM     32  O   UNL     1      -3.692  -2.723  24.064  0.00  0.00    -0.435 OA
ATOM     33  C   UNL     1      -4.122  -0.699  24.503  0.00  0.00    +0.040 A 
ATOM     34  C   UNL     1      -3.386  -0.340  24.602  0.00  0.00    +0.005 A 
ENDBRANCH  22  26
ENDBRANCH  15  19
BRANCH  11  10
ATOM     10  O   UNL     1       3.122   1.188  23.098  0.00  0.00    -0.432 OA
BRANCH  10   2
ATOM      1  O   UNL     1       4.047   0.377  22.373  0.00  0.00    -0.225 OA
ATOM      2  C   UNL     1       3.810   0.733  23.077  0.00  0.00    +0.421 C 
ATOM      3  N   UNL     1       4.260   0.635  23.762  0.00  0.00    -0.170 NA
BRANCH   3   4
ATOM      4  C   UNL     1       4.948   0.180  23.741  0.00  0.00    +0.099 C 
ATOM      5  C   UNL     1       5.633   0.484  23.397  0.00  0.00    +0.022 C 
ATOM      6  C   UNL     1       6.321   0.029  23.376  0.00  0.00    +0.002 C 
ATOM      7  C   UNL     1       6.325  -0.730  23.699  0.00  0.00    +0.000 C 
ATOM      8  C   UNL     1       5.639  -1.034  24.044  0.00  0.00    +0.002 C 
ATOM      9  C   UNL     1       4.951  -0.579  24.065  0.00  0.00    +0.022 C 
ENDBRANCH   3   4
ENDBRANCH  10   2
ENDBRANCH  11  10
TORSDOF 5
ENDMDL
MODEL 5
REMARK VINA RESULT:      -6.8     15.399     17.050
REMARK  Name = 
REMARK  5 active torsions:
REMARK  status: ('A' for Active; 'I' for Inactive)
REMARK    1  A    between atoms: C_2  and  O_10
REMARK    2  A    between atoms: N_3  and  C_4
REMARK    3  A    between atoms: O_10  and  C_11
REMARK    4  A    between atoms: C_15  and  N_19
REMARK    5  A    between atoms: C_22  and  C_26
REMARK                            x       y       z     vdW  Elec       q    Type
REMARK                         _______ _______ _______ _____ _____    ______ ____
ROOT
ATOM     11  C   UNL     1      -5.650 -10.049  15.305  0.00  0.00    +0.229 C 
ATOM     12  C   UNL     1      -6.434  -9.791  15.328  0.00  0.00    +0.188 C 
ATOM     13  O   UNL     1      -6.716  -9.764  14.553  0.00  0.00    -0.348 OA
ATOM     14  C   UNL     1      -6.106 -10.004  14.052  0.00  0.00    +0.168 C 
ATOM     15  C   UNL     1      -5.905 -10.135  13.262  0.00  0.00    +0.155 C 
ATOM     16  C   UNL     1      -5.121 -10.393  13.239  0.00  0.00    +0.166 C 
ATOM     17  O   UNL     1      -4.839 -10.421  14.014  0.00  0.00    -0.348 OA
ATOM     18  C   UNL     1      -5.448 -10.181  14.516  0.00  0.00    +0.186 C 
ENDROOT
BRANCH  15  19
ATOM     19  N   UNL     1      -6.399 -10.028  12.611  0.00  0.00    -0.200 NA
ATOM     20  C   UNL     1      -6.121  -9.630  11.943  0.00  0.00    +0.237 A 
ATOM     21  N   UNL     1      -6.616  -9.523  11.291  0.00  0.00    -0.212 NA
ATOM     22  C   UNL     1      -6.338  -9.125  10.624  0.00  0.00    +0.086 A 
ATOM     23  C   UNL     1      -5.566  -8.836  10.608  0.00  0.00    +0.040 A 
ATOM     24  C   UNL     1      -5.072  -8.943  11.259  0.00  0.00    +0.103 A 
ATOM     25  N   UNL     1      -5.349  -9.340  11.927  0.00  0.00    -0.211 NA
BRANCH  22  26
ATOM     26  C   UNL     1      -6.833  -9.018   9.973  0.00  0.00    +0.021 A 
ATOM     27  C   UNL     1      -7.481  -8.511  10.026  0.00  0.00    +0.042 A 
ATOM     28  C   UNL     1      -7.976  -8.403   9.375  0.00  0.00    +0.176 A 
ATOM     29  C   UNL     1      -7.822  -8.803   8.670  0.00  0.00    +0.176 A 
ATOM     30  O   UNL     1      -8.401  -8.589   8.124  0.00  0.00    -0.435 OA
ATOM     31  C   UNL     1      -8.914  -8.057   8.491  0.00  0.00    +0.429 C 
ATOM     32  O   UNL     1      -8.650  -7.942   9.263  0.00  0.00    -0.435 OA
ATOM     33  C   UNL     1      -7.173  -9.311   8.616  0.00  0.00    +0.040 A 
ATOM     34  C   UNL     1      -6.679  -9.418   9.268  0.00  0.00    +0.005 A 
ENDBRANCH  22  26
ENDBRANCH  15  19
BRANCH  11  10
ATOM     10  O   UNL     1      -5.156 -10.157  15.956  0.00  0.00    -0.432 OA
BRANCH  10   2
ATOM      1  O   UNL     1      -5.653  -9.334  17.013  0.00  0.00    -0.225 OA
ATOM      2  C   UNL     1      -5.458 -10.080  16.720  0.00  0.00    +0.421 C 
ATOM      3  N   UNL     1      -5.564 -10.749  17.191  0.00  0.00    -0.170 NA
BRANCH   3   4
ATOM      4  C   UNL     1      -5.865 -10.672  17.955  0.00  0.00    +0.099 C 
ATOM      5  C   UNL     1      -6.671 -10.781  18.093  0.00  0.00    +0.022 C 
ATOM      6  C   UNL     1      -6.973 -10.704  18.857  0.00  0.00    +0.002 C 
ATOM      7  C   UNL     1      -6.469 -10.518  19.483  0.00  0.00    +0.000 C 
ATOM      8  C   UNL     1      -5.663 -10.409  19.345  0.00  0.00    +0.002 C 
ATOM      9  C   UNL     1      -5.361 -10.486  18.581  0.00  0.00    +0.022 C 
ENDBRANCH   3   4
ENDBRANCH  10   2
ENDBRANCH  11  10
TORSDOF 5
ENDMDL
MODEL 6
REMARK VINA RESULT:      -6.8     14.857     15.639
REMARK  Name = 
REMARK  5 active torsions:
REMARK  status: ('A' for Active; 'I' for Inactive)
REMARK    1  A    between atoms: C_2  and  O_10
REMARK    2  A    between atoms: N_3  and  C_4
REMARK    3  A    between atoms: O_10  and  C_11
REMARK    4  A    between atoms: C_15  and  N_19
REMARK    5  A    between atoms: C_22  and  C_26
REMARK                            x       y       z     vdW  Elec       q    Type
REMARK                         _______ _______ _______ _____ _____    ______ ____
ROOT
ATOM     11  C   UNL     1      -7.326  -9.988  16.005  0.00  0.00    +0.229 C 
ATOM     12  C   UNL     1      -6.722  -9.574  16.385  0.00  0.00    +0.188 C 
ATOM     13  O   UNL     1      -6.046  -9.619  15.915  0.00  0.00    -0.348 OA
ATOM     14  C   UNL     1      -6.232 -10.062  15.245  0.00  0.00    +0.168 C 
ATOM     15  C   UNL     1      -5.928 -10.364  14.539  0.00  0.00    +0.155 C 
ATOM     16  C   UNL     1      -6.531 -10.779  14.159  0.00  0.00    +0.166 C 
ATOM     17  O   UNL     1      -7.208 -10.734  14.630  0.00  0.00    -0.348 OA
ATOM     18  C   UNL     1      -7.023 -10.291  15.300  0.00  0.00    +0.186 C 
ENDROOT
BRANCH  15  19
ATOM     19  N   UNL     1      -5.157 -10.268  14.263  0.00  0.00    -0.200 NA
ATOM     20  C   UNL     1      -4.992 -10.362  13.460  0.00  0.00    +0.237 A 
ATOM     21  N   UNL     1      -4.220 -10.266  13.183  0.00  0.00    -0.212 NA
ATOM     22  C   UNL     1      -4.055 -10.360  12.380  0.00  0.00    +0.086 A 
ATOM     23  C   UNL     1      -4.661 -10.550  11.855  0.00  0.00    +0.040 A 
ATOM     24  C   UNL     1      -5.432 -10.646  12.131  0.00  0.00    +0.103 A 
ATOM     25  N   UNL     1      -5.597 -10.552  12.933  0.00  0.00    -0.211 NA
BRANCH  22  26
ATOM     26  C   UNL     1      -3.284 -10.264  12.104  0.00  0.00    +0.021 A 
ATOM     27  C   UNL     1      -3.112  -9.671  11.558  0.00  0.00    +0.042 A 
ATOM     28  C   UNL     1      -2.341  -9.575  11.282  0.00  0.00    +0.176 A 
ATOM     29  C   UNL     1      -1.741 -10.072  11.552  0.00  0.00    +0.176 A 
ATOM     30  O   UNL     1      -1.038  -9.848  11.184  0.00  0.00    -0.435 OA
ATOM     31  C   UNL     1      -1.203  -9.211  10.686  0.00  0.00    +0.429 C 
ATOM     32  O   UNL     1      -2.008  -9.043  10.747  0.00  0.00    -0.435 OA
ATOM     33  C   UNL     1      -1.912 -10.667  12.099  0.00  0.00    +0.040 A 
ATOM     34  C   UNL     1      -2.684 -10.762  12.375  0.00  0.00    +0.005 A 
ENDBRANCH  22  26
ENDBRANCH  15  19
BRANCH  11  10
ATOM     10  O   UNL     1      -8.097 -10.084  16.282  0.00  0.00    -0.432 OA
BRANCH  10   2
ATOM      1  O   UNL     1      -8.191  -8.845  16.985  0.00  0.00    -0.225 OA
ATOM      2  C   UNL     1      -8.537  -9.426  16.513  0.00  0.00    +0.421 C 
ATOM      3  N   UNL     1      -9.322  -9.350  16.273  0.00  0.00    -0.170 NA
BRANCH   3   4
ATOM      4  C   UNL     1      -9.762  -8.692  16.504  0.00  0.00    +0.099 C 
ATOM      5  C   UNL     1      -9.786  -8.021  16.025  0.00  0.00    +0.022 C 
ATOM      6  C   UNL     1     -10.226  -7.363  16.256  0.00  0.00    +0.002 C 
ATOM      7  C   UNL     1     -10.643  -7.374  16.968  0.00  0.00    +0.000 C 
ATOM      8  C   UNL     1     -10.619  -8.045  17.449  0.00  0.00    +0.002 C 
ATOM      9  C   UNL     1     -10.179  -8.704  17.217  0.00  0.00    +0.022 C 
ENDBRANCH   3   4
ENDBRANCH  10   2
ENDBRANCH  11  10
TORSDOF 5
ENDMDL
MODEL 7
REMARK VINA RESULT:      -6.7     16.868     19.092
REMARK  Name = 
REMARK  5 active torsions:
REMARK  status: ('A' for Active; 'I' for Inactive)
REMARK    1  A    between atoms: C_2  and  O_10
REMARK    2  A    between atoms: N_3  and  C_4
REMARK    3  A    between atoms: O_10  and  C_11
REMARK    4  A    between atoms: C_15  and  N_19
REMARK    5  A    between atoms: C_22  and  C_26
REMARK                            x       y       z     vdW  Elec       q    Type
REMARK                         _______ _______ _______ _____ _____    ______ ____
ROOT
ATOM     11  C   UNL     1      -4.873  -9.986  11.330  0.00  0.00    +0.229 C 
ATOM     12  C   UNL     1      -5.081  -9.385  11.855  0.00  0.00    +0.188 C 
ATOM     13  O   UNL     1      -5.778  -9.037  11.584  0.00  0.00    -0.348 OA
ATOM     14  C   UNL     1      -6.001  -9.424  10.890  0.00  0.00    +0.168 C 
ATOM     15  C   UNL     1      -6.571  -9.447  10.293  0.00  0.00    +0.155 C 
ATOM     16  C   UNL     1      -6.364 -10.048   9.768  0.00  0.00    +0.166 C 
ATOM     17  O   UNL     1      -5.667 -10.396  10.039  0.00  0.00    -0.348 OA
ATOM     18  C   UNL     1      -5.443 -10.010  10.733  0.00  0.00    +0.186 C 
ENDROOT
BRANCH  15  19
ATOM     19  N   UNL     1      -7.231  -8.956  10.233  0.00  0.00    -0.200 NA
ATOM     20  C   UNL     1      -7.381  -8.551   9.530  0.00  0.00    +0.237 A 
ATOM     21  N   UNL     1      -8.042  -8.060   9.470  0.00  0.00    -0.212 NA
ATOM     22  C   UNL     1      -8.192  -7.655   8.767  0.00  0.00    +0.086 A 
ATOM     23  C   UNL     1      -7.682  -7.742   8.124  0.00  0.00    +0.040 A 
ATOM     24  C   UNL     1      -7.022  -8.233   8.184  0.00  0.00    +0.103 A 
ATOM     25  N   UNL     1      -6.872  -8.637   8.887  0.00  0.00    -0.211 NA
BRANCH  22  26
ATOM     26  C   UNL     1      -8.852  -7.164   8.707  0.00  0.00    +0.021 A 
ATOM     27  C   UNL     1      -8.754  -6.348   8.637  0.00  0.00    +0.042 A 
ATOM     28  C   UNL     1      -9.414  -5.857   8.577  0.00  0.00    +0.176 A 
ATOM     29  C   UNL     1     -10.172  -6.182   8.587  0.00  0.00    +0.176 A 
ATOM     30  O   UNL     1     -10.715  -5.565   8.519  0.00  0.00    -0.435 OA
ATOM     31  C   UNL     1     -10.293  -4.859   8.467  0.00  0.00    +0.429 C 
ATOM     32  O   UNL     1      -9.489  -5.039   8.503  0.00  0.00    -0.435 OA
ATOM     33  C   UNL     1     -10.270  -6.999   8.658  0.00  0.00    +0.040 A 
ATOM     34  C   UNL     1      -9.610  -7.489   8.717  0.00  0.00    +0.005 A 
ENDBRANCH  22  26
ENDBRANCH  15  19
BRANCH  11  10
ATOM     10  O   UNL     1      -4.214 -10.477  11.390  0.00  0.00    -0.432 OA
BRANCH  10   2
ATOM      1  O   UNL     1      -3.338  -9.860  12.334  0.00  0.00    -0.225 OA
ATOM      2  C   UNL     1      -3.477 -10.157  11.577  0.00  0.00    +0.421 C 
ATOM      3  N   UNL     1      -2.881 -10.133  11.008  0.00  0.00    -0.170 NA
BRANCH   3   4
ATOM      4  C   UNL     1      -2.144  -9.813  11.195  0.00  0.00    +0.099 C 
ATOM      5  C   UNL     1      -1.738 -10.075  11.864  0.00  0.00    +0.022 C 
ATOM      6  C   UNL     1      -1.001  -9.755  12.052  0.00  0.00    +0.002 C 
ATOM      7  C   UNL     1      -0.670  -9.172  11.571  0.00  0.00    +0.000 C 
ATOM      8  C   UNL     1      -1.076  -8.909  10.902  0.00  0.00    +0.002 C 
ATOM      9  C   UNL     1      -1.813  -9.230  10.714  0.00  0.00    +0.022 C 
ENDBRANCH   3   4
ENDBRANCH  10   2
ENDBRANCH  11  10
TORSDOF 5
ENDMDL
MODEL 8
REMARK VINA RESULT:      -6.1     14.911     17.041
REMARK  Name = 
REMARK  5 active torsions:
REMARK  status: ('A' for Active; 'I' for Inactive)
REMARK    1  A    between atoms: C_2  and  O_10
REMARK    2  A    between atoms: N_3  and  C_4
REMARK    3  A    between atoms: O_10  and  C_11
REMARK    4  A    between atoms: C_15  and  N_19
REMARK    5  A    between atoms: C_22  and  C_26
REMARK                            x       y       z     vdW  Elec       q    Type
REMARK                         _______ _______ _______ _____ _____    ______ ____
ROOT
ATOM     11  C   UNL     1      -5.760 -10.445  13.066  0.00  0.00    +0.229 C 
ATOM     12  C   UNL     1      -6.544 -10.646  12.902  0.00  0.00    +0.188 C 
ATOM     13  O   UNL     1      -6.934 -10.760  13.620  0.00  0.00    -0.348 OA
ATOM     14  C   UNL     1      -6.391 -10.629  14.227  0.00  0.00    +0.168 C 
ATOM     15  C   UNL     1      -6.298 -10.619  15.048  0.00  0.00    +0.155 C 
ATOM     16  C   UNL     1      -5.514 -10.418  15.211  0.00  0.00    +0.166 C 
ATOM     17  O   UNL     1      -5.125 -10.304  14.493  0.00  0.00    -0.348 OA
ATOM     18  C   UNL     1      -5.666 -10.434  13.886  0.00  0.00    +0.186 C 
ENDROOT
BRANCH  15  19
ATOM     19  N   UNL     1      -6.883 -10.781  15.605  0.00  0.00    -0.200 NA
ATOM     20  C   UNL     1      -6.969 -10.296  16.267  0.00  0.00    +0.237 A 
ATOM     21  N   UNL     1      -7.555 -10.459  16.825  0.00  0.00    -0.212 NA
ATOM     22  C   UNL     1      -7.640  -9.974  17.487  0.00  0.00    +0.086 A 
ATOM     23  C   UNL     1      -7.139  -9.327  17.591  0.00  0.00    +0.040 A 
ATOM     24  C   UNL     1      -6.553  -9.164  17.034  0.00  0.00    +0.103 A 
ATOM     25  N   UNL     1      -6.468  -9.649  16.372  0.00  0.00    -0.211 NA
BRANCH  22  26
ATOM     26  C   UNL     1      -8.226 -10.136  18.043  0.00  0.00    +0.021 A 
ATOM     27  C   UNL     1      -9.009  -9.927  17.892  0.00  0.00    +0.042 A 
ATOM     28  C   UNL     1      -9.596 -10.090  18.449  0.00  0.00    +0.176 A 
ATOM     29  C   UNL     1      -9.398 -10.461  19.158  0.00  0.00    +0.176 A 
ATOM     30  O   UNL     1     -10.089 -10.550  19.600  0.00  0.00    -0.435 OA
ATOM     31  C   UNL     1     -10.713 -10.234  19.164  0.00  0.00    +0.429 C 
ATOM     32  O   UNL     1     -10.408  -9.950  18.453  0.00  0.00    -0.435 OA
ATOM     33  C   UNL     1      -8.614 -10.670  19.311  0.00  0.00    +0.040 A 
ATOM     34  C   UNL     1      -8.029 -10.508  18.753  0.00  0.00    +0.005 A 
ENDBRANCH  22  26
ENDBRANCH  15  19
BRANCH  11  10
ATOM     10  O   UNL     1      -5.175 -10.283  12.509  0.00  0.00    -0.432 OA
BRANCH  10   2
ATOM      1  O   UNL     1      -6.019 -10.278  11.357  0.00  0.00    -0.225 OA
ATOM      2  C   UNL     1      -5.380  -9.967  11.775  0.00  0.00    +0.421 C 
ATOM      3  N   UNL     1      -4.945  -9.340  11.460  0.00  0.00    -0.170 NA
BRANCH   3   4
ATOM      4  C   UNL     1      -5.150  -9.024  10.726  0.00  0.00    +0.099 C 
ATOM      5  C   UNL     1      -5.788  -8.505  10.663  0.00  0.00    +0.022 C 
ATOM      6  C   UNL     1      -5.993  -8.190   9.929  0.00  0.00    +0.002 C 
ATOM      7  C   UNL     1      -5.561  -8.393   9.257  0.00  0.00    +0.000 C 
ATOM      8  C   UNL     1      -4.922  -8.912   9.319  0.00  0.00    +0.002 C 
ATOM      9  C   UNL     1      -4.717  -9.228  10.053  0.00  0.00    +0.022 C 
ENDBRANCH   3   4
ENDBRANCH  10   2
ENDBRANCH  11  10
TORSDOF 5
ENDMDL
