REMARK  Name = 
REMARK  7 active torsions:
REMARK  status: ('A' for Active; 'I' for Inactive)
REMARK    1  A    between atoms: O_2  and  C_3
REMARK    2  A    between atoms: C_6  and  C_7
REMARK    3  A    between atoms: C_7  and  N_8
REMARK    4  A    between atoms: N_8  and  C_9
REMARK    5  A    between atoms: C_9  and  C_10
REMARK    6  A    between atoms: C_10  and  C_11
REMARK    7  A    between atoms: C_14  and  C_16
REMARK                            x       y       z     vdW  Elec       q    Type
REMARK                         _______ _______ _______ _____ _____    ______ ____
ROOT
ATOM      9  C   UNL     1      -0.412   4.296   0.000  0.00  0.00    +0.120 C 
ATOM     20  C   UNL     1       0.171   3.712   0.000  0.00  0.00    +0.161 C 
ATOM     21  O   UNL     1      -0.412   3.129   0.000  0.00  0.00    -0.351 OA
ATOM     22  C   UNL     1      -0.996   3.712   0.000  0.00  0.00    +0.161 C 
ENDROOT
BRANCH   9   8
ATOM      8  N   UNL     1       0.171   4.879   0.000  0.00  0.00    -0.211 NA
BRANCH   8   7
ATOM      7  C   UNL     1      -0.043   5.676   0.000  0.00  0.00    +0.115 C 
BRANCH   7   6
ATOM      3  C   UNL     1       1.707   7.426   0.000  0.00  0.00    +0.139 A 
ATOM      4  C   UNL     1       1.921   6.629   0.000  0.00  0.00    +0.037 A 
ATOM      5  C   UNL     1       1.338   6.046   0.000  0.00  0.00    +0.000 A 
ATOM      6  C   UNL     1       0.541   6.260   0.000  0.00  0.00    -0.005 A 
ATOM     23  C   UNL     1       0.327   7.056   0.000  0.00  0.00    +0.000 A 
ATOM     24  C   UNL     1       0.910   7.640   0.000  0.00  0.00    +0.037 A 
BRANCH   3   2
ATOM      1  C   UNL     1       2.077   8.806   0.000  0.00  0.00    +0.252 C 
ATOM      2  O   UNL     1       2.291   8.010   0.000  0.00  0.00    -0.471 OA
ENDBRANCH   3   2
ENDBRANCH   7   6
ENDBRANCH   8   7
ENDBRANCH   9   8
BRANCH   9  10
ATOM     10  C   UNL     1      -0.996   4.879   0.000  0.00  0.00    +0.070 C 
BRANCH  10  11
ATOM     11  C   UNL     1      -1.793   4.666   0.000  0.00  0.00    +0.102 A 
ATOM     12  N   UNL     1      -2.088   3.896   0.000  0.00  0.00    -0.082 NA
ATOM     13  O   UNL     1      -2.912   3.939   0.000  0.00  0.00    -0.358 OA
ATOM     14  C   UNL     1      -3.126   4.736   0.000  0.00  0.00    +0.153 A 
ATOM     15  C   UNL     1      -2.434   5.185   0.000  0.00  0.00    +0.054 A 
BRANCH  14  16
ATOM     16  C   UNL     1      -3.896   5.031   0.000  0.00  0.00    +0.054 C 
ATOM     17  C   UNL     1      -4.666   5.327   0.000  0.00  0.00    +0.008 C 
ATOM     18  C   UNL     1      -3.600   5.801   0.000  0.00  0.00    +0.008 C 
ATOM     19  C   UNL     1      -4.192   4.261   0.000  0.00  0.00    +0.008 C 
ENDBRANCH  14  16
ENDBRANCH  10  11
ENDBRANCH   9  10
TORSDOF 7
