MODEL 1
REMARK VINA RESULT:     -11.5      0.000      0.000
REMARK  Name = 
REMARK  8 active torsions:
REMARK  status: ('A' for Active; 'I' for Inactive)
REMARK    1  A    between atoms: C_5  and  C_6
REMARK    2  A    between atoms: C_6  and  C_7
REMARK    3  A    between atoms: C_10  and  C_11
REMARK    4  A    between atoms: C_11  and  N_12
REMARK    5  A    between atoms: C_20  and  C_21
REMARK    6  A    between atoms: C_21  and  N_22
REMARK    7  A    between atoms: N_22  and  C_23
REMARK    8  A    between atoms: C_23  and  C_24
REMARK                            x       y       z     vdW  Elec       q    Type
REMARK                         _______ _______ _______ _____ _____    ______ ____
ROOT
ATOM      1  O   UNL     1      -6.188   1.887  25.804  0.00  0.00    -0.220 OA
ATOM      2  C   UNL     1      -5.560   2.343  25.526  0.00  0.00    +0.180 C 
ATOM      3  C   UNL     1      -5.480   3.127  25.771  0.00  0.00    +0.038 C 
ATOM      4  C   UNL     1      -4.851   3.584  25.493  0.00  0.00    +0.033 C 
ATOM      5  C   UNL     1      -4.304   3.257  24.970  0.00  0.00    +0.121 C 
ATOM     19  O   UNL     1      -4.384   2.473  24.725  0.00  0.00    -0.354 OA
ATOM     20  C   UNL     1      -5.012   2.017  25.003  0.00  0.00    +0.163 C 
ENDROOT
BRANCH   5   6
ATOM      6  C   UNL     1      -3.675   3.714  24.691  0.00  0.00    +0.079 C 
BRANCH   6   7
ATOM      7  C   UNL     1      -2.904   3.544  24.930  0.00  0.00    +0.103 A 
ATOM      8  N   UNL     1      -2.593   3.658  25.686  0.00  0.00    -0.082 NA
ATOM      9  O   UNL     1      -1.806   3.414  25.677  0.00  0.00    -0.357 OA
ATOM     10  C   UNL     1      -1.629   3.150  24.916  0.00  0.00    +0.170 A 
ATOM     18  C   UNL     1      -2.307   3.231  24.454  0.00  0.00    +0.055 A 
BRANCH  10  11
ATOM     11  C   UNL     1      -0.900   2.857  24.661  0.00  0.00    +0.140 C 
BRANCH  11  12
ATOM     12  N   UNL     1      -0.780   2.044  24.604  0.00  0.00    -0.266 NA
ATOM     13  C   UNL     1      -0.846   1.667  23.872  0.00  0.00    +0.072 C 
ATOM     14  C   UNL     1      -0.726   0.853  23.816  0.00  0.00    +0.017 C 
ATOM     15  C   UNL     1      -0.539   0.415  24.490  0.00  0.00    +0.003 C 
ATOM     16  C   UNL     1      -0.473   0.792  25.220  0.00  0.00    +0.017 C 
ATOM     17  C   UNL     1      -0.593   1.606  25.278  0.00  0.00    +0.072 C 
ENDBRANCH  11  12
ENDBRANCH  10  11
ENDBRANCH   6   7
ENDBRANCH   5   6
BRANCH  20  21
ATOM     21  C   UNL     1      -5.092   1.233  24.758  0.00  0.00    +0.121 C 
BRANCH  21  22
ATOM     22  N   UNL     1      -4.502   0.683  24.934  0.00  0.00    -0.211 NA
BRANCH  22  23
ATOM     23  C   UNL     1      -4.422   0.002  24.475  0.00  0.00    +0.118 C 
BRANCH  23  24
ATOM     24  C   UNL     1      -4.046  -0.662  24.785  0.00  0.00    +0.034 A 
ATOM     25  C   UNL     1      -3.929  -1.328  24.313  0.00  0.00    +0.193 A 
ATOM     26  O   UNL     1      -4.190  -1.330  23.530  0.00  0.00    -0.287 OA
ATOM     27  C   UNL     1      -3.552  -1.994  24.623  0.00  0.00    +0.042 A 
ATOM     28  C   UNL     1      -3.292  -1.992  25.406  0.00  0.00    +0.003 A 
ATOM     29  C   UNL     1      -3.408  -1.326  25.878  0.00  0.00    -0.000 A 
ATOM     30  C   UNL     1      -3.785  -0.661  25.568  0.00  0.00    +0.000 A 
ENDBRANCH  23  24
ENDBRANCH  22  23
ENDBRANCH  21  22
ENDBRANCH  20  21
TORSDOF 8
ENDMDL
MODEL 2
REMARK VINA RESULT:     -11.4      1.310      3.859
REMARK  Name = 
REMARK  8 active torsions:
REMARK  status: ('A' for Active; 'I' for Inactive)
REMARK    1  A    between atoms: C_5  and  C_6
REMARK    2  A    between atoms: C_6  and  C_7
REMARK    3  A    between atoms: C_10  and  C_11
REMARK    4  A    between atoms: C_11  and  N_12
REMARK    5  A    between atoms: C_20  and  C_21
REMARK    6  A    between atoms: C_21  and  N_22
REMARK    7  A    between atoms: N_22  and  C_23
REMARK    8  A    between atoms: C_23  and  C_24
REMARK                            x       y       z     vdW  Elec       q    Type
REMARK                         _______ _______ _______ _____ _____    ______ ____
ROOT
ATOM      1  O   UNL     1      -1.814   4.988  25.020  0.00  0.00    -0.220 OA
ATOM      2  C   UNL     1      -1.495   4.260  25.237  0.00  0.00    +0.180 C 
ATOM      3  C   UNL     1      -0.697   4.101  25.097  0.00  0.00    +0.038 C 
ATOM      4  C   UNL     1      -0.377   3.372  25.315  0.00  0.00    +0.033 C 
ATOM      5  C   UNL     1      -0.855   2.802  25.672  0.00  0.00    +0.121 C 
ATOM     19  O   UNL     1      -1.652   2.961  25.812  0.00  0.00    -0.354 OA
ATOM     20  C   UNL     1      -1.972   3.689  25.595  0.00  0.00    +0.163 C 
ENDROOT
BRANCH   5   6
ATOM      6  C   UNL     1      -0.534   2.073  25.890  0.00  0.00    +0.079 C 
BRANCH   6   7
ATOM      7  C   UNL     1      -0.733   1.393  25.467  0.00  0.00    +0.103 A 
ATOM      8  N   UNL     1      -0.723   1.311  24.646  0.00  0.00    -0.082 NA
ATOM      9  O   UNL     1      -0.960   0.543  24.463  0.00  0.00    -0.357 OA
ATOM     10  C   UNL     1      -1.117   0.150  25.171  0.00  0.00    +0.170 A 
ATOM     18  C   UNL     1      -0.976   0.674  25.791  0.00  0.00    +0.055 A 
BRANCH  10  11
ATOM     11  C   UNL     1      -1.370  -0.633  25.246  0.00  0.00    +0.140 C 
BRANCH  11  12
ATOM     12  N   UNL     1      -2.169  -0.817  25.168  0.00  0.00    -0.266 NA
ATOM     13  C   UNL     1      -2.482  -0.989  24.423  0.00  0.00    +0.072 C 
ATOM     14  C   UNL     1      -3.282  -1.174  24.346  0.00  0.00    +0.017 C 
ATOM     15  C   UNL     1      -3.770  -1.186  25.011  0.00  0.00    +0.003 C 
ATOM     16  C   UNL     1      -3.457  -1.014  25.754  0.00  0.00    +0.017 C 
ATOM     17  C   UNL     1      -2.657  -0.830  25.833  0.00  0.00    +0.072 C 
ENDBRANCH  11  12
ENDBRANCH  10  11
ENDBRANCH   6   7
ENDBRANCH   5   6
BRANCH  20  21
ATOM     21  C   UNL     1      -2.769   3.848  25.735  0.00  0.00    +0.121 C 
BRANCH  21  22
ATOM     22  N   UNL     1      -3.349   3.342  25.437  0.00  0.00    -0.211 NA
BRANCH  22  23
ATOM     23  C   UNL     1      -4.134   3.428  25.676  0.00  0.00    +0.118 C 
BRANCH  23  24
ATOM     24  C   UNL     1      -4.708   2.901  25.406  0.00  0.00    +0.034 A 
ATOM     25  C   UNL     1      -5.393   2.776  25.847  0.00  0.00    +0.193 A 
ATOM     26  O   UNL     1      -5.505   3.177  26.559  0.00  0.00    -0.287 OA
ATOM     27  C   UNL     1      -5.967   2.247  25.577  0.00  0.00    +0.042 A 
ATOM     28  C   UNL     1      -5.855   1.846  24.865  0.00  0.00    +0.003 A 
ATOM     29  C   UNL     1      -5.170   1.971  24.424  0.00  0.00    -0.000 A 
ATOM     30  C   UNL     1      -4.596   2.499  24.694  0.00  0.00    +0.000 A 
ENDBRANCH  23  24
ENDBRANCH  22  23
ENDBRANCH  21  22
ENDBRANCH  20  21
TORSDOF 8
ENDMDL
MODEL 3
REMARK VINA RESULT:     -11.1      1.144      3.732
REMARK  Name = 
REMARK  8 active torsions:
REMARK  status: ('A' for Active; 'I' for Inactive)
REMARK    1  A    between atoms: C_5  and  C_6
REMARK    2  A    between atoms: C_6  and  C_7
REMARK    3  A    between atoms: C_10  and  C_11
REMARK    4  A    between atoms: C_11  and  N_12
REMARK    5  A    between atoms: C_20  and  C_21
REMARK    6  A    between atoms: C_21  and  N_22
REMARK    7  A    between atoms: N_22  and  C_23
REMARK    8  A    between atoms: C_23  and  C_24
REMARK                            x       y       z     vdW  Elec       q    Type
REMARK                         _______ _______ _______ _____ _____    ______ ____
ROOT
ATOM      1  O   UNL     1      -4.570  -1.517  24.004  0.00  0.00    -0.220 OA
ATOM      2  C   UNL     1      -3.871  -1.317  24.393  0.00  0.00    +0.180 C 
ATOM      3  C   UNL     1      -3.207  -1.801  24.323  0.00  0.00    +0.038 C 
ATOM      4  C   UNL     1      -2.506  -1.601  24.711  0.00  0.00    +0.033 C 
ATOM      5  C   UNL     1      -2.471  -0.916  25.170  0.00  0.00    +0.121 C 
ATOM     19  O   UNL     1      -3.135  -0.431  25.240  0.00  0.00    -0.354 OA
ATOM     20  C   UNL     1      -3.834  -0.632  24.851  0.00  0.00    +0.163 C 
ENDROOT
BRANCH   5   6
ATOM      6  C   UNL     1      -1.771  -0.715  25.558  0.00  0.00    +0.079 C 
BRANCH   6   7
ATOM      7  C   UNL     1      -1.295  -0.108  25.265  0.00  0.00    +0.103 A 
ATOM      8  N   UNL     1      -1.055  -0.017  24.480  0.00  0.00    -0.082 NA
ATOM      9  O   UNL     1      -0.588   0.661  24.435  0.00  0.00    -0.357 OA
ATOM     10  C   UNL     1      -0.540   0.989  25.191  0.00  0.00    +0.170 A 
ATOM     18  C   UNL     1      -0.976   0.513  25.703  0.00  0.00    +0.055 A 
BRANCH  10  11
ATOM     11  C   UNL     1      -0.126   1.673  25.397  0.00  0.00    +0.140 C 
BRANCH  11  12
ATOM     12  N   UNL     1      -0.465   2.413  25.272  0.00  0.00    -0.266 NA
ATOM     13  C   UNL     1      -0.873   2.788  25.884  0.00  0.00    +0.072 C 
ATOM     14  C   UNL     1      -1.212   3.530  25.759  0.00  0.00    +0.017 C 
ATOM     15  C   UNL     1      -1.144   3.897  25.022  0.00  0.00    +0.003 C 
ATOM     16  C   UNL     1      -0.736   3.521  24.412  0.00  0.00    +0.017 C 
ATOM     17  C   UNL     1      -0.396   2.780  24.536  0.00  0.00    +0.072 C 
ENDBRANCH  11  12
ENDBRANCH  10  11
ENDBRANCH   6   7
ENDBRANCH   5   6
BRANCH  20  21
ATOM     21  C   UNL     1      -4.499  -0.147  24.921  0.00  0.00    +0.121 C 
BRANCH  21  22
ATOM     22  N   UNL     1      -4.414   0.674  24.908  0.00  0.00    -0.211 NA
BRANCH  22  23
ATOM     23  C   UNL     1      -5.045   1.158  25.127  0.00  0.00    +0.118 C 
BRANCH  23  24
ATOM     24  C   UNL     1      -4.976   1.977  25.069  0.00  0.00    +0.034 A 
ATOM     25  C   UNL     1      -5.384   2.464  25.596  0.00  0.00    +0.193 A 
ATOM     26  O   UNL     1      -5.861   2.131  26.181  0.00  0.00    -0.287 OA
ATOM     27  C   UNL     1      -5.315   3.284  25.538  0.00  0.00    +0.042 A 
ATOM     28  C   UNL     1      -4.839   3.617  24.953  0.00  0.00    +0.003 A 
ATOM     29  C   UNL     1      -4.431   3.131  24.426  0.00  0.00    -0.000 A 
ATOM     30  C   UNL     1      -4.500   2.311  24.484  0.00  0.00    +0.000 A 
ENDBRANCH  23  24
ENDBRANCH  22  23
ENDBRANCH  21  22
ENDBRANCH  20  21
TORSDOF 8
ENDMDL
MODEL 4
REMARK VINA RESULT:     -11.0      1.330      3.610
REMARK  Name = 
REMARK  8 active torsions:
REMARK  status: ('A' for Active; 'I' for Inactive)
REMARK    1  A    between atoms: C_5  and  C_6
REMARK    2  A    between atoms: C_6  and  C_7
REMARK    3  A    between atoms: C_10  and  C_11
REMARK    4  A    between atoms: C_11  and  N_12
REMARK    5  A    between atoms: C_20  and  C_21
REMARK    6  A    between atoms: C_21  and  N_22
REMARK    7  A    between atoms: N_22  and  C_23
REMARK    8  A    between atoms: C_23  and  C_24
REMARK                            x       y       z     vdW  Elec       q    Type
REMARK                         _______ _______ _______ _____ _____    ______ ____
ROOT
ATOM      1  O   UNL     1       0.158   1.145  24.561  0.00  0.00    -0.220 OA
ATOM      2  C   UNL     1      -0.324   1.742  24.861  0.00  0.00    +0.180 C 
ATOM      3  C   UNL     1      -0.114   2.533  24.757  0.00  0.00    +0.038 C 
ATOM      4  C   UNL     1      -0.597   3.132  25.057  0.00  0.00    +0.033 C 
ATOM      5  C   UNL     1      -1.290   2.939  25.460  0.00  0.00    +0.121 C 
ATOM     19  O   UNL     1      -1.501   2.148  25.563  0.00  0.00    -0.354 OA
ATOM     20  C   UNL     1      -1.018   1.550  25.264  0.00  0.00    +0.163 C 
ENDROOT
BRANCH   5   6
ATOM      6  C   UNL     1      -1.774   3.537  25.759  0.00  0.00    +0.079 C 
BRANCH   6   7
ATOM      7  C   UNL     1      -2.515   3.675  25.425  0.00  0.00    +0.103 A 
ATOM      8  N   UNL     1      -2.660   3.909  24.646  0.00  0.00    -0.082 NA
ATOM      9  O   UNL     1      -3.476   3.982  24.551  0.00  0.00    -0.357 OA
ATOM     10  C   UNL     1      -3.835   3.794  25.269  0.00  0.00    +0.170 A 
ATOM     18  C   UNL     1      -3.241   3.605  25.809  0.00  0.00    +0.055 A 
BRANCH  10  11
ATOM     11  C   UNL     1      -4.646   3.795  25.421  0.00  0.00    +0.140 C 
BRANCH  11  12
ATOM     12  N   UNL     1      -5.075   3.092  25.379  0.00  0.00    -0.266 NA
ATOM     13  C   UNL     1      -5.212   2.736  24.647  0.00  0.00    +0.072 C 
ATOM     14  C   UNL     1      -5.641   2.033  24.605  0.00  0.00    +0.017 C 
ATOM     15  C   UNL     1      -5.933   1.685  25.295  0.00  0.00    +0.003 C 
ATOM     16  C   UNL     1      -5.795   2.041  26.026  0.00  0.00    +0.017 C 
ATOM     17  C   UNL     1      -5.366   2.744  26.068  0.00  0.00    +0.072 C 
ENDBRANCH  11  12
ENDBRANCH  10  11
ENDBRANCH   6   7
ENDBRANCH   5   6
BRANCH  20  21
ATOM     21  C   UNL     1      -1.229   0.759  25.367  0.00  0.00    +0.121 C 
BRANCH  21  22
ATOM     22  N   UNL     1      -1.938   0.476  25.051  0.00  0.00    -0.211 NA
BRANCH  22  23
ATOM     23  C   UNL     1      -2.302  -0.186  25.383  0.00  0.00    +0.118 C 
BRANCH  23  24
ATOM     24  C   UNL     1      -2.909  -0.568  24.977  0.00  0.00    +0.034 A 
ATOM     25  C   UNL     1      -3.388  -1.113  25.371  0.00  0.00    +0.193 A 
ATOM     26  O   UNL     1      -3.260  -1.275  26.169  0.00  0.00    -0.287 OA
ATOM     27  C   UNL     1      -3.997  -1.496  24.965  0.00  0.00    +0.042 A 
ATOM     28  C   UNL     1      -4.125  -1.334  24.166  0.00  0.00    +0.003 A 
ATOM     29  C   UNL     1      -3.646  -0.789  23.773  0.00  0.00    -0.000 A 
ATOM     30  C   UNL     1      -3.038  -0.407  24.178  0.00  0.00    +0.000 A 
ENDBRANCH  23  24
ENDBRANCH  22  23
ENDBRANCH  21  22
ENDBRANCH  20  21
TORSDOF 8
ENDMDL
MODEL 5
REMARK VINA RESULT:     -10.9      1.367      4.606
REMARK  Name = 
REMARK  8 active torsions:
REMARK  status: ('A' for Active; 'I' for Inactive)
REMARK    1  A    between atoms: C_5  and  C_6
REMARK    2  A    between atoms: C_6  and  C_7
REMARK    3  A    between atoms: C_10  and  C_11
REMARK    4  A    between atoms: C_11  and  N_12
REMARK    5  A    between atoms: C_20  and  C_21
REMARK    6  A    between atoms: C_21  and  N_22
REMARK    7  A    between atoms: N_22  and  C_23
REMARK    8  A    between atoms: C_23  and  C_24
REMARK                            x       y       z     vdW  Elec       q    Type
REMARK                         _______ _______ _______ _____ _____    ______ ____
ROOT
ATOM      1  O   UNL     1      -1.111  -2.140  25.100  0.00  0.00    -0.220 OA
ATOM      2  C   UNL     1      -1.834  -1.812  24.879  0.00  0.00    +0.180 C 
ATOM      3  C   UNL     1      -2.528  -2.251  24.960  0.00  0.00    +0.038 C 
ATOM      4  C   UNL     1      -3.253  -1.922  24.739  0.00  0.00    +0.033 C 
ATOM      5  C   UNL     1      -3.282  -1.155  24.437  0.00  0.00    +0.121 C 
ATOM     19  O   UNL     1      -2.588  -0.716  24.357  0.00  0.00    -0.354 OA
ATOM     20  C   UNL     1      -1.865  -1.044  24.577  0.00  0.00    +0.163 C 
ENDROOT
BRANCH   5   6
ATOM      6  C   UNL     1      -4.006  -0.826  24.216  0.00  0.00    +0.079 C 
BRANCH   6   7
ATOM      7  C   UNL     1      -4.290  -0.155  24.603  0.00  0.00    +0.103 A 
ATOM      8  N   UNL     1      -4.376  -0.065  25.419  0.00  0.00    -0.082 NA
ATOM      9  O   UNL     1      -4.676   0.690  25.561  0.00  0.00    -0.357 OA
ATOM     10  C   UNL     1      -4.775   1.066  24.834  0.00  0.00    +0.170 A 
ATOM     18  C   UNL     1      -4.537   0.545  24.242  0.00  0.00    +0.055 A 
BRANCH  10  11
ATOM     11  C   UNL     1      -5.063   1.831  24.719  0.00  0.00    +0.140 C 
BRANCH  11  12
ATOM     12  N   UNL     1      -4.554   2.477  24.776  0.00  0.00    -0.266 NA
ATOM     13  C   UNL     1      -4.104   2.706  24.123  0.00  0.00    +0.072 C 
ATOM     14  C   UNL     1      -3.594   3.352  24.181  0.00  0.00    +0.017 C 
ATOM     15  C   UNL     1      -3.534   3.769  24.891  0.00  0.00    +0.003 C 
ATOM     16  C   UNL     1      -3.984   3.539  25.543  0.00  0.00    +0.017 C 
ATOM     17  C   UNL     1      -4.494   2.894  25.486  0.00  0.00    +0.072 C 
ENDBRANCH  11  12
ENDBRANCH  10  11
ENDBRANCH   6   7
ENDBRANCH   5   6
BRANCH  20  21
ATOM     21  C   UNL     1      -1.171  -0.606  24.497  0.00  0.00    +0.121 C 
BRANCH  21  22
ATOM     22  N   UNL     1      -1.114   0.144  24.838  0.00  0.00    -0.211 NA
BRANCH  22  23
ATOM     23  C   UNL     1      -0.506   0.654  24.614  0.00  0.00    +0.118 C 
BRANCH  23  24
ATOM     24  C   UNL     1      -0.396   1.366  25.016  0.00  0.00    +0.034 A 
ATOM     25  C   UNL     1       0.038   1.974  24.666  0.00  0.00    +0.193 A 
ATOM     26  O   UNL     1       0.362   1.871  23.915  0.00  0.00    -0.287 OA
ATOM     27  C   UNL     1       0.147   2.687  25.068  0.00  0.00    +0.042 A 
ATOM     28  C   UNL     1      -0.177   2.791  25.819  0.00  0.00    +0.003 A 
ATOM     29  C   UNL     1      -0.611   2.182  26.169  0.00  0.00    -0.000 A 
ATOM     30  C   UNL     1      -0.721   1.471  25.767  0.00  0.00    +0.000 A 
ENDBRANCH  23  24
ENDBRANCH  22  23
ENDBRANCH  21  22
ENDBRANCH  20  21
TORSDOF 8
ENDMDL
