REMARK  Name = 
REMARK  7 active torsions:
REMARK  status: ('A' for Active; 'I' for Inactive)
REMARK    1  A    between atoms: C_5  and  N_8
REMARK    2  A    between atoms: N_11  and  C_12
REMARK    3  A    between atoms: C_12  and  C_13
REMARK    4  A    between atoms: C_20  and  C_21
REMARK    5  A    between atoms: C_21  and  N_22
REMARK    6  A    between atoms: N_25  and  C_26
REMARK    7  A    between atoms: C_28  and  C_32
REMARK                            x       y       z     vdW  Elec       q    Type
REMARK                         _______ _______ _______ _____ _____    ______ ____
ROOT
ATOM     13  C   UNL     1       1.661  -1.343   0.000  0.00  0.00    +0.032 C 
ATOM     14  C   UNL     1       1.814  -2.106   0.000  0.00  0.00    +0.073 C 
ATOM     15  N   UNL     1       1.065  -1.759   0.000  0.00  0.00    -0.272 NA
ATOM     16  C   UNL     1       1.205  -0.720   0.000  0.00  0.00    +0.072 C 
ATOM     17  C   UNL     1       0.961  -0.114   0.000  0.00  0.00    +0.017 C 
ATOM     18  C   UNL     1       0.923  -1.010   0.000  0.00  0.00    +0.005 C 
ATOM     19  C   UNL     1       0.119  -1.362   0.000  0.00  0.00    +0.018 C 
ATOM     20  C   UNL     1       0.226  -2.118   0.000  0.00  0.00    +0.079 C 
ENDROOT
BRANCH  13  12
ATOM     12  C   UNL     1       2.307  -0.828   0.000  0.00  0.00    +0.074 C 
BRANCH  12  11
ATOM      8  N   UNL     1       1.939   1.619   0.000  0.00  0.00    -0.305 N 
ATOM      9  C   UNL     1       2.707   1.317   0.000  0.00  0.00    +0.108 C 
ATOM     10  C   UNL     1       2.829   0.501   0.000  0.00  0.00    +0.094 C 
ATOM     11  N   UNL     1       2.184  -0.013   0.000  0.00  0.00    -0.270 NA
ATOM     34  C   UNL     1       1.416   0.289   0.000  0.00  0.00    +0.094 C 
ATOM     35  C   UNL     1       1.294   1.105   0.000  0.00  0.00    +0.108 C 
BRANCH   8   5
ATOM      1  F   UNL     1       1.449   4.883   0.000  0.00  0.00    -0.204 F 
ATOM      2  C   UNL     1       1.571   4.067   0.000  0.00  0.00    +0.140 A 
ATOM      3  C   UNL     1       2.339   3.765   0.000  0.00  0.00    +0.031 A 
ATOM      4  C   UNL     1       2.462   2.949   0.000  0.00  0.00    +0.017 A 
ATOM      5  C   UNL     1       1.816   2.435   0.000  0.00  0.00    +0.048 A 
ATOM      6  C   UNL     1       1.049   2.737   0.000  0.00  0.00    +0.017 A 
ATOM      7  C   UNL     1       0.926   3.553   0.000  0.00  0.00    +0.031 A 
ENDBRANCH   8   5
ENDBRANCH  12  11
ENDBRANCH  13  12
BRANCH  20  21
ATOM     21  C   UNL     1      -0.179  -2.836   0.000  0.00  0.00    +0.133 C 
BRANCH  21  22
ATOM     22  N   UNL     1       0.241  -3.546   0.000  0.00  0.00    -0.185 NA
ATOM     23  C   UNL     1      -0.163  -4.265   0.000  0.00  0.00    +0.344 C 
ATOM     24  O   UNL     1      -0.988  -4.274   0.000  0.00  0.00    -0.249 OA
ATOM     25  N   UNL     1       0.257  -4.975   0.000  0.00  0.00    -0.161 NA
BRANCH  25  26
ATOM     26  C   UNL     1      -0.148  -5.694   0.000  0.00  0.00    +0.076 A 
ATOM     27  C   UNL     1       0.272  -6.404   0.000  0.00  0.00    +0.027 A 
ATOM     28  C   UNL     1      -0.133  -7.123   0.000  0.00  0.00    +0.070 A 
ATOM     29  C   UNL     1      -0.958  -7.132   0.000  0.00  0.00    +0.010 A 
ATOM     30  C   UNL     1      -1.378  -6.422   0.000  0.00  0.00    +0.002 A 
ATOM     31  C   UNL     1      -0.973  -5.703   0.000  0.00  0.00    +0.017 A 
BRANCH  28  32
ATOM     32  C   UNL     1       0.287  -7.833   0.000  0.00  0.00    +0.100 C 
ATOM     33  N   UNL     1       0.708  -8.543   0.000  0.00  0.00    -0.191 NA
ENDBRANCH  28  32
ENDBRANCH  25  26
ENDBRANCH  21  22
ENDBRANCH  20  21
TORSDOF 7
