MODEL 1
REMARK VINA RESULT:      -9.5      0.000      0.000
REMARK  Name = 
REMARK  5 active torsions:
REMARK  status: ('A' for Active; 'I' for Inactive)
REMARK    1  A    between atoms: C_2  and  C_5
REMARK    2  A    between atoms: N_10  and  C_11
REMARK    3  A    between atoms: C_15  and  N_19
REMARK    4  A    between atoms: N_22  and  C_23
REMARK    5  A    between atoms: C_25  and  C_29
REMARK                            x       y       z     vdW  Elec       q    Type
REMARK                         _______ _______ _______ _____ _____    ______ ____
ROOT
ATOM     11  C   UNL     1      -1.398   0.448  24.559  0.00  0.00    +0.154 C 
ATOM     12  C   UNL     1      -1.322  -0.373  24.590  0.00  0.00    +0.166 C 
ATOM     13  O   UNL     1      -0.629  -0.578  24.193  0.00  0.00    -0.350 OA
ATOM     14  C   UNL     1      -0.277   0.114  23.917  0.00  0.00    +0.166 C 
ATOM     15  C   UNL     1       0.369   0.417  23.501  0.00  0.00    +0.156 C 
ATOM     16  C   UNL     1       0.292   1.237  23.471  0.00  0.00    +0.166 C 
ATOM     17  O   UNL     1      -0.401   1.443  23.868  0.00  0.00    -0.350 OA
ATOM     18  C   UNL     1      -0.753   0.749  24.144  0.00  0.00    +0.166 C 
ENDROOT
BRANCH  11  10
ATOM      5  C   UNL     1      -4.190   1.019  24.785  0.00  0.00    +0.063 A 
ATOM      6  C   UNL     1      -4.356   0.421  24.241  0.00  0.00    +0.035 A 
ATOM      7  C   UNL     1      -3.741  -0.021  23.913  0.00  0.00    +0.103 A 
ATOM      8  N   UNL     1      -2.960   0.135  24.129  0.00  0.00    -0.211 NA
ATOM      9  C   UNL     1      -2.794   0.734  24.672  0.00  0.00    +0.236 A 
ATOM     10  N   UNL     1      -2.013   0.890  24.887  0.00  0.00    -0.200 NA
ATOM     31  N   UNL     1      -3.409   1.175  25.000  0.00  0.00    -0.217 NA
BRANCH   5   2
ATOM      1  C   UNL     1      -5.420   1.902  25.440  0.00  0.00    +0.006 C 
ATOM      2  C   UNL     1      -4.804   1.461  25.112  0.00  0.00    +0.036 C 
ATOM      3  C   UNL     1      -5.050   0.801  25.541  0.00  0.00    +0.006 C 
ATOM      4  C   UNL     1      -4.559   2.121  24.683  0.00  0.00    +0.006 C 
ENDBRANCH   5   2
ENDBRANCH  11  10
BRANCH  15  19
ATOM     19  N   UNL     1       0.984  -0.025  23.173  0.00  0.00    -0.184 NA
ATOM     20  C   UNL     1       1.755   0.267  23.187  0.00  0.00    +0.344 C 
ATOM     21  O   UNL     1       1.912   1.002  23.528  0.00  0.00    -0.249 OA
ATOM     22  N   UNL     1       2.369  -0.174  22.859  0.00  0.00    -0.161 NA
BRANCH  22  23
ATOM     23  C   UNL     1       3.141   0.118  22.872  0.00  0.00    +0.076 A 
ATOM     24  C   UNL     1       3.715  -0.253  23.333  0.00  0.00    +0.027 A 
ATOM     25  C   UNL     1       4.486   0.039  23.347  0.00  0.00    +0.070 A 
ATOM     26  C   UNL     1       4.683   0.704  22.898  0.00  0.00    +0.010 A 
ATOM     27  C   UNL     1       4.109   1.075  22.436  0.00  0.00    +0.002 A 
ATOM     28  C   UNL     1       3.338   0.782  22.424  0.00  0.00    +0.017 A 
BRANCH  25  29
ATOM     29  C   UNL     1       5.060  -0.332  23.809  0.00  0.00    +0.100 C 
ATOM     30  N   UNL     1       5.634  -0.703  24.270  0.00  0.00    -0.191 NA
ENDBRANCH  25  29
ENDBRANCH  22  23
ENDBRANCH  15  19
TORSDOF 5
ENDMDL
MODEL 2
REMARK VINA RESULT:      -9.1      3.110      4.849
REMARK  Name = 
REMARK  5 active torsions:
REMARK  status: ('A' for Active; 'I' for Inactive)
REMARK    1  A    between atoms: C_2  and  C_5
REMARK    2  A    between atoms: N_10  and  C_11
REMARK    3  A    between atoms: C_15  and  N_19
REMARK    4  A    between atoms: N_22  and  C_23
REMARK    5  A    between atoms: C_25  and  C_29
REMARK                            x       y       z     vdW  Elec       q    Type
REMARK                         _______ _______ _______ _____ _____    ______ ____
ROOT
ATOM     11  C   UNL     1      -1.216  -0.499  24.898  0.00  0.00    +0.154 C 
ATOM     12  C   UNL     1      -1.147  -0.284  25.691  0.00  0.00    +0.166 C 
ATOM     13  O   UNL     1      -0.811   0.468  25.722  0.00  0.00    -0.350 OA
ATOM     14  C   UNL     1      -0.671   0.718  24.950  0.00  0.00    +0.166 C 
ATOM     15  C   UNL     1      -0.377   1.337  24.490  0.00  0.00    +0.156 C 
ATOM     16  C   UNL     1      -0.446   1.122  23.697  0.00  0.00    +0.166 C 
ATOM     17  O   UNL     1      -0.782   0.370  23.666  0.00  0.00    -0.350 OA
ATOM     18  C   UNL     1      -0.922   0.120  24.440  0.00  0.00    +0.166 C 
ENDROOT
BRANCH  11  10
ATOM      5  C   UNL     1      -3.438  -2.257  24.517  0.00  0.00    +0.063 A 
ATOM      6  C   UNL     1      -3.931  -1.715  24.896  0.00  0.00    +0.035 A 
ATOM      7  C   UNL     1      -3.622  -1.005  25.181  0.00  0.00    +0.103 A 
ATOM      8  N   UNL     1      -2.820  -0.836  25.087  0.00  0.00    -0.211 NA
ATOM      9  C   UNL     1      -2.327  -1.378  24.707  0.00  0.00    +0.236 A 
ATOM     10  N   UNL     1      -1.525  -1.210  24.613  0.00  0.00    -0.200 NA
ATOM     31  N   UNL     1      -2.636  -2.088  24.422  0.00  0.00    -0.217 NA
BRANCH   5   2
ATOM      1  C   UNL     1      -4.056  -3.676  23.947  0.00  0.00    +0.006 C 
ATOM      2  C   UNL     1      -3.747  -2.966  24.232  0.00  0.00    +0.036 C 
ATOM      3  C   UNL     1      -4.106  -2.560  23.611  0.00  0.00    +0.006 C 
ATOM      4  C   UNL     1      -3.386  -3.372  24.854  0.00  0.00    +0.006 C 
ENDBRANCH   5   2
ENDBRANCH  11  10
BRANCH  15  19
ATOM     19  N   UNL     1      -0.068   2.047  24.775  0.00  0.00    -0.184 NA
ATOM     20  C   UNL     1      -0.536   2.727  24.784  0.00  0.00    +0.344 C 
ATOM     21  O   UNL     1      -1.313   2.696  24.508  0.00  0.00    -0.249 OA
ATOM     22  N   UNL     1      -0.228   3.437  25.069  0.00  0.00    -0.161 NA
BRANCH  22  23
ATOM     23  C   UNL     1      -0.695   4.116  25.077  0.00  0.00    +0.076 A 
ATOM     24  C   UNL     1      -1.419   4.114  25.472  0.00  0.00    +0.027 A 
ATOM     25  C   UNL     1      -1.886   4.793  25.481  0.00  0.00    +0.070 A 
ATOM     26  C   UNL     1      -1.630   5.476  25.094  0.00  0.00    +0.010 A 
ATOM     27  C   UNL     1      -0.906   5.478  24.699  0.00  0.00    +0.002 A 
ATOM     28  C   UNL     1      -0.439   4.798  24.691  0.00  0.00    +0.017 A 
BRANCH  25  29
ATOM     29  C   UNL     1      -2.611   4.791  25.877  0.00  0.00    +0.100 C 
ATOM     30  N   UNL     1      -3.335   4.788  26.272  0.00  0.00    -0.191 NA
ENDBRANCH  25  29
ENDBRANCH  22  23
ENDBRANCH  15  19
TORSDOF 5
ENDMDL
MODEL 3
REMARK VINA RESULT:      -8.7      1.298      6.982
REMARK  Name = 
REMARK  5 active torsions:
REMARK  status: ('A' for Active; 'I' for Inactive)
REMARK    1  A    between atoms: C_2  and  C_5
REMARK    2  A    between atoms: N_10  and  C_11
REMARK    3  A    between atoms: C_15  and  N_19
REMARK    4  A    between atoms: N_22  and  C_23
REMARK    5  A    between atoms: C_25  and  C_29
REMARK                            x       y       z     vdW  Elec       q    Type
REMARK                         _______ _______ _______ _____ _____    ______ ____
ROOT
ATOM     11  C   UNL     1       0.210   0.833  23.889  0.00  0.00    +0.154 C 
ATOM     12  C   UNL     1      -0.171   0.104  23.840  0.00  0.00    +0.166 C 
ATOM     13  O   UNL     1      -0.984   0.243  23.812  0.00  0.00    -0.350 OA
ATOM     14  C   UNL     1      -1.105   1.057  23.844  0.00  0.00    +0.166 C 
ATOM     15  C   UNL     1      -1.681   1.648  23.846  0.00  0.00    +0.156 C 
ATOM     16  C   UNL     1      -1.300   2.377  23.895  0.00  0.00    +0.166 C 
ATOM     17  O   UNL     1      -0.488   2.238  23.923  0.00  0.00    -0.350 OA
ATOM     18  C   UNL     1      -0.367   1.423  23.891  0.00  0.00    +0.166 C 
ENDROOT
BRANCH  11  10
ATOM      5  C   UNL     1       2.830   0.391  22.836  0.00  0.00    +0.063 A 
ATOM      6  C   UNL     1       2.510  -0.069  22.231  0.00  0.00    +0.035 A 
ATOM      7  C   UNL     1       1.694  -0.188  22.192  0.00  0.00    +0.103 A 
ATOM      8  N   UNL     1       1.199   0.152  22.757  0.00  0.00    -0.211 NA
ATOM      9  C   UNL     1       1.521   0.612  23.363  0.00  0.00    +0.236 A 
ATOM     10  N   UNL     1       1.026   0.953  23.928  0.00  0.00    -0.200 NA
ATOM     31  N   UNL     1       2.335   0.731  23.402  0.00  0.00    -0.217 NA
BRANCH   5   2
ATOM      1  C   UNL     1       4.461   0.629  22.915  0.00  0.00    +0.006 C 
ATOM      2  C   UNL     1       3.645   0.510  22.875  0.00  0.00    +0.036 C 
ATOM      3  C   UNL     1       3.747  -0.270  23.124  0.00  0.00    +0.006 C 
ATOM      4  C   UNL     1       3.544   1.290  22.626  0.00  0.00    +0.006 C 
ENDBRANCH   5   2
ENDBRANCH  11  10
BRANCH  15  19
ATOM     19  N   UNL     1      -2.497   1.528  23.807  0.00  0.00    -0.184 NA
ATOM     20  C   UNL     1      -3.007   2.016  24.235  0.00  0.00    +0.344 C 
ATOM     21  O   UNL     1      -2.701   2.623  24.703  0.00  0.00    -0.249 OA
ATOM     22  N   UNL     1      -3.822   1.897  24.196  0.00  0.00    -0.161 NA
BRANCH  22  23
ATOM     23  C   UNL     1      -4.332   2.384  24.624  0.00  0.00    +0.076 A 
ATOM     24  C   UNL     1      -4.853   2.057  25.172  0.00  0.00    +0.027 A 
ATOM     25  C   UNL     1      -5.362   2.543  25.600  0.00  0.00    +0.070 A 
ATOM     26  C   UNL     1      -5.351   3.360  25.480  0.00  0.00    +0.010 A 
ATOM     27  C   UNL     1      -4.829   3.689  24.931  0.00  0.00    +0.002 A 
ATOM     28  C   UNL     1      -4.320   3.200  24.503  0.00  0.00    +0.017 A 
BRANCH  25  29
ATOM     29  C   UNL     1      -5.884   2.215  26.148  0.00  0.00    +0.100 C 
ATOM     30  N   UNL     1      -6.405   1.886  26.696  0.00  0.00    -0.191 NA
ENDBRANCH  25  29
ENDBRANCH  22  23
ENDBRANCH  15  19
TORSDOF 5
ENDMDL
MODEL 4
REMARK VINA RESULT:      -8.0      4.289      5.756
REMARK  Name = 
REMARK  5 active torsions:
REMARK  status: ('A' for Active; 'I' for Inactive)
REMARK    1  A    between atoms: C_2  and  C_5
REMARK    2  A    between atoms: N_10  and  C_11
REMARK    3  A    between atoms: C_15  and  N_19
REMARK    4  A    between atoms: N_22  and  C_23
REMARK    5  A    between atoms: C_25  and  C_29
REMARK                            x       y       z     vdW  Elec       q    Type
REMARK                         _______ _______ _______ _____ _____    ______ ____
ROOT
ATOM     11  C   UNL     1      -3.701   2.840  24.777  0.00  0.00    +0.154 C 
ATOM     12  C   UNL     1      -4.099   2.644  25.472  0.00  0.00    +0.166 C 
ATOM     13  O   UNL     1      -4.362   1.865  25.404  0.00  0.00    -0.350 OA
ATOM     14  C   UNL     1      -4.126   1.580  24.667  0.00  0.00    +0.166 C 
ATOM     15  C   UNL     1      -4.143   0.922  24.169  0.00  0.00    +0.156 C 
ATOM     16  C   UNL     1      -3.745   1.118  23.474  0.00  0.00    +0.166 C 
ATOM     17  O   UNL     1      -3.482   1.897  23.542  0.00  0.00    -0.350 OA
ATOM     18  C   UNL     1      -3.718   2.182  24.280  0.00  0.00    +0.166 C 
ENDROOT
BRANCH  11  10
ATOM      5  C   UNL     1      -1.534   4.675  25.109  0.00  0.00    +0.063 A 
ATOM      6  C   UNL     1      -1.158   4.140  25.612  0.00  0.00    +0.035 A 
ATOM      7  C   UNL     1      -1.512   3.413  25.780  0.00  0.00    +0.103 A 
ATOM      8  N   UNL     1      -2.241   3.222  25.446  0.00  0.00    -0.211 NA
ATOM      9  C   UNL     1      -2.617   3.758  24.943  0.00  0.00    +0.236 A 
ATOM     10  N   UNL     1      -3.347   3.566  24.609  0.00  0.00    -0.200 NA
ATOM     31  N   UNL     1      -2.264   4.484  24.775  0.00  0.00    -0.217 NA
BRANCH   5   2
ATOM      1  C   UNL     1      -0.827   6.127  24.774  0.00  0.00    +0.006 C 
ATOM      2  C   UNL     1      -1.181   5.401  24.942  0.00  0.00    +0.036 C 
ATOM      3  C   UNL     1      -0.525   5.010  24.632  0.00  0.00    +0.006 C 
ATOM      4  C   UNL     1      -1.838   5.793  25.252  0.00  0.00    +0.006 C 
ENDBRANCH   5   2
ENDBRANCH  11  10
BRANCH  15  19
ATOM     19  N   UNL     1      -4.496   0.196  24.337  0.00  0.00    -0.184 NA
ATOM     20  C   UNL     1      -4.067  -0.503  24.246  0.00  0.00    +0.344 C 
ATOM     21  O   UNL     1      -3.284  -0.475  23.987  0.00  0.00    -0.249 OA
ATOM     22  N   UNL     1      -4.420  -1.229  24.414  0.00  0.00    -0.161 NA
BRANCH  22  23
ATOM     23  C   UNL     1      -3.990  -1.928  24.323  0.00  0.00    +0.076 A 
ATOM     24  C   UNL     1      -3.228  -1.987  24.631  0.00  0.00    +0.027 A 
ATOM     25  C   UNL     1      -2.799  -2.685  24.540  0.00  0.00    +0.070 A 
ATOM     26  C   UNL     1      -3.133  -3.326  24.141  0.00  0.00    +0.010 A 
ATOM     27  C   UNL     1      -3.896  -3.267  23.833  0.00  0.00    +0.002 A 
ATOM     28  C   UNL     1      -4.325  -2.568  23.924  0.00  0.00    +0.017 A 
BRANCH  25  29
ATOM     29  C   UNL     1      -2.035  -2.743  24.849  0.00  0.00    +0.100 C 
ATOM     30  N   UNL     1      -1.273  -2.802  25.156  0.00  0.00    -0.191 NA
ENDBRANCH  25  29
ENDBRANCH  22  23
ENDBRANCH  15  19
TORSDOF 5
ENDMDL
MODEL 5
REMARK VINA RESULT:      -7.2     17.130     18.061
REMARK  Name = 
REMARK  5 active torsions:
REMARK  status: ('A' for Active; 'I' for Inactive)
REMARK    1  A    between atoms: C_2  and  C_5
REMARK    2  A    between atoms: N_10  and  C_11
REMARK    3  A    between atoms: C_15  and  N_19
REMARK    4  A    between atoms: N_22  and  C_23
REMARK    5  A    between atoms: C_25  and  C_29
REMARK                            x       y       z     vdW  Elec       q    Type
REMARK                         _______ _______ _______ _____ _____    ______ ____
ROOT
ATOM     11  C   UNL     1      -7.852  -8.608   9.162  0.00  0.00    +0.154 C 
ATOM     12  C   UNL     1      -7.494  -8.815   8.449  0.00  0.00    +0.166 C 
ATOM     13  O   UNL     1      -6.830  -9.272   8.621  0.00  0.00    -0.350 OA
ATOM     14  C   UNL     1      -6.777  -9.348   9.440  0.00  0.00    +0.166 C 
ATOM     15  C   UNL     1      -6.335  -9.677  10.054  0.00  0.00    +0.156 C 
ATOM     16  C   UNL     1      -6.693  -9.470  10.768  0.00  0.00    +0.166 C 
ATOM     17  O   UNL     1      -7.357  -9.012  10.595  0.00  0.00    -0.350 OA
ATOM     18  C   UNL     1      -7.409  -8.937   9.775  0.00  0.00    +0.166 C 
ENDROOT
BRANCH  11  10
ATOM      5  C   UNL     1      -9.300  -6.199   8.642  0.00  0.00    +0.063 A 
ATOM      6  C   UNL     1      -8.660  -5.907   8.211  0.00  0.00    +0.035 A 
ATOM      7  C   UNL     1      -7.978  -6.364   8.125  0.00  0.00    +0.103 A 
ATOM      8  N   UNL     1      -7.936  -7.112   8.471  0.00  0.00    -0.211 NA
ATOM      9  C   UNL     1      -8.577  -7.403   8.902  0.00  0.00    +0.236 A 
ATOM     10  N   UNL     1      -8.535  -8.151   9.248  0.00  0.00    -0.200 NA
ATOM     31  N   UNL     1      -9.258  -6.947   8.987  0.00  0.00    -0.217 NA
BRANCH   5   2
ATOM      1  C   UNL     1     -10.664  -5.286   8.812  0.00  0.00    +0.006 C 
ATOM      2  C   UNL     1      -9.981  -5.742   8.727  0.00  0.00    +0.036 C 
ATOM      3  C   UNL     1     -10.440  -6.427   8.728  0.00  0.00    +0.006 C 
ATOM      4  C   UNL     1      -9.522  -5.056   8.725  0.00  0.00    +0.006 C 
ENDBRANCH   5   2
ENDBRANCH  11  10
BRANCH  15  19
ATOM     19  N   UNL     1      -5.652 -10.133   9.969  0.00  0.00    -0.184 NA
ATOM     20  C   UNL     1      -4.944  -9.886  10.312  0.00  0.00    +0.344 C 
ATOM     21  O   UNL     1      -4.918  -9.182  10.741  0.00  0.00    -0.249 OA
ATOM     22  N   UNL     1      -4.263 -10.342  10.227  0.00  0.00    -0.161 NA
BRANCH  22  23
ATOM     23  C   UNL     1      -3.554 -10.094  10.570  0.00  0.00    +0.076 A 
ATOM     24  C   UNL     1      -3.316 -10.405  11.296  0.00  0.00    +0.027 A 
ATOM     25  C   UNL     1      -2.609 -10.158  11.639  0.00  0.00    +0.070 A 
ATOM     26  C   UNL     1      -2.138  -9.598  11.256  0.00  0.00    +0.010 A 
ATOM     27  C   UNL     1      -2.376  -9.287  10.530  0.00  0.00    +0.002 A 
ATOM     28  C   UNL     1      -3.084  -9.535  10.187  0.00  0.00    +0.017 A 
BRANCH  25  29
ATOM     29  C   UNL     1      -2.371 -10.469  12.365  0.00  0.00    +0.100 C 
ATOM     30  N   UNL     1      -2.133 -10.780  13.091  0.00  0.00    -0.191 NA
ENDBRANCH  25  29
ENDBRANCH  22  23
ENDBRANCH  15  19
TORSDOF 5
ENDMDL
MODEL 6
REMARK VINA RESULT:      -6.6     14.991     16.138
REMARK  Name = 
REMARK  5 active torsions:
REMARK  status: ('A' for Active; 'I' for Inactive)
REMARK    1  A    between atoms: C_2  and  C_5
REMARK    2  A    between atoms: N_10  and  C_11
REMARK    3  A    between atoms: C_15  and  N_19
REMARK    4  A    between atoms: N_22  and  C_23
REMARK    5  A    between atoms: C_25  and  C_29
REMARK                            x       y       z     vdW  Elec       q    Type
REMARK                         _______ _______ _______ _____ _____    ______ ____
ROOT
ATOM     11  C   UNL     1      -7.240 -10.178  14.779  0.00  0.00    +0.154 C 
ATOM     12  C   UNL     1      -6.622 -10.582  15.147  0.00  0.00    +0.166 C 
ATOM     13  O   UNL     1      -6.015 -10.672  14.596  0.00  0.00    -0.350 OA
ATOM     14  C   UNL     1      -6.256 -10.324  13.889  0.00  0.00    +0.166 C 
ATOM     15  C   UNL     1      -6.031 -10.164  13.112  0.00  0.00    +0.156 C 
ATOM     16  C   UNL     1      -6.649  -9.760  12.744  0.00  0.00    +0.166 C 
ATOM     17  O   UNL     1      -7.257  -9.670  13.294  0.00  0.00    -0.350 OA
ATOM     18  C   UNL     1      -7.014 -10.019  14.002  0.00  0.00    +0.166 C 
ENDROOT
BRANCH  11  10
ATOM      5  C   UNL     1      -8.711  -9.209  17.031  0.00  0.00    +0.063 A 
ATOM      6  C   UNL     1      -8.009  -9.140  17.459  0.00  0.00    +0.035 A 
ATOM      7  C   UNL     1      -7.291  -9.348  17.110  0.00  0.00    +0.103 A 
ATOM      8  N   UNL     1      -7.273  -9.625  16.333  0.00  0.00    -0.211 NA
ATOM      9  C   UNL     1      -7.976  -9.693  15.905  0.00  0.00    +0.236 A 
ATOM     10  N   UNL     1      -7.959  -9.970  15.128  0.00  0.00    -0.200 NA
ATOM     31  N   UNL     1      -8.694  -9.486  16.253  0.00  0.00    -0.217 NA
BRANCH   5   2
ATOM      1  C   UNL     1     -10.147  -8.793  17.728  0.00  0.00    +0.006 C 
ATOM      2  C   UNL     1      -9.428  -9.001  17.379  0.00  0.00    +0.036 C 
ATOM      3  C   UNL     1      -9.360  -8.241  17.066  0.00  0.00    +0.006 C 
ATOM      4  C   UNL     1      -9.497  -9.762  17.693  0.00  0.00    +0.006 C 
ENDBRANCH   5   2
ENDBRANCH  11  10
BRANCH  15  19
ATOM     19  N   UNL     1      -5.313 -10.372  12.763  0.00  0.00    -0.184 NA
ATOM     20  C   UNL     1      -5.104 -10.058  12.029  0.00  0.00    +0.344 C 
ATOM     21  O   UNL     1      -5.613  -9.537  11.644  0.00  0.00    -0.249 OA
ATOM     22  N   UNL     1      -4.386 -10.266  11.681  0.00  0.00    -0.161 NA
BRANCH  22  23
ATOM     23  C   UNL     1      -4.177  -9.952  10.947  0.00  0.00    +0.076 A 
ATOM     24  C   UNL     1      -4.410 -10.332  10.254  0.00  0.00    +0.027 A 
ATOM     25  C   UNL     1      -4.202 -10.019   9.520  0.00  0.00    +0.070 A 
ATOM     26  C   UNL     1      -3.759  -9.324   9.479  0.00  0.00    +0.010 A 
ATOM     27  C   UNL     1      -3.525  -8.943  10.173  0.00  0.00    +0.002 A 
ATOM     28  C   UNL     1      -3.734  -9.257  10.907  0.00  0.00    +0.017 A 
BRANCH  25  29
ATOM     29  C   UNL     1      -4.436 -10.400   8.827  0.00  0.00    +0.100 C 
ATOM     30  N   UNL     1      -4.669 -10.781   8.134  0.00  0.00    -0.191 NA
ENDBRANCH  25  29
ENDBRANCH  22  23
ENDBRANCH  15  19
TORSDOF 5
ENDMDL
MODEL 7
REMARK VINA RESULT:      -6.5     14.669     15.883
REMARK  Name = 
REMARK  5 active torsions:
REMARK  status: ('A' for Active; 'I' for Inactive)
REMARK    1  A    between atoms: C_2  and  C_5
REMARK    2  A    between atoms: N_10  and  C_11
REMARK    3  A    between atoms: C_15  and  N_19
REMARK    4  A    between atoms: N_22  and  C_23
REMARK    5  A    between atoms: C_25  and  C_29
REMARK                            x       y       z     vdW  Elec       q    Type
REMARK                         _______ _______ _______ _____ _____    ______ ____
ROOT
ATOM     11  C   UNL     1      -5.370 -10.270  15.507  0.00  0.00    +0.154 C 
ATOM     12  C   UNL     1      -4.550 -10.212  15.571  0.00  0.00    +0.166 C 
ATOM     13  O   UNL     1      -4.234 -10.235  14.809  0.00  0.00    -0.350 OA
ATOM     14  C   UNL     1      -4.858 -10.307  14.276  0.00  0.00    +0.166 C 
ATOM     15  C   UNL     1      -5.050 -10.365  13.475  0.00  0.00    +0.156 C 
ATOM     16  C   UNL     1      -5.870 -10.423  13.412  0.00  0.00    +0.166 C 
ATOM     17  O   UNL     1      -6.186 -10.401  14.174  0.00  0.00    -0.350 OA
ATOM     18  C   UNL     1      -5.561 -10.329  14.707  0.00  0.00    +0.166 C 
ENDROOT
BRANCH  11  10
ATOM      5  C   UNL     1      -5.923 -10.610  18.291  0.00  0.00    +0.063 A 
ATOM      6  C   UNL     1      -5.127 -10.781  18.428  0.00  0.00    +0.035 A 
ATOM      7  C   UNL     1      -4.591 -10.781  17.800  0.00  0.00    +0.103 A 
ATOM      8  N   UNL     1      -4.851 -10.611  17.036  0.00  0.00    -0.211 NA
ATOM      9  C   UNL     1      -5.647 -10.440  16.900  0.00  0.00    +0.236 A 
ATOM     10  N   UNL     1      -5.906 -10.270  16.135  0.00  0.00    -0.200 NA
ATOM     31  N   UNL     1      -6.182 -10.440  17.527  0.00  0.00    -0.217 NA
BRANCH   5   2
ATOM      1  C   UNL     1      -6.994 -10.609  19.546  0.00  0.00    +0.006 C 
ATOM      2  C   UNL     1      -6.458 -10.610  18.919  0.00  0.00    +0.036 C 
ATOM      3  C   UNL     1      -7.077 -10.481  18.390  0.00  0.00    +0.006 C 
ATOM      4  C   UNL     1      -5.838 -10.739  19.448  0.00  0.00    +0.006 C 
ENDBRANCH   5   2
ENDBRANCH  11  10
BRANCH  15  19
ATOM     19  N   UNL     1      -4.514 -10.366  12.848  0.00  0.00    -0.184 NA
ATOM     20  C   UNL     1      -4.704  -9.982  12.142  0.00  0.00    +0.344 C 
ATOM     21  O   UNL     1      -5.430  -9.598  12.064  0.00  0.00    -0.249 OA
ATOM     22  N   UNL     1      -4.169  -9.982  11.515  0.00  0.00    -0.161 NA
BRANCH  22  23
ATOM     23  C   UNL     1      -4.359  -9.599  10.809  0.00  0.00    +0.076 A 
ATOM     24  C   UNL     1      -4.602 -10.036  10.154  0.00  0.00    +0.027 A 
ATOM     25  C   UNL     1      -4.792  -9.654   9.450  0.00  0.00    +0.070 A 
ATOM     26  C   UNL     1      -4.739  -8.831   9.399  0.00  0.00    +0.010 A 
ATOM     27  C   UNL     1      -4.496  -8.393  10.055  0.00  0.00    +0.002 A 
ATOM     28  C   UNL     1      -4.306  -8.777  10.760  0.00  0.00    +0.017 A 
BRANCH  25  29
ATOM     29  C   UNL     1      -5.036 -10.092   8.794  0.00  0.00    +0.100 C 
ATOM     30  N   UNL     1      -5.279 -10.529   8.139  0.00  0.00    -0.191 NA
ENDBRANCH  25  29
ENDBRANCH  22  23
ENDBRANCH  15  19
TORSDOF 5
ENDMDL
MODEL 8
REMARK VINA RESULT:      -6.3     14.907     16.676
REMARK  Name = 
REMARK  5 active torsions:
REMARK  status: ('A' for Active; 'I' for Inactive)
REMARK    1  A    between atoms: C_2  and  C_5
REMARK    2  A    between atoms: N_10  and  C_11
REMARK    3  A    between atoms: C_15  and  N_19
REMARK    4  A    between atoms: N_22  and  C_23
REMARK    5  A    between atoms: C_25  and  C_29
REMARK                            x       y       z     vdW  Elec       q    Type
REMARK                         _______ _______ _______ _____ _____    ______ ____
ROOT
ATOM     11  C   UNL     1      -4.920 -10.335  12.500  0.00  0.00    +0.154 C 
ATOM     12  C   UNL     1      -4.192 -10.589  12.792  0.00  0.00    +0.166 C 
ATOM     13  O   UNL     1      -4.222 -10.554  13.616  0.00  0.00    -0.350 OA
ATOM     14  C   UNL     1      -4.968 -10.279  13.833  0.00  0.00    +0.166 C 
ATOM     15  C   UNL     1      -5.449 -10.086  14.475  0.00  0.00    +0.156 C 
ATOM     16  C   UNL     1      -6.177  -9.833  14.183  0.00  0.00    +0.166 C 
ATOM     17  O   UNL     1      -6.147  -9.868  13.360  0.00  0.00    -0.350 OA
ATOM     18  C   UNL     1      -5.400 -10.143  13.143  0.00  0.00    +0.166 C 
ENDROOT
BRANCH  11  10
ATOM      5  C   UNL     1      -4.224  -9.774   9.785  0.00  0.00    +0.063 A 
ATOM      6  C   UNL     1      -3.452  -9.599  10.020  0.00  0.00    +0.035 A 
ATOM      7  C   UNL     1      -3.241  -9.652  10.816  0.00  0.00    +0.103 A 
ATOM      8  N   UNL     1      -3.800  -9.879  11.378  0.00  0.00    -0.211 NA
ATOM      9  C   UNL     1      -4.572 -10.054  11.143  0.00  0.00    +0.236 A 
ATOM     10  N   UNL     1      -5.132 -10.282  11.704  0.00  0.00    -0.200 NA
ATOM     31  N   UNL     1      -4.783 -10.002  10.347  0.00  0.00    -0.217 NA
BRANCH   5   2
ATOM      1  C   UNL     1      -4.646  -9.668   8.194  0.00  0.00    +0.006 C 
ATOM      2  C   UNL     1      -4.435  -9.721   8.990  0.00  0.00    +0.036 C 
ATOM      3  C   UNL     1      -4.321  -8.905   9.014  0.00  0.00    +0.006 C 
ATOM      4  C   UNL     1      -4.549 -10.538   8.966  0.00  0.00    +0.006 C 
ENDBRANCH   5   2
ENDBRANCH  11  10
BRANCH  15  19
ATOM     19  N   UNL     1      -5.237 -10.139  15.271  0.00  0.00    -0.184 NA
ATOM     20  C   UNL     1      -5.820 -10.125  15.855  0.00  0.00    +0.344 C 
ATOM     21  O   UNL     1      -6.614 -10.059  15.643  0.00  0.00    -0.249 OA
ATOM     22  N   UNL     1      -5.609 -10.178  16.651  0.00  0.00    -0.161 NA
BRANCH  22  23
ATOM     23  C   UNL     1      -6.191 -10.164  17.235  0.00  0.00    +0.076 A 
ATOM     24  C   UNL     1      -6.004 -10.374  18.010  0.00  0.00    +0.027 A 
ATOM     25  C   UNL     1      -6.586 -10.360  18.593  0.00  0.00    +0.070 A 
ATOM     26  C   UNL     1      -7.357 -10.136  18.402  0.00  0.00    +0.010 A 
ATOM     27  C   UNL     1      -7.545  -9.926  17.626  0.00  0.00    +0.002 A 
ATOM     28  C   UNL     1      -6.962  -9.940  17.043  0.00  0.00    +0.017 A 
BRANCH  25  29
ATOM     29  C   UNL     1      -6.398 -10.570  19.369  0.00  0.00    +0.100 C 
ATOM     30  N   UNL     1      -6.211 -10.779  20.144  0.00  0.00    -0.191 NA
ENDBRANCH  25  29
ENDBRANCH  22  23
ENDBRANCH  15  19
TORSDOF 5
ENDMDL
MODEL 9
REMARK VINA RESULT:      -6.0     14.930     17.010
REMARK  Name = 
REMARK  5 active torsions:
REMARK  status: ('A' for Active; 'I' for Inactive)
REMARK    1  A    between atoms: C_2  and  C_5
REMARK    2  A    between atoms: N_10  and  C_11
REMARK    3  A    between atoms: C_15  and  N_19
REMARK    4  A    between atoms: N_22  and  C_23
REMARK    5  A    between atoms: C_25  and  C_29
REMARK                            x       y       z     vdW  Elec       q    Type
REMARK                         _______ _______ _______ _____ _____    ______ ____
ROOT
ATOM     11  C   UNL     1      -6.078 -10.350  13.046  0.00  0.00    +0.154 C 
ATOM     12  C   UNL     1      -6.747 -10.476  12.580  0.00  0.00    +0.166 C 
ATOM     13  O   UNL     1      -7.410 -10.426  13.068  0.00  0.00    -0.350 OA
ATOM     14  C   UNL     1      -7.151 -10.270  13.835  0.00  0.00    +0.166 C 
ATOM     15  C   UNL     1      -7.400 -10.143  14.612  0.00  0.00    +0.156 C 
ATOM     16  C   UNL     1      -6.731 -10.018  15.078  0.00  0.00    +0.166 C 
ATOM     17  O   UNL     1      -6.068 -10.067  14.590  0.00  0.00    -0.350 OA
ATOM     18  C   UNL     1      -6.328 -10.223  13.822  0.00  0.00    +0.166 C 
ENDROOT
BRANCH  11  10
ATOM      5  C   UNL     1      -4.123  -9.621  11.093  0.00  0.00    +0.063 A 
ATOM      6  C   UNL     1      -4.709  -9.254  10.643  0.00  0.00    +0.035 A 
ATOM      7  C   UNL     1      -5.491  -9.252  10.907  0.00  0.00    +0.103 A 
ATOM      8  N   UNL     1      -5.687  -9.618  11.620  0.00  0.00    -0.211 NA
ATOM      9  C   UNL     1      -5.100  -9.986  12.069  0.00  0.00    +0.236 A 
ATOM     10  N   UNL     1      -5.296 -10.352  12.783  0.00  0.00    -0.200 NA
ATOM     31  N   UNL     1      -4.319  -9.987  11.806  0.00  0.00    -0.217 NA
BRANCH   5   2
ATOM      1  C   UNL     1      -2.560  -9.624  10.565  0.00  0.00    +0.006 C 
ATOM      2  C   UNL     1      -3.342  -9.623  10.829  0.00  0.00    +0.036 C 
ATOM      3  C   UNL     1      -3.459  -8.886  10.477  0.00  0.00    +0.006 C 
ATOM      4  C   UNL     1      -3.224 -10.360  11.181  0.00  0.00    +0.006 C 
ENDBRANCH   5   2
ENDBRANCH  11  10
BRANCH  15  19
ATOM     19  N   UNL     1      -8.182 -10.141  14.875  0.00  0.00    -0.184 NA
ATOM     20  C   UNL     1      -8.437  -9.565  15.408  0.00  0.00    +0.344 C 
ATOM     21  O   UNL     1      -7.910  -8.990  15.677  0.00  0.00    -0.249 OA
ATOM     22  N   UNL     1      -9.218  -9.563  15.671  0.00  0.00    -0.161 NA
BRANCH  22  23
ATOM     23  C   UNL     1      -9.473  -8.987  16.204  0.00  0.00    +0.076 A 
ATOM     24  C   UNL     1      -9.804  -8.285  15.925  0.00  0.00    +0.027 A 
ATOM     25  C   UNL     1     -10.059  -7.709  16.457  0.00  0.00    +0.070 A 
ATOM     26  C   UNL     1      -9.983  -7.835  17.270  0.00  0.00    +0.010 A 
ATOM     27  C   UNL     1      -9.652  -8.538  17.549  0.00  0.00    +0.002 A 
ATOM     28  C   UNL     1      -9.398  -9.113  17.016  0.00  0.00    +0.017 A 
BRANCH  25  29
ATOM     29  C   UNL     1     -10.389  -7.006  16.178  0.00  0.00    +0.100 C 
ATOM     30  N   UNL     1     -10.719  -6.304  15.899  0.00  0.00    -0.191 NA
ENDBRANCH  25  29
ENDBRANCH  22  23
ENDBRANCH  15  19
TORSDOF 5
ENDMDL
