MODEL 1
REMARK VINA RESULT:     -13.2      0.000      0.000
REMARK  Name = 
REMARK  6 active torsions:
REMARK  status: ('A' for Active; 'I' for Inactive)
REMARK    1  A    between atoms: O_2  and  C_3
REMARK    2  A    between atoms: C_3  and  C_5
REMARK    3  A    between atoms: C_18  and  N_29
REMARK    4  A    between atoms: C_20  and  C_22
REMARK    5  A    between atoms: N_29  and  C_30
REMARK    6  A    between atoms: C_30  and  C_31
REMARK                            x       y       z     vdW  Elec       q    Type
REMARK                         _______ _______ _______ _____ _____    ______ ____
ROOT
ATOM      5  C   UNL     1      -3.859   2.960  25.100  0.00  0.00    +0.162 C 
ATOM      6  C   UNL     1      -3.367   3.620  25.136  0.00  0.00    +0.055 C 
ATOM      7  C   UNL     1      -2.557   3.538  25.006  0.00  0.00    -0.004 A 
ATOM      8  C   UNL     1      -2.238   2.795  24.841  0.00  0.00    +0.070 A 
ATOM      9  N   UNL     1      -1.425   2.884  24.738  0.00  0.00    -0.249 NA
ATOM     10  C   UNL     1      -1.239   3.681  24.840  0.00  0.00    +0.081 A 
ATOM     11  C   UNL     1      -1.940   4.086  25.006  0.00  0.00    +0.015 A 
ATOM     12  C   UNL     1      -1.924   4.900  25.135  0.00  0.00    +0.001 A 
ATOM     13  C   UNL     1      -1.209   5.311  25.098  0.00  0.00    +0.000 A 
ATOM     14  C   UNL     1      -0.509   4.905  24.932  0.00  0.00    +0.002 A 
ATOM     15  C   UNL     1      -0.524   4.091  24.803  0.00  0.00    +0.019 A 
ATOM     16  C   UNL     1      -2.731   2.134  24.805  0.00  0.00    +0.100 C 
ATOM     17  C   UNL     1      -2.414   1.391  24.640  0.00  0.00    +0.040 C 
ATOM     18  C   UNL     1      -2.906   0.731  24.604  0.00  0.00    +0.077 C 
ATOM     19  C   UNL     1      -3.716   0.813  24.734  0.00  0.00    +0.038 C 
ATOM     20  C   UNL     1      -4.034   1.556  24.899  0.00  0.00    +0.082 C 
ATOM     21  N   UNL     1      -3.541   2.216  24.935  0.00  0.00    -0.258 NA
ENDROOT
BRANCH  20  22
ATOM     22  C   UNL     1      -4.845   1.638  25.029  0.00  0.00    -0.008 A 
ATOM     23  C   UNL     1      -5.351   1.791  24.396  0.00  0.00    -0.001 A 
ATOM     24  C   UNL     1      -6.161   1.872  24.526  0.00  0.00    +0.029 A 
ATOM     25  C   UNL     1      -6.466   1.800  25.290  0.00  0.00    +0.140 A 
ATOM     26  F   UNL     1      -7.277   1.882  25.420  0.00  0.00    -0.204 F 
ATOM     27  C   UNL     1      -5.960   1.647  25.923  0.00  0.00    +0.029 A 
ATOM     28  C   UNL     1      -5.149   1.565  25.792  0.00  0.00    -0.001 A 
ENDBRANCH  20  22
BRANCH   5   3
ATOM      3  C   UNL     1      -4.670   3.042  25.230  0.00  0.00    +0.332 C 
ATOM      4  O   UNL     1      -5.472   2.887  25.111  0.00  0.00    -0.249 OA
BRANCH   3   2
ATOM      1  C   UNL     1      -5.266   4.296  25.566  0.00  0.00    +0.256 C 
ATOM      2  O   UNL     1      -4.946   3.573  25.798  0.00  0.00    -0.443 OA
ENDBRANCH   3   2
ENDBRANCH   5   3
BRANCH  18  29
ATOM     29  N   UNL     1      -2.588  -0.013  24.439  0.00  0.00    -0.215 NA
BRANCH  29  30
ATOM     30  C   UNL     1      -2.569  -0.593  25.025  0.00  0.00    +0.116 C 
BRANCH  30  31
ATOM     31  C   UNL     1      -2.405  -1.377  24.825  0.00  0.00    +0.014 A 
ATOM     32  C   UNL     1      -3.017  -1.929  24.788  0.00  0.00    +0.000 A 
ATOM     33  C   UNL     1      -2.852  -2.713  24.588  0.00  0.00    +0.020 A 
ATOM     34  C   UNL     1      -2.077  -2.943  24.424  0.00  0.00    +0.099 A 
ATOM     35  N   UNL     1      -1.466  -2.390  24.461  0.00  0.00    -0.243 NA
ATOM     36  C   UNL     1      -1.630  -1.606  24.662  0.00  0.00    +0.096 A 
ENDBRANCH  30  31
ENDBRANCH  29  30
ENDBRANCH  18  29
TORSDOF 6
ENDMDL
MODEL 2
REMARK VINA RESULT:     -12.2      2.317      4.586
REMARK  Name = 
REMARK  6 active torsions:
REMARK  status: ('A' for Active; 'I' for Inactive)
REMARK    1  A    between atoms: O_2  and  C_3
REMARK    2  A    between atoms: C_3  and  C_5
REMARK    3  A    between atoms: C_18  and  N_29
REMARK    4  A    between atoms: C_20  and  C_22
REMARK    5  A    between atoms: N_29  and  C_30
REMARK    6  A    between atoms: C_30  and  C_31
REMARK                            x       y       z     vdW  Elec       q    Type
REMARK                         _______ _______ _______ _____ _____    ______ ____
ROOT
ATOM      5  C   UNL     1      -2.010  -0.615  24.492  0.00  0.00    +0.162 C 
ATOM      6  C   UNL     1      -1.262  -0.297  24.356  0.00  0.00    +0.055 C 
ATOM      7  C   UNL     1      -1.143   0.517  24.415  0.00  0.00    -0.004 A 
ATOM      8  C   UNL     1      -1.772   1.014  24.610  0.00  0.00    +0.070 A 
ATOM      9  N   UNL     1      -1.489   1.788  24.628  0.00  0.00    -0.249 NA
ATOM     10  C   UNL     1      -0.685   1.772  24.444  0.00  0.00    +0.081 A 
ATOM     11  C   UNL     1      -0.471   0.985  24.313  0.00  0.00    +0.015 A 
ATOM     12  C   UNL     1       0.308   0.797  24.117  0.00  0.00    +0.001 A 
ATOM     13  C   UNL     1       0.873   1.396  24.052  0.00  0.00    +0.000 A 
ATOM     14  C   UNL     1       0.658   2.182  24.184  0.00  0.00    +0.002 A 
ATOM     15  C   UNL     1      -0.121   2.370  24.380  0.00  0.00    +0.019 A 
ATOM     16  C   UNL     1      -2.521   0.696  24.746  0.00  0.00    +0.100 C 
ATOM     17  C   UNL     1      -3.151   1.191  24.940  0.00  0.00    +0.040 C 
ATOM     18  C   UNL     1      -3.899   0.873  25.076  0.00  0.00    +0.077 C 
ATOM     19  C   UNL     1      -4.019   0.059  25.017  0.00  0.00    +0.038 C 
ATOM     20  C   UNL     1      -3.389  -0.436  24.822  0.00  0.00    +0.082 C 
ATOM     21  N   UNL     1      -2.641  -0.119  24.687  0.00  0.00    -0.258 NA
ENDROOT
BRANCH  20  22
ATOM     22  C   UNL     1      -3.509  -1.251  24.763  0.00  0.00    -0.008 A 
ATOM     23  C   UNL     1      -3.383  -1.735  25.418  0.00  0.00    -0.001 A 
ATOM     24  C   UNL     1      -3.503  -2.549  25.358  0.00  0.00    +0.029 A 
ATOM     25  C   UNL     1      -3.750  -2.878  24.643  0.00  0.00    +0.140 A 
ATOM     26  F   UNL     1      -3.871  -3.693  24.584  0.00  0.00    -0.204 F 
ATOM     27  C   UNL     1      -3.877  -2.394  23.988  0.00  0.00    +0.029 A 
ATOM     28  C   UNL     1      -3.756  -1.580  24.048  0.00  0.00    -0.001 A 
ENDBRANCH  20  22
BRANCH   5   3
ATOM      3  C   UNL     1      -2.130  -1.429  24.433  0.00  0.00    +0.332 C 
ATOM      4  O   UNL     1      -2.530  -2.119  24.220  0.00  0.00    -0.249 OA
BRANCH   3   2
ATOM      1  C   UNL     1      -1.037  -2.328  24.235  0.00  0.00    +0.256 C 
ATOM      2  O   UNL     1      -1.570  -1.952  24.739  0.00  0.00    -0.443 OA
ENDBRANCH   3   2
ENDBRANCH   5   3
BRANCH  18  29
ATOM     29  N   UNL     1      -4.529   1.370  25.271  0.00  0.00    -0.215 NA
BRANCH  29  30
ATOM     30  C   UNL     1      -4.720   2.006  24.781  0.00  0.00    +0.116 C 
BRANCH  30  31
ATOM     31  C   UNL     1      -5.099   2.669  25.095  0.00  0.00    +0.014 A 
ATOM     32  C   UNL     1      -4.783   3.421  24.968  0.00  0.00    +0.000 A 
ATOM     33  C   UNL     1      -5.162   4.084  25.281  0.00  0.00    +0.020 A 
ATOM     34  C   UNL     1      -5.855   3.994  25.721  0.00  0.00    +0.099 A 
ATOM     35  N   UNL     1      -6.169   3.242  25.847  0.00  0.00    -0.243 NA
ATOM     36  C   UNL     1      -5.791   2.579  25.533  0.00  0.00    +0.096 A 
ENDBRANCH  30  31
ENDBRANCH  29  30
ENDBRANCH  18  29
TORSDOF 6
ENDMDL
MODEL 3
REMARK VINA RESULT:     -12.1      2.017      3.598
REMARK  Name = 
REMARK  6 active torsions:
REMARK  status: ('A' for Active; 'I' for Inactive)
REMARK    1  A    between atoms: O_2  and  C_3
REMARK    2  A    between atoms: C_3  and  C_5
REMARK    3  A    between atoms: C_18  and  N_29
REMARK    4  A    between atoms: C_20  and  C_22
REMARK    5  A    between atoms: N_29  and  C_30
REMARK    6  A    between atoms: C_30  and  C_31
REMARK                            x       y       z     vdW  Elec       q    Type
REMARK                         _______ _______ _______ _____ _____    ______ ____
ROOT
ATOM      5  C   UNL     1      -2.501   2.659  24.939  0.00  0.00    +0.162 C 
ATOM      6  C   UNL     1      -3.088   3.199  25.145  0.00  0.00    +0.055 C 
ATOM      7  C   UNL     1      -3.879   2.966  25.153  0.00  0.00    -0.004 A 
ATOM      8  C   UNL     1      -4.084   2.192  24.954  0.00  0.00    +0.070 A 
ATOM      9  N   UNL     1      -4.903   2.122  25.010  0.00  0.00    -0.249 NA
ATOM     10  C   UNL     1      -5.207   2.852  25.244  0.00  0.00    +0.081 A 
ATOM     11  C   UNL     1      -4.573   3.374  25.332  0.00  0.00    +0.015 A 
ATOM     12  C   UNL     1      -4.711   4.154  25.565  0.00  0.00    +0.001 A 
ATOM     13  C   UNL     1      -5.482   4.412  25.709  0.00  0.00    +0.000 A 
ATOM     14  C   UNL     1      -6.115   3.889  25.620  0.00  0.00    +0.002 A 
ATOM     15  C   UNL     1      -5.977   3.109  25.388  0.00  0.00    +0.019 A 
ATOM     16  C   UNL     1      -3.496   1.650  24.747  0.00  0.00    +0.100 C 
ATOM     17  C   UNL     1      -3.699   0.876  24.548  0.00  0.00    +0.040 C 
ATOM     18  C   UNL     1      -3.112   0.336  24.341  0.00  0.00    +0.077 C 
ATOM     19  C   UNL     1      -2.320   0.569  24.334  0.00  0.00    +0.038 C 
ATOM     20  C   UNL     1      -2.118   1.343  24.533  0.00  0.00    +0.082 C 
ATOM     21  N   UNL     1      -2.705   1.884  24.739  0.00  0.00    -0.258 NA
ENDROOT
BRANCH  20  22
ATOM     22  C   UNL     1      -1.326   1.576  24.525  0.00  0.00    -0.008 A 
ATOM     23  C   UNL     1      -0.992   1.880  23.835  0.00  0.00    -0.001 A 
ATOM     24  C   UNL     1      -0.200   2.113  23.828  0.00  0.00    +0.029 A 
ATOM     25  C   UNL     1       0.257   2.040  24.511  0.00  0.00    +0.140 A 
ATOM     26  F   UNL     1       1.049   2.273  24.503  0.00  0.00    -0.204 F 
ATOM     27  C   UNL     1      -0.076   1.736  25.201  0.00  0.00    +0.029 A 
ATOM     28  C   UNL     1      -0.868   1.504  25.208  0.00  0.00    -0.001 A 
ENDBRANCH  20  22
BRANCH   5   3
ATOM      3  C   UNL     1      -1.710   2.892  24.931  0.00  0.00    +0.332 C 
ATOM      4  O   UNL     1      -0.931   2.908  24.657  0.00  0.00    -0.249 OA
BRANCH   3   2
ATOM      1  C   UNL     1      -1.335   4.222  25.294  0.00  0.00    +0.256 C 
ATOM      2  O   UNL     1      -1.431   3.428  25.493  0.00  0.00    -0.443 OA
ENDBRANCH   3   2
ENDBRANCH   5   3
BRANCH  18  29
ATOM     29  N   UNL     1      -3.315  -0.439  24.142  0.00  0.00    -0.215 NA
BRANCH  29  30
ATOM     30  C   UNL     1      -3.547  -0.969  24.731  0.00  0.00    +0.116 C 
BRANCH  30  31
ATOM     31  C   UNL     1      -3.650  -1.767  24.550  0.00  0.00    +0.014 A 
ATOM     32  C   UNL     1      -3.240  -2.342  24.976  0.00  0.00    +0.000 A 
ATOM     33  C   UNL     1      -3.343  -3.141  24.795  0.00  0.00    +0.020 A 
ATOM     34  C   UNL     1      -3.856  -3.364  24.188  0.00  0.00    +0.099 A 
ATOM     35  N   UNL     1      -4.266  -2.788  23.762  0.00  0.00    -0.243 NA
ATOM     36  C   UNL     1      -4.163  -1.989  23.943  0.00  0.00    +0.096 A 
ENDBRANCH  30  31
ENDBRANCH  29  30
ENDBRANCH  18  29
TORSDOF 6
ENDMDL
MODEL 4
REMARK VINA RESULT:     -11.9      2.298      3.199
REMARK  Name = 
REMARK  6 active torsions:
REMARK  status: ('A' for Active; 'I' for Inactive)
REMARK    1  A    between atoms: O_2  and  C_3
REMARK    2  A    between atoms: C_3  and  C_5
REMARK    3  A    between atoms: C_18  and  N_29
REMARK    4  A    between atoms: C_20  and  C_22
REMARK    5  A    between atoms: N_29  and  C_30
REMARK    6  A    between atoms: C_30  and  C_31
REMARK                            x       y       z     vdW  Elec       q    Type
REMARK                         _______ _______ _______ _____ _____    ______ ____
ROOT
ATOM      5  C   UNL     1      -3.101   1.161  24.945  0.00  0.00    +0.162 C 
ATOM      6  C   UNL     1      -3.259   1.937  25.173  0.00  0.00    +0.055 C 
ATOM      7  C   UNL     1      -2.656   2.500  25.170  0.00  0.00    -0.004 A 
ATOM      8  C   UNL     1      -1.893   2.286  24.939  0.00  0.00    +0.070 A 
ATOM      9  N   UNL     1      -1.414   2.955  24.990  0.00  0.00    -0.249 NA
ATOM     10  C   UNL     1      -1.879   3.583  25.254  0.00  0.00    +0.081 A 
ATOM     11  C   UNL     1      -2.647   3.301  25.365  0.00  0.00    +0.015 A 
ATOM     12  C   UNL     1      -3.239   3.811  25.629  0.00  0.00    +0.001 A 
ATOM     13  C   UNL     1      -3.064   4.603  25.783  0.00  0.00    +0.000 A 
ATOM     14  C   UNL     1      -2.295   4.885  25.672  0.00  0.00    +0.002 A 
ATOM     15  C   UNL     1      -1.703   4.374  25.407  0.00  0.00    +0.019 A 
ATOM     16  C   UNL     1      -1.734   1.509  24.710  0.00  0.00    +0.100 C 
ATOM     17  C   UNL     1      -0.973   1.294  24.479  0.00  0.00    +0.040 C 
ATOM     18  C   UNL     1      -0.814   0.518  24.251  0.00  0.00    +0.077 C 
ATOM     19  C   UNL     1      -1.418  -0.045  24.254  0.00  0.00    +0.038 C 
ATOM     20  C   UNL     1      -2.179   0.170  24.486  0.00  0.00    +0.082 C 
ATOM     21  N   UNL     1      -2.338   0.946  24.714  0.00  0.00    -0.258 NA
ENDROOT
BRANCH  20  22
ATOM     22  C   UNL     1      -2.783  -0.393  24.489  0.00  0.00    -0.008 A 
ATOM     23  C   UNL     1      -2.918  -0.850  25.162  0.00  0.00    -0.001 A 
ATOM     24  C   UNL     1      -3.521  -1.412  25.164  0.00  0.00    +0.029 A 
ATOM     25  C   UNL     1      -3.989  -1.518  24.492  0.00  0.00    +0.140 A 
ATOM     26  F   UNL     1      -4.593  -2.082  24.496  0.00  0.00    -0.204 F 
ATOM     27  C   UNL     1      -3.854  -1.062  23.819  0.00  0.00    +0.029 A 
ATOM     28  C   UNL     1      -3.251  -0.499  23.817  0.00  0.00    -0.001 A 
ENDBRANCH  20  22
BRANCH   5   3
ATOM      3  C   UNL     1      -3.704   0.599  24.949  0.00  0.00    +0.332 C 
ATOM      4  O   UNL     1      -4.043  -0.142  25.080  0.00  0.00    -0.249 OA
BRANCH   3   2
ATOM      1  C   UNL     1      -5.048   1.001  25.216  0.00  0.00    +0.256 C 
ATOM      2  O   UNL     1      -4.457   0.799  24.678  0.00  0.00    -0.443 OA
ENDBRANCH   3   2
ENDBRANCH   5   3
BRANCH  18  29
ATOM     29  N   UNL     1      -0.051   0.303  24.019  0.00  0.00    -0.215 NA
BRANCH  29  30
ATOM     30  C   UNL     1       0.206   0.461  23.251  0.00  0.00    +0.116 C 
BRANCH  30  31
ATOM     31  C   UNL     1       0.997   0.340  23.048  0.00  0.00    +0.014 A 
ATOM     32  C   UNL     1       1.200  -0.267  22.528  0.00  0.00    +0.000 A 
ATOM     33  C   UNL     1       1.990  -0.388  22.325  0.00  0.00    +0.020 A 
ATOM     34  C   UNL     1       2.577   0.098  22.642  0.00  0.00    +0.099 A 
ATOM     35  N   UNL     1       2.373   0.704  23.163  0.00  0.00    -0.243 NA
ATOM     36  C   UNL     1       1.583   0.826  23.366  0.00  0.00    +0.096 A 
ENDBRANCH  30  31
ENDBRANCH  29  30
ENDBRANCH  18  29
TORSDOF 6
ENDMDL
MODEL 5
REMARK VINA RESULT:     -11.9      1.438      2.058
REMARK  Name = 
REMARK  6 active torsions:
REMARK  status: ('A' for Active; 'I' for Inactive)
REMARK    1  A    between atoms: O_2  and  C_3
REMARK    2  A    between atoms: C_3  and  C_5
REMARK    3  A    between atoms: C_18  and  N_29
REMARK    4  A    between atoms: C_20  and  C_22
REMARK    5  A    between atoms: N_29  and  C_30
REMARK    6  A    between atoms: C_30  and  C_31
REMARK                            x       y       z     vdW  Elec       q    Type
REMARK                         _______ _______ _______ _____ _____    ______ ____
ROOT
ATOM      5  C   UNL     1      -2.756   2.688  24.824  0.00  0.00    +0.162 C 
ATOM      6  C   UNL     1      -1.943   2.800  24.748  0.00  0.00    +0.055 C 
ATOM      7  C   UNL     1      -1.460   2.173  24.515  0.00  0.00    -0.004 A 
ATOM      8  C   UNL     1      -1.790   1.433  24.359  0.00  0.00    +0.070 A 
ATOM      9  N   UNL     1      -1.180   0.923  24.142  0.00  0.00    -0.249 NA
ATOM     10  C   UNL     1      -0.472   1.345  24.163  0.00  0.00    +0.081 A 
ATOM     11  C   UNL     1      -0.645   2.119  24.394  0.00  0.00    +0.015 A 
ATOM     12  C   UNL     1      -0.039   2.674  24.464  0.00  0.00    +0.001 A 
ATOM     13  C   UNL     1       0.741   2.456  24.303  0.00  0.00    +0.000 A 
ATOM     14  C   UNL     1       0.914   1.682  24.072  0.00  0.00    +0.002 A 
ATOM     15  C   UNL     1       0.307   1.127  24.002  0.00  0.00    +0.019 A 
ATOM     16  C   UNL     1      -2.604   1.320  24.436  0.00  0.00    +0.100 C 
ATOM     17  C   UNL     1      -2.935   0.581  24.280  0.00  0.00    +0.040 C 
ATOM     18  C   UNL     1      -3.748   0.469  24.356  0.00  0.00    +0.077 C 
ATOM     19  C   UNL     1      -4.231   1.096  24.589  0.00  0.00    +0.038 C 
ATOM     20  C   UNL     1      -3.900   1.835  24.744  0.00  0.00    +0.082 C 
ATOM     21  N   UNL     1      -3.087   1.948  24.668  0.00  0.00    -0.258 NA
ENDROOT
BRANCH  20  22
ATOM     22  C   UNL     1      -4.384   2.462  24.977  0.00  0.00    -0.008 A 
ATOM     23  C   UNL     1      -4.566   2.570  25.773  0.00  0.00    -0.001 A 
ATOM     24  C   UNL     1      -5.050   3.197  26.005  0.00  0.00    +0.029 A 
ATOM     25  C   UNL     1      -5.351   3.716  25.438  0.00  0.00    +0.140 A 
ATOM     26  F   UNL     1      -5.836   4.343  25.671  0.00  0.00    -0.204 F 
ATOM     27  C   UNL     1      -5.170   3.608  24.642  0.00  0.00    +0.029 A 
ATOM     28  C   UNL     1      -4.686   2.981  24.410  0.00  0.00    -0.001 A 
ENDBRANCH  20  22
BRANCH   5   3
ATOM      3  C   UNL     1      -3.239   3.315  25.056  0.00  0.00    +0.332 C 
ATOM      4  O   UNL     1      -3.905   3.801  25.034  0.00  0.00    -0.249 OA
BRANCH   3   2
ATOM      1  C   UNL     1      -2.634   4.530  25.499  0.00  0.00    +0.256 C 
ATOM      2  O   UNL     1      -3.003   3.813  25.670  0.00  0.00    -0.443 OA
ENDBRANCH   3   2
ENDBRANCH   5   3
BRANCH  18  29
ATOM     29  N   UNL     1      -4.079  -0.271  24.200  0.00  0.00    -0.215 NA
BRANCH  29  30
ATOM     30  C   UNL     1      -4.018  -0.876  24.758  0.00  0.00    +0.116 C 
BRANCH  30  31
ATOM     31  C   UNL     1      -3.967  -1.662  24.511  0.00  0.00    +0.014 A 
ATOM     32  C   UNL     1      -3.505  -2.197  24.935  0.00  0.00    +0.000 A 
ATOM     33  C   UNL     1      -3.453  -2.983  24.688  0.00  0.00    +0.020 A 
ATOM     34  C   UNL     1      -3.865  -3.232  24.018  0.00  0.00    +0.099 A 
ATOM     35  N   UNL     1      -4.327  -2.696  23.594  0.00  0.00    -0.243 NA
ATOM     36  C   UNL     1      -4.379  -1.910  23.841  0.00  0.00    +0.096 A 
ENDBRANCH  30  31
ENDBRANCH  29  30
ENDBRANCH  18  29
TORSDOF 6
ENDMDL
MODEL 6
REMARK VINA RESULT:     -11.8      2.447      5.650
REMARK  Name = 
REMARK  6 active torsions:
REMARK  status: ('A' for Active; 'I' for Inactive)
REMARK    1  A    between atoms: O_2  and  C_3
REMARK    2  A    between atoms: C_3  and  C_5
REMARK    3  A    between atoms: C_18  and  N_29
REMARK    4  A    between atoms: C_20  and  C_22
REMARK    5  A    between atoms: N_29  and  C_30
REMARK    6  A    between atoms: C_30  and  C_31
REMARK                            x       y       z     vdW  Elec       q    Type
REMARK                         _______ _______ _______ _____ _____    ______ ____
ROOT
ATOM      5  C   UNL     1      -1.728  -0.023  24.593  0.00  0.00    +0.162 C 
ATOM      6  C   UNL     1      -1.917  -0.820  24.501  0.00  0.00    +0.055 C 
ATOM      7  C   UNL     1      -2.707  -1.052  24.449  0.00  0.00    -0.004 A 
ATOM      8  C   UNL     1      -3.308  -0.488  24.491  0.00  0.00    +0.070 A 
ATOM      9  N   UNL     1      -4.030  -0.879  24.424  0.00  0.00    -0.249 NA
ATOM     10  C   UNL     1      -3.878  -1.686  24.342  0.00  0.00    +0.081 A 
ATOM     11  C   UNL     1      -3.059  -1.793  24.358  0.00  0.00    +0.015 A 
ATOM     12  C   UNL     1      -2.741  -2.551  24.286  0.00  0.00    +0.001 A 
ATOM     13  C   UNL     1      -3.241  -3.202  24.199  0.00  0.00    +0.000 A 
ATOM     14  C   UNL     1      -4.060  -3.094  24.183  0.00  0.00    +0.002 A 
ATOM     15  C   UNL     1      -4.378  -2.336  24.255  0.00  0.00    +0.019 A 
ATOM     16  C   UNL     1      -3.118   0.310  24.583  0.00  0.00    +0.100 C 
ATOM     17  C   UNL     1      -3.717   0.875  24.625  0.00  0.00    +0.040 C 
ATOM     18  C   UNL     1      -3.527   1.671  24.717  0.00  0.00    +0.077 C 
ATOM     19  C   UNL     1      -2.737   1.904  24.769  0.00  0.00    +0.038 C 
ATOM     20  C   UNL     1      -2.138   1.339  24.727  0.00  0.00    +0.082 C 
ATOM     21  N   UNL     1      -2.328   0.542  24.635  0.00  0.00    -0.258 NA
ENDROOT
BRANCH  20  22
ATOM     22  C   UNL     1      -1.348   1.573  24.779  0.00  0.00    -0.008 A 
ATOM     23  C   UNL     1      -0.975   1.610  25.513  0.00  0.00    -0.001 A 
ATOM     24  C   UNL     1      -0.186   1.843  25.564  0.00  0.00    +0.029 A 
ATOM     25  C   UNL     1       0.231   2.040  24.879  0.00  0.00    +0.140 A 
ATOM     26  F   UNL     1       1.021   2.274  24.930  0.00  0.00    -0.204 F 
ATOM     27  C   UNL     1      -0.141   2.003  24.144  0.00  0.00    +0.029 A 
ATOM     28  C   UNL     1      -0.931   1.769  24.094  0.00  0.00    -0.001 A 
ENDBRANCH  20  22
BRANCH   5   3
ATOM      3  C   UNL     1      -0.938   0.210  24.645  0.00  0.00    +0.332 C 
ATOM      4  O   UNL     1      -0.294   0.632  24.942  0.00  0.00    -0.249 OA
BRANCH   3   2
ATOM      1  C   UNL     1       0.085  -0.754  24.390  0.00  0.00    +0.256 C 
ATOM      2  O   UNL     1      -0.376  -0.119  24.138  0.00  0.00    -0.443 OA
ENDBRANCH   3   2
ENDBRANCH   5   3
BRANCH  18  29
ATOM     29  N   UNL     1      -4.127   2.237  24.759  0.00  0.00    -0.215 NA
BRANCH  29  30
ATOM     30  C   UNL     1      -4.345   2.555  25.488  0.00  0.00    +0.116 C 
BRANCH  30  31
ATOM     31  C   UNL     1      -4.922   3.143  25.526  0.00  0.00    +0.014 A 
ATOM     32  C   UNL     1      -4.729   3.922  25.334  0.00  0.00    +0.000 A 
ATOM     33  C   UNL     1      -5.307   4.510  25.372  0.00  0.00    +0.020 A 
ATOM     34  C   UNL     1      -6.076   4.320  25.602  0.00  0.00    +0.099 A 
ATOM     35  N   UNL     1      -6.268   3.540  25.793  0.00  0.00    -0.243 NA
ATOM     36  C   UNL     1      -5.691   2.952  25.755  0.00  0.00    +0.096 A 
ENDBRANCH  30  31
ENDBRANCH  29  30
ENDBRANCH  18  29
TORSDOF 6
ENDMDL
MODEL 7
REMARK VINA RESULT:     -11.6      2.312      4.516
REMARK  Name = 
REMARK  6 active torsions:
REMARK  status: ('A' for Active; 'I' for Inactive)
REMARK    1  A    between atoms: O_2  and  C_3
REMARK    2  A    between atoms: C_3  and  C_5
REMARK    3  A    between atoms: C_18  and  N_29
REMARK    4  A    between atoms: C_20  and  C_22
REMARK    5  A    between atoms: N_29  and  C_30
REMARK    6  A    between atoms: C_30  and  C_31
REMARK                            x       y       z     vdW  Elec       q    Type
REMARK                         _______ _______ _______ _____ _____    ______ ____
ROOT
ATOM      5  C   UNL     1      -3.018   0.701  24.592  0.00  0.00    +0.162 C 
ATOM      6  C   UNL     1      -3.381  -0.034  24.680  0.00  0.00    +0.055 C 
ATOM      7  C   UNL     1      -2.938  -0.725  24.594  0.00  0.00    -0.004 A 
ATOM      8  C   UNL     1      -2.133  -0.681  24.421  0.00  0.00    +0.070 A 
ATOM      9  N   UNL     1      -1.840  -1.450  24.368  0.00  0.00    -0.249 NA
ATOM     10  C   UNL     1      -2.464  -1.971  24.510  0.00  0.00    +0.081 A 
ATOM     11  C   UNL     1      -3.143  -1.522  24.649  0.00  0.00    +0.015 A 
ATOM     12  C   UNL     1      -3.860  -1.898  24.808  0.00  0.00    +0.001 A 
ATOM     13  C   UNL     1      -3.898  -2.723  24.828  0.00  0.00    +0.000 A 
ATOM     14  C   UNL     1      -3.219  -3.171  24.688  0.00  0.00    +0.002 A 
ATOM     15  C   UNL     1      -2.502  -2.795  24.529  0.00  0.00    +0.019 A 
ATOM     16  C   UNL     1      -1.770   0.055  24.332  0.00  0.00    +0.100 C 
ATOM     17  C   UNL     1      -0.965   0.101  24.159  0.00  0.00    +0.040 C 
ATOM     18  C   UNL     1      -0.602   0.836  24.071  0.00  0.00    +0.077 C 
ATOM     19  C   UNL     1      -1.045   1.527  24.156  0.00  0.00    +0.038 C 
ATOM     20  C   UNL     1      -1.850   1.481  24.330  0.00  0.00    +0.082 C 
ATOM     21  N   UNL     1      -2.212   0.746  24.418  0.00  0.00    -0.258 NA
ENDROOT
BRANCH  20  22
ATOM     22  C   UNL     1      -2.292   2.173  24.415  0.00  0.00    -0.008 A 
ATOM     23  C   UNL     1      -2.346   2.541  25.151  0.00  0.00    -0.001 A 
ATOM     24  C   UNL     1      -2.788   3.232  25.236  0.00  0.00    +0.029 A 
ATOM     25  C   UNL     1      -3.177   3.555  24.583  0.00  0.00    +0.140 A 
ATOM     26  F   UNL     1      -3.619   4.247  24.669  0.00  0.00    -0.204 F 
ATOM     27  C   UNL     1      -3.124   3.188  23.848  0.00  0.00    +0.029 A 
ATOM     28  C   UNL     1      -2.681   2.496  23.763  0.00  0.00    -0.001 A 
ENDBRANCH  20  22
BRANCH   5   3
ATOM      3  C   UNL     1      -3.461   1.392  24.677  0.00  0.00    +0.332 C 
ATOM      4  O   UNL     1      -3.604   2.172  24.906  0.00  0.00    -0.249 OA
BRANCH   3   2
ATOM      1  C   UNL     1      -4.866   1.338  24.926  0.00  0.00    +0.256 C 
ATOM      2  O   UNL     1      -4.237   1.422  24.400  0.00  0.00    -0.443 OA
ENDBRANCH   3   2
ENDBRANCH   5   3
BRANCH  18  29
ATOM     29  N   UNL     1       0.203   0.881  23.897  0.00  0.00    -0.215 NA
BRANCH  29  30
ATOM     30  C   UNL     1       0.513   0.455  23.262  0.00  0.00    +0.116 C 
BRANCH  30  31
ATOM     31  C   UNL     1       1.320   0.490  23.096  0.00  0.00    +0.014 A 
ATOM     32  C   UNL     1       1.657  -0.052  22.574  0.00  0.00    +0.000 A 
ATOM     33  C   UNL     1       2.465  -0.017  22.408  0.00  0.00    +0.020 A 
ATOM     34  C   UNL     1       2.935   0.561  22.764  0.00  0.00    +0.099 A 
ATOM     35  N   UNL     1       2.597   1.103  23.286  0.00  0.00    -0.243 NA
ATOM     36  C   UNL     1       1.789   1.067  23.452  0.00  0.00    +0.096 A 
ENDBRANCH  30  31
ENDBRANCH  29  30
ENDBRANCH  18  29
TORSDOF 6
ENDMDL
