MODEL 1
REMARK VINA RESULT:     -12.3      0.000      0.000
REMARK  Name = 
REMARK  5 active torsions:
REMARK  status: ('A' for Active; 'I' for Inactive)
REMARK    1  A    between atoms: O_2  and  C_3
REMARK    2  A    between atoms: C_6  and  C_7
REMARK    3  A    between atoms: C_7  and  N_8
REMARK    4  A    between atoms: C_15  and  C_22
REMARK    5  A    between atoms: C_25  and  O_26
REMARK                            x       y       z     vdW  Elec       q    Type
REMARK                         _______ _______ _______ _____ _____    ______ ____
ROOT
ATOM      8  N   UNL     1      -2.419   1.894  24.564  0.00  0.00    -0.269 NA
ATOM      9  C   UNL     1      -3.082   1.963  24.061  0.00  0.00    +0.074 C 
ATOM     10  C   UNL     1      -3.369   1.018  24.033  0.00  0.00    +0.039 C 
ATOM     11  C   UNL     1      -3.727   0.297  23.909  0.00  0.00    +0.011 C 
ATOM     12  C   UNL     1      -3.178   0.548  24.266  0.00  0.00    +0.054 C 
ATOM     13  C   UNL     1      -2.914   1.466  24.282  0.00  0.00    +0.078 C 
ATOM     14  C   UNL     1      -2.496   0.281  24.821  0.00  0.00    +0.041 A 
ATOM     15  C   UNL     1      -2.190  -0.396  25.179  0.00  0.00    +0.012 A 
ATOM     16  C   UNL     1      -1.522  -0.342  25.661  0.00  0.00    +0.006 A 
ATOM     17  C   UNL     1      -1.162   0.390  25.785  0.00  0.00    +0.061 A 
ATOM     18  C   UNL     1      -1.468   1.067  25.427  0.00  0.00    +0.261 A 
ATOM     19  O   UNL     1      -1.107   1.799  25.551  0.00  0.00    -0.267 OA
ATOM     20  N   UNL     1      -2.135   1.012  24.945  0.00  0.00    -0.299 N 
ATOM     21  C   UNL     1      -2.653   0.748  24.614  0.00  0.00    +0.110 C 
ENDROOT
BRANCH  15  22
ATOM     22  C   UNL     1      -2.551  -1.128  25.055  0.00  0.00    +0.001 A 
ATOM     23  C   UNL     1      -2.281  -1.624  24.454  0.00  0.00    +0.003 A 
ATOM     24  C   UNL     1      -2.642  -2.356  24.330  0.00  0.00    +0.037 A 
ATOM     25  C   UNL     1      -3.272  -2.591  24.807  0.00  0.00    +0.139 A 
ATOM     28  C   UNL     1      -3.542  -2.095  25.408  0.00  0.00    +0.037 A 
ATOM     29  C   UNL     1      -3.181  -1.363  25.532  0.00  0.00    +0.003 A 
BRANCH  25  26
ATOM     26  O   UNL     1      -3.633  -3.322  24.683  0.00  0.00    -0.471 OA
ATOM     27  C   UNL     1      -4.073  -3.454  23.997  0.00  0.00    +0.252 C 
ENDBRANCH  25  26
ENDBRANCH  15  22
BRANCH   8   7
ATOM      7  C   UNL     1      -1.761   2.123  25.006  0.00  0.00    +0.099 C 
BRANCH   7   6
ATOM      3  C   UNL     1      -1.075   4.501  25.060  0.00  0.00    +0.139 A 
ATOM      4  C   UNL     1      -0.698   3.975  24.550  0.00  0.00    +0.037 A 
ATOM      5  C   UNL     1      -0.926   3.182  24.531  0.00  0.00    +0.000 A 
ATOM      6  C   UNL     1      -1.533   2.916  25.024  0.00  0.00    -0.006 A 
ATOM     30  C   UNL     1      -1.910   3.442  25.535  0.00  0.00    +0.000 A 
ATOM     31  C   UNL     1      -1.681   4.235  25.553  0.00  0.00    +0.037 A 
BRANCH   3   2
ATOM      1  C   UNL     1      -1.401   5.887  24.930  0.00  0.00    +0.252 C 
ATOM      2  O   UNL     1      -0.847   5.294  25.079  0.00  0.00    -0.471 OA
ENDBRANCH   3   2
ENDBRANCH   7   6
ENDBRANCH   8   7
TORSDOF 5
ENDMDL
MODEL 2
REMARK VINA RESULT:     -11.9      0.558      5.173
REMARK  Name = 
REMARK  5 active torsions:
REMARK  status: ('A' for Active; 'I' for Inactive)
REMARK    1  A    between atoms: O_2  and  C_3
REMARK    2  A    between atoms: C_6  and  C_7
REMARK    3  A    between atoms: C_7  and  N_8
REMARK    4  A    between atoms: C_15  and  C_22
REMARK    5  A    between atoms: C_25  and  O_26
REMARK                            x       y       z     vdW  Elec       q    Type
REMARK                         _______ _______ _______ _____ _____    ______ ____
ROOT
ATOM      8  N   UNL     1      -2.882   0.479  24.560  0.00  0.00    -0.269 NA
ATOM      9  C   UNL     1      -3.483   0.830  24.098  0.00  0.00    +0.074 C 
ATOM     10  C   UNL     1      -3.184   1.772  24.124  0.00  0.00    +0.039 C 
ATOM     11  C   UNL     1      -3.075   2.575  24.050  0.00  0.00    +0.011 C 
ATOM     12  C   UNL     1      -2.753   2.035  24.361  0.00  0.00    +0.054 C 
ATOM     13  C   UNL     1      -3.055   1.130  24.327  0.00  0.00    +0.078 C 
ATOM     14  C   UNL     1      -2.022   1.833  24.881  0.00  0.00    +0.041 A 
ATOM     15  C   UNL     1      -1.375   2.193  25.244  0.00  0.00    +0.012 A 
ATOM     16  C   UNL     1      -0.841   1.740  25.679  0.00  0.00    +0.006 A 
ATOM     17  C   UNL     1      -0.955   0.926  25.753  0.00  0.00    +0.061 A 
ATOM     18  C   UNL     1      -1.602   0.565  25.390  0.00  0.00    +0.261 A 
ATOM     19  O   UNL     1      -1.716  -0.249  25.464  0.00  0.00    -0.267 OA
ATOM     20  N   UNL     1      -2.136   1.019  24.955  0.00  0.00    -0.299 N 
ATOM     21  C   UNL     1      -2.423   1.551  24.668  0.00  0.00    +0.110 C 
ENDROOT
BRANCH  15  22
ATOM     22  C   UNL     1      -1.262   3.007  25.170  0.00  0.00    +0.001 A 
ATOM     23  C   UNL     1      -1.644   3.525  25.686  0.00  0.00    +0.003 A 
ATOM     24  C   UNL     1      -1.531   4.339  25.612  0.00  0.00    +0.037 A 
ATOM     25  C   UNL     1      -1.034   4.635  25.024  0.00  0.00    +0.139 A 
ATOM     28  C   UNL     1      -0.651   4.117  24.509  0.00  0.00    +0.037 A 
ATOM     29  C   UNL     1      -0.765   3.303  24.582  0.00  0.00    +0.003 A 
BRANCH  25  26
ATOM     26  O   UNL     1      -0.921   5.448  24.950  0.00  0.00    -0.471 OA
ATOM     27  C   UNL     1      -1.571   5.957  24.937  0.00  0.00    +0.252 C 
ENDBRANCH  25  26
ENDBRANCH  15  22
BRANCH   8   7
ATOM      7  C   UNL     1      -2.456  -0.111  24.949  0.00  0.00    +0.099 C 
BRANCH   7   6
ATOM      3  C   UNL     1      -3.242  -2.456  24.877  0.00  0.00    +0.139 A 
ATOM      4  C   UNL     1      -3.556  -1.933  25.432  0.00  0.00    +0.037 A 
ATOM      5  C   UNL     1      -3.294  -1.151  25.456  0.00  0.00    +0.000 A 
ATOM      6  C   UNL     1      -2.717  -0.892  24.925  0.00  0.00    -0.006 A 
ATOM     30  C   UNL     1      -2.403  -1.416  24.371  0.00  0.00    +0.000 A 
ATOM     31  C   UNL     1      -2.665  -2.198  24.347  0.00  0.00    +0.037 A 
BRANCH   3   2
ATOM      1  C   UNL     1      -3.909  -3.518  24.192  0.00  0.00    +0.252 C 
ATOM      2  O   UNL     1      -3.504  -3.239  24.853  0.00  0.00    -0.471 OA
ENDBRANCH   3   2
ENDBRANCH   7   6
ENDBRANCH   8   7
TORSDOF 5
ENDMDL
