MODEL 1
REMARK VINA RESULT:     -10.7      0.000      0.000
REMARK  Name = 
REMARK  3 active torsions:
REMARK  status: ('A' for Active; 'I' for Inactive)
REMARK    1  A    between atoms: C_6  and  C_7
REMARK    2  A    between atoms: C_16  and  N_24
REMARK    3  A    between atoms: C_25  and  C_27
REMARK                            x       y       z     vdW  Elec       q    Type
REMARK                         _______ _______ _______ _____ _____    ______ ____
ROOT
ATOM      7  C   UNL     1      -3.852   2.470  24.766  0.00  0.00    -0.000 A 
ATOM      8  C   UNL     1      -3.670   3.270  24.689  0.00  0.00    +0.001 A 
ATOM      9  C   UNL     1      -2.895   3.503  24.528  0.00  0.00    +0.017 A 
ATOM     10  C   UNL     1      -2.303   2.936  24.443  0.00  0.00    +0.078 A 
ATOM     11  N   UNL     1      -1.572   3.284  24.284  0.00  0.00    -0.178 NA
ATOM     12  C   UNL     1      -0.843   2.918  24.162  0.00  0.00    +0.264 C 
ATOM     13  O   UNL     1      -0.209   3.423  24.014  0.00  0.00    -0.271 OA
ATOM     14  C   UNL     1      -0.664   2.112  24.170  0.00  0.00    +0.156 C 
ATOM     15  C   UNL     1       0.136   1.979  24.022  0.00  0.00    +0.051 C 
ATOM     16  C   UNL     1       0.430   1.209  24.005  0.00  0.00    +0.100 C 
ATOM     17  C   UNL     1      -0.076   0.571  24.136  0.00  0.00    +0.043 C 
ATOM     18  C   UNL     1      -0.877   0.704  24.284  0.00  0.00    +0.096 C 
ATOM     19  N   UNL     1      -1.171   1.475  24.301  0.00  0.00    -0.269 N 
ATOM     20  C   UNL     1      -1.981   1.484  24.456  0.00  0.00    +0.251 C 
ATOM     21  O   UNL     1      -2.334   0.747  24.563  0.00  0.00    -0.270 OA
ATOM     22  C   UNL     1      -2.485   2.135  24.520  0.00  0.00    +0.069 A 
ATOM     23  C   UNL     1      -3.259   1.902  24.681  0.00  0.00    +0.006 A 
ENDROOT
BRANCH   7   6
ATOM      1  C   UNL     1      -6.169   2.565  26.437  0.00  0.00    +0.031 C 
ATOM      2  C   UNL     1      -5.786   2.283  25.763  0.00  0.00    -0.026 A 
ATOM      3  C   UNL     1      -6.176   1.768  25.250  0.00  0.00    -0.005 A 
ATOM      4  C   UNL     1      -5.792   1.487  24.576  0.00  0.00    -0.000 A 
ATOM      5  C   UNL     1      -5.017   1.721  24.415  0.00  0.00    -0.000 A 
ATOM      6  C   UNL     1      -4.626   2.236  24.928  0.00  0.00    -0.004 A 
ATOM     33  C   UNL     1      -5.011   2.517  25.602  0.00  0.00    -0.026 A 
ATOM     34  C   UNL     1      -4.620   3.033  26.115  0.00  0.00    +0.031 C 
ENDBRANCH   7   6
BRANCH  16  24
ATOM     24  N   UNL     1       1.231   1.076  23.858  0.00  0.00    -0.202 NA
ATOM     25  C   UNL     1       1.463   0.659  23.184  0.00  0.00    +0.284 C 
ATOM     26  O   UNL     1       0.894   0.376  22.658  0.00  0.00    -0.267 OA
BRANCH  25  27
ATOM     27  C   UNL     1       2.263   0.526  23.036  0.00  0.00    +0.155 A 
ATOM     28  C   UNL     1       2.531  -0.235  22.867  0.00  0.00    +0.123 A 
ATOM     29  N   UNL     1       3.332  -0.368  22.720  0.00  0.00    -0.239 NA
ATOM     30  C   UNL     1       3.865   0.261  22.741  0.00  0.00    +0.120 A 
ATOM     31  C   UNL     1       3.597   1.023  22.910  0.00  0.00    +0.120 A 
ATOM     32  N   UNL     1       2.797   1.155  23.058  0.00  0.00    -0.236 NA
ENDBRANCH  25  27
ENDBRANCH  16  24
TORSDOF 3
ENDMDL
MODEL 2
REMARK VINA RESULT:     -10.5      1.077      1.904
REMARK  Name = 
REMARK  3 active torsions:
REMARK  status: ('A' for Active; 'I' for Inactive)
REMARK    1  A    between atoms: C_6  and  C_7
REMARK    2  A    between atoms: C_16  and  N_24
REMARK    3  A    between atoms: C_25  and  C_27
REMARK                            x       y       z     vdW  Elec       q    Type
REMARK                         _______ _______ _______ _____ _____    ______ ____
ROOT
ATOM      7  C   UNL     1      -3.755   1.127  25.075  0.00  0.00    -0.000 A 
ATOM      8  C   UNL     1      -3.782   0.362  25.381  0.00  0.00    +0.001 A 
ATOM      9  C   UNL     1      -3.138  -0.144  25.284  0.00  0.00    +0.017 A 
ATOM     10  C   UNL     1      -2.467   0.114  24.880  0.00  0.00    +0.078 A 
ATOM     11  N   UNL     1      -1.891  -0.475  24.845  0.00  0.00    -0.178 NA
ATOM     12  C   UNL     1      -1.145  -0.444  24.495  0.00  0.00    +0.264 C 
ATOM     13  O   UNL     1      -0.693  -1.132  24.554  0.00  0.00    -0.271 OA
ATOM     14  C   UNL     1      -0.790   0.183  24.092  0.00  0.00    +0.156 C 
ATOM     15  C   UNL     1      -0.035  -0.017  23.827  0.00  0.00    +0.051 C 
ATOM     16  C   UNL     1       0.415   0.535  23.410  0.00  0.00    +0.100 C 
ATOM     17  C   UNL     1       0.110   1.286  23.260  0.00  0.00    +0.043 C 
ATOM     18  C   UNL     1      -0.644   1.486  23.525  0.00  0.00    +0.096 C 
ATOM     19  N   UNL     1      -1.095   0.935  23.942  0.00  0.00    -0.269 N 
ATOM     20  C   UNL     1      -1.829   1.245  24.155  0.00  0.00    +0.251 C 
ATOM     21  O   UNL     1      -1.971   2.023  23.921  0.00  0.00    -0.270 OA
ATOM     22  C   UNL     1      -2.440   0.879  24.573  0.00  0.00    +0.069 A 
ATOM     23  C   UNL     1      -3.083   1.386  24.670  0.00  0.00    +0.006 A 
ENDROOT
BRANCH   7   6
ATOM      1  C   UNL     1      -6.536   1.690  24.736  0.00  0.00    +0.031 C 
ATOM      2  C   UNL     1      -5.789   1.916  25.003  0.00  0.00    -0.026 A 
ATOM      3  C   UNL     1      -5.685   2.649  25.366  0.00  0.00    -0.005 A 
ATOM      4  C   UNL     1      -4.937   2.875  25.632  0.00  0.00    -0.000 A 
ATOM      5  C   UNL     1      -4.294   2.368  25.535  0.00  0.00    -0.000 A 
ATOM      6  C   UNL     1      -4.398   1.634  25.171  0.00  0.00    -0.004 A 
ATOM     33  C   UNL     1      -5.146   1.409  24.905  0.00  0.00    -0.026 A 
ATOM     34  C   UNL     1      -5.250   0.675  24.541  0.00  0.00    +0.031 C 
ENDBRANCH   7   6
BRANCH  16  24
ATOM     24  N   UNL     1       1.170   0.335  23.145  0.00  0.00    -0.202 NA
ATOM     25  C   UNL     1       1.820   0.797  23.360  0.00  0.00    +0.284 C 
ATOM     26  O   UNL     1       1.713   1.459  23.840  0.00  0.00    -0.267 OA
BRANCH  25  27
ATOM     27  C   UNL     1       2.574   0.598  23.094  0.00  0.00    +0.155 A 
ATOM     28  C   UNL     1       2.763  -0.191  22.944  0.00  0.00    +0.123 A 
ATOM     29  N   UNL     1       3.518  -0.391  22.678  0.00  0.00    -0.239 NA
ATOM     30  C   UNL     1       4.084   0.198  22.563  0.00  0.00    +0.120 A 
ATOM     31  C   UNL     1       3.895   0.986  22.713  0.00  0.00    +0.120 A 
ATOM     32  N   UNL     1       3.141   1.186  22.979  0.00  0.00    -0.236 NA
ENDBRANCH  25  27
ENDBRANCH  16  24
TORSDOF 3
ENDMDL
MODEL 3
REMARK VINA RESULT:      -8.4     14.774     15.722
REMARK  Name = 
REMARK  3 active torsions:
REMARK  status: ('A' for Active; 'I' for Inactive)
REMARK    1  A    between atoms: C_6  and  C_7
REMARK    2  A    between atoms: C_16  and  N_24
REMARK    3  A    between atoms: C_25  and  C_27
REMARK                            x       y       z     vdW  Elec       q    Type
REMARK                         _______ _______ _______ _____ _____    ______ ____
ROOT
ATOM      7  C   UNL     1      -8.273  -9.314  17.158  0.00  0.00    -0.000 A 
ATOM      8  C   UNL     1      -7.677  -9.308  17.728  0.00  0.00    +0.001 A 
ATOM      9  C   UNL     1      -6.900  -9.483  17.515  0.00  0.00    +0.017 A 
ATOM     10  C   UNL     1      -6.718  -9.664  16.731  0.00  0.00    +0.078 A 
ATOM     11  N   UNL     1      -5.914  -9.821  16.637  0.00  0.00    -0.178 NA
ATOM     12  C   UNL     1      -5.506 -10.023  15.949  0.00  0.00    +0.264 C 
ATOM     13  O   UNL     1      -4.696 -10.147  16.036  0.00  0.00    -0.271 OA
ATOM     14  C   UNL     1      -5.802 -10.118  15.184  0.00  0.00    +0.156 C 
ATOM     15  C   UNL     1      -5.206 -10.323  14.653  0.00  0.00    +0.051 C 
ATOM     16  C   UNL     1      -5.386 -10.443  13.857  0.00  0.00    +0.100 C 
ATOM     17  C   UNL     1      -6.162 -10.359  13.593  0.00  0.00    +0.043 C 
ATOM     18  C   UNL     1      -6.759 -10.155  14.124  0.00  0.00    +0.096 C 
ATOM     19  N   UNL     1      -6.579 -10.034  14.920  0.00  0.00    -0.269 N 
ATOM     20  C   UNL     1      -7.252  -9.835  15.354  0.00  0.00    +0.251 C 
ATOM     21  O   UNL     1      -7.956  -9.795  14.926  0.00  0.00    -0.270 OA
ATOM     22  C   UNL     1      -7.314  -9.670  16.161  0.00  0.00    +0.069 A 
ATOM     23  C   UNL     1      -8.091  -9.495  16.374  0.00  0.00    +0.006 A 
ENDROOT
BRANCH   7   6
ATOM      1  C   UNL     1     -10.719 -10.062  18.432  0.00  0.00    +0.031 C 
ATOM      2  C   UNL     1     -10.274  -9.513  18.008  0.00  0.00    -0.026 A 
ATOM      3  C   UNL     1     -10.606  -8.788  17.796  0.00  0.00    -0.005 A 
ATOM      4  C   UNL     1     -10.160  -8.238  17.372  0.00  0.00    -0.000 A 
ATOM      5  C   UNL     1      -9.382  -8.413  17.159  0.00  0.00    -0.000 A 
ATOM      6  C   UNL     1      -9.050  -9.139  17.371  0.00  0.00    -0.004 A 
ATOM     33  C   UNL     1      -9.497  -9.688  17.795  0.00  0.00    -0.026 A 
ATOM     34  C   UNL     1      -9.164 -10.414  18.007  0.00  0.00    +0.031 C 
ENDBRANCH   7   6
BRANCH  16  24
ATOM     24  N   UNL     1      -4.789 -10.648  13.325  0.00  0.00    -0.202 NA
ATOM     25  C   UNL     1      -4.635 -10.167  12.672  0.00  0.00    +0.284 C 
ATOM     26  O   UNL     1      -5.079  -9.482  12.551  0.00  0.00    -0.267 OA
BRANCH  25  27
ATOM     27  C   UNL     1      -4.039 -10.372  12.141  0.00  0.00    +0.155 A 
ATOM     28  C   UNL     1      -4.227 -10.552  11.358  0.00  0.00    +0.123 A 
ATOM     29  N   UNL     1      -3.630 -10.756  10.827  0.00  0.00    -0.239 NA
ATOM     30  C   UNL     1      -2.845 -10.781  11.078  0.00  0.00    +0.120 A 
ATOM     31  C   UNL     1      -2.657 -10.601  11.860  0.00  0.00    +0.120 A 
ATOM     32  N   UNL     1      -3.253 -10.397  12.392  0.00  0.00    -0.236 NA
ENDBRANCH  25  27
ENDBRANCH  16  24
TORSDOF 3
ENDMDL
