MODEL 1
REMARK VINA RESULT:     -13.3      0.000      0.000
REMARK  Name = 
REMARK  5 active torsions:
REMARK  status: ('A' for Active; 'I' for Inactive)
REMARK    1  A    between atoms: C_4  and  C_22
REMARK    2  A    between atoms: C_5  and  N_6
REMARK    3  A    between atoms: N_6  and  S_7
REMARK    4  A    between atoms: S_7  and  C_10
REMARK    5  A    between atoms: C_13  and  C_16
REMARK                            x       y       z     vdW  Elec       q    Type
REMARK                         _______ _______ _______ _____ _____    ______ ____
ROOT
ATOM      6  N   UNL     1      -3.269   1.197  24.906  0.00  0.00    -0.076 NA
ENDROOT
BRANCH   6   5
ATOM      1  O   UNL     1      -2.622   2.182  22.252  0.00  0.00    -0.220 OA
ATOM      2  C   UNL     1      -2.947   2.119  23.008  0.00  0.00    +0.184 C 
ATOM      3  C   UNL     1      -3.464   2.657  23.361  0.00  0.00    +0.041 C 
ATOM      4  C   UNL     1      -3.648   2.377  24.115  0.00  0.00    +0.045 C 
ATOM      5  C   UNL     1      -3.244   1.666  24.228  0.00  0.00    +0.135 C 
ATOM     20  C   UNL     1      -2.811   1.507  23.544  0.00  0.00    +0.200 C 
ATOM     21  O   UNL     1      -2.327   0.850  23.418  0.00  0.00    -0.219 OA
BRANCH   4  22
ATOM     22  C   UNL     1      -4.147   2.743  24.660  0.00  0.00    -0.021 A 
ATOM     23  C   UNL     1      -4.963   2.638  24.608  0.00  0.00    -0.004 A 
ATOM     24  C   UNL     1      -5.462   3.004  25.153  0.00  0.00    -0.000 A 
ATOM     25  C   UNL     1      -5.144   3.477  25.750  0.00  0.00    -0.000 A 
ATOM     26  C   UNL     1      -4.328   3.582  25.802  0.00  0.00    -0.000 A 
ATOM     27  C   UNL     1      -3.829   3.216  25.257  0.00  0.00    -0.004 A 
ENDBRANCH   4  22
ENDBRANCH   6   5
BRANCH   6   7
ATOM      7  S   UNL     1      -3.349   0.378  24.839  0.00  0.00    +0.077 S 
ATOM      8  O   UNL     1      -4.127   0.474  24.585  0.00  0.00    -0.152 OA
ATOM      9  O   UNL     1      -2.569   0.282  25.094  0.00  0.00    -0.152 OA
BRANCH   7  10
ATOM     10  C   UNL     1      -3.427  -0.440  24.773  0.00  0.00    +0.124 A 
ATOM     11  C   UNL     1      -2.860  -0.937  25.108  0.00  0.00    +0.020 A 
ATOM     12  C   UNL     1      -2.937  -1.756  25.042  0.00  0.00    +0.005 A 
ATOM     13  C   UNL     1      -3.583  -2.078  24.641  0.00  0.00    +0.072 A 
ATOM     14  C   UNL     1      -4.149  -1.581  24.306  0.00  0.00    +0.005 A 
ATOM     15  C   UNL     1      -4.072  -0.763  24.372  0.00  0.00    +0.020 A 
BRANCH  13  16
ATOM     16  C   UNL     1      -3.660  -2.897  24.574  0.00  0.00    +0.419 C 
ATOM     17  F   UNL     1      -3.738  -3.715  24.508  0.00  0.00    -0.166 F 
ATOM     18  F   UNL     1      -3.575  -2.971  25.391  0.00  0.00    -0.166 F 
ATOM     19  F   UNL     1      -3.745  -2.822  23.757  0.00  0.00    -0.166 F 
ENDBRANCH  13  16
ENDBRANCH   7  10
ENDBRANCH   6   7
TORSDOF 5
ENDMDL
MODEL 2
REMARK VINA RESULT:     -13.1      1.141      2.075
REMARK  Name = 
REMARK  5 active torsions:
REMARK  status: ('A' for Active; 'I' for Inactive)
REMARK    1  A    between atoms: C_4  and  C_22
REMARK    2  A    between atoms: C_5  and  N_6
REMARK    3  A    between atoms: N_6  and  S_7
REMARK    4  A    between atoms: S_7  and  C_10
REMARK    5  A    between atoms: C_13  and  C_16
REMARK                            x       y       z     vdW  Elec       q    Type
REMARK                         _______ _______ _______ _____ _____    ______ ____
ROOT
ATOM      6  N   UNL     1      -3.659   1.782  24.467  0.00  0.00    -0.076 NA
ENDROOT
BRANCH   6   5
ATOM      1  O   UNL     1      -6.162   2.691  25.626  0.00  0.00    -0.220 OA
ATOM      2  C   UNL     1      -5.370   2.655  25.398  0.00  0.00    +0.184 C 
ATOM      3  C   UNL     1      -4.793   3.223  25.561  0.00  0.00    +0.041 C 
ATOM      4  C   UNL     1      -4.082   2.964  25.232  0.00  0.00    +0.045 C 
ATOM      5  C   UNL     1      -4.219   2.238  24.866  0.00  0.00    +0.135 C 
ATOM     20  C   UNL     1      -5.015   2.047  24.969  0.00  0.00    +0.200 C 
ATOM     21  O   UNL     1      -5.391   1.366  24.691  0.00  0.00    -0.219 OA
BRANCH   4  22
ATOM     22  C   UNL     1      -3.360   3.363  25.263  0.00  0.00    -0.021 A 
ATOM     23  C   UNL     1      -3.070   3.744  24.592  0.00  0.00    -0.004 A 
ATOM     24  C   UNL     1      -2.348   4.142  24.623  0.00  0.00    -0.000 A 
ATOM     25  C   UNL     1      -1.917   4.160  25.327  0.00  0.00    -0.000 A 
ATOM     26  C   UNL     1      -2.208   3.779  25.998  0.00  0.00    -0.000 A 
ATOM     27  C   UNL     1      -2.929   3.380  25.967  0.00  0.00    -0.004 A 
ENDBRANCH   4  22
ENDBRANCH   6   5
BRANCH   6   7
ATOM      7  S   UNL     1      -3.647   0.962  24.566  0.00  0.00    +0.077 S 
ATOM      8  O   UNL     1      -3.418   1.060  25.352  0.00  0.00    -0.152 OA
ATOM      9  O   UNL     1      -3.878   0.865  23.779  0.00  0.00    -0.152 OA
BRANCH   7  10
ATOM     10  C   UNL     1      -3.636   0.144  24.663  0.00  0.00    +0.124 A 
ATOM     11  C   UNL     1      -3.348  -0.184  25.364  0.00  0.00    +0.020 A 
ATOM     12  C   UNL     1      -3.336  -1.003  25.463  0.00  0.00    +0.005 A 
ATOM     13  C   UNL     1      -3.612  -1.494  24.860  0.00  0.00    +0.072 A 
ATOM     14  C   UNL     1      -3.900  -1.167  24.160  0.00  0.00    +0.005 A 
ATOM     15  C   UNL     1      -3.912  -0.348  24.062  0.00  0.00    +0.020 A 
BRANCH  13  16
ATOM     16  C   UNL     1      -3.600  -2.314  24.959  0.00  0.00    +0.419 C 
ATOM     17  F   UNL     1      -3.589  -3.132  25.057  0.00  0.00    -0.166 F 
ATOM     18  F   UNL     1      -3.528  -2.411  24.143  0.00  0.00    -0.166 F 
ATOM     19  F   UNL     1      -3.673  -2.216  25.775  0.00  0.00    -0.166 F 
ENDBRANCH  13  16
ENDBRANCH   7  10
ENDBRANCH   6   7
TORSDOF 5
ENDMDL
MODEL 3
REMARK VINA RESULT:     -13.0      3.212      4.869
REMARK  Name = 
REMARK  5 active torsions:
REMARK  status: ('A' for Active; 'I' for Inactive)
REMARK    1  A    between atoms: C_4  and  C_22
REMARK    2  A    between atoms: C_5  and  N_6
REMARK    3  A    between atoms: N_6  and  S_7
REMARK    4  A    between atoms: S_7  and  C_10
REMARK    5  A    between atoms: C_13  and  C_16
REMARK                            x       y       z     vdW  Elec       q    Type
REMARK                         _______ _______ _______ _____ _____    ______ ____
ROOT
ATOM      6  N   UNL     1      -3.650   1.567  24.275  0.00  0.00    -0.076 NA
ENDROOT
BRANCH   6   5
ATOM      1  O   UNL     1      -6.182   2.008  25.627  0.00  0.00    -0.220 OA
ATOM      2  C   UNL     1      -5.515   1.640  25.312  0.00  0.00    +0.184 C 
ATOM      3  C   UNL     1      -5.344   0.833  25.347  0.00  0.00    +0.041 C 
ATOM      4  C   UNL     1      -4.625   0.707  24.962  0.00  0.00    +0.045 C 
ATOM      5  C   UNL     1      -4.351   1.436  24.690  0.00  0.00    +0.135 C 
ATOM     20  C   UNL     1      -4.901   2.012  24.906  0.00  0.00    +0.200 C 
ATOM     21  O   UNL     1      -4.847   2.820  24.744  0.00  0.00    -0.219 OA
BRANCH   4  22
ATOM     22  C   UNL     1      -4.246  -0.019  24.867  0.00  0.00    -0.021 A 
ATOM     23  C   UNL     1      -4.256  -0.397  24.135  0.00  0.00    -0.004 A 
ATOM     24  C   UNL     1      -3.878  -1.124  24.040  0.00  0.00    -0.000 A 
ATOM     25  C   UNL     1      -3.489  -1.473  24.679  0.00  0.00    -0.000 A 
ATOM     26  C   UNL     1      -3.479  -1.095  25.412  0.00  0.00    -0.000 A 
ATOM     27  C   UNL     1      -3.858  -0.368  25.507  0.00  0.00    -0.004 A 
ENDBRANCH   4  22
ENDBRANCH   6   5
BRANCH   6   7
ATOM      7  S   UNL     1      -3.180   2.221  24.453  0.00  0.00    +0.077 S 
ATOM      8  O   UNL     1      -2.988   1.885  25.181  0.00  0.00    -0.152 OA
ATOM      9  O   UNL     1      -3.373   2.557  23.724  0.00  0.00    -0.152 OA
BRANCH   7  10
ATOM     10  C   UNL     1      -2.710   2.875  24.630  0.00  0.00    +0.124 A 
ATOM     11  C   UNL     1      -2.145   2.826  25.230  0.00  0.00    +0.020 A 
ATOM     12  C   UNL     1      -1.675   3.481  25.408  0.00  0.00    +0.005 A 
ATOM     13  C   UNL     1      -1.770   4.183  24.987  0.00  0.00    +0.072 A 
ATOM     14  C   UNL     1      -2.334   4.232  24.387  0.00  0.00    +0.005 A 
ATOM     15  C   UNL     1      -2.804   3.578  24.210  0.00  0.00    +0.020 A 
BRANCH  13  16
ATOM     16  C   UNL     1      -1.299   4.838  25.165  0.00  0.00    +0.419 C 
ATOM     17  F   UNL     1      -0.829   5.491  25.343  0.00  0.00    -0.166 F 
ATOM     18  F   UNL     1      -0.698   4.536  24.687  0.00  0.00    -0.166 F 
ATOM     19  F   UNL     1      -1.901   5.139  25.643  0.00  0.00    -0.166 F 
ENDBRANCH  13  16
ENDBRANCH   7  10
ENDBRANCH   6   7
TORSDOF 5
ENDMDL
MODEL 4
REMARK VINA RESULT:     -12.3      2.573      4.536
REMARK  Name = 
REMARK  5 active torsions:
REMARK  status: ('A' for Active; 'I' for Inactive)
REMARK    1  A    between atoms: C_4  and  C_22
REMARK    2  A    between atoms: C_5  and  N_6
REMARK    3  A    between atoms: N_6  and  S_7
REMARK    4  A    between atoms: S_7  and  C_10
REMARK    5  A    between atoms: C_13  and  C_16
REMARK                            x       y       z     vdW  Elec       q    Type
REMARK                         _______ _______ _______ _____ _____    ______ ____
ROOT
ATOM      6  N   UNL     1      -3.238   0.291  24.312  0.00  0.00    -0.076 NA
ENDROOT
BRANCH   6   5
ATOM      1  O   UNL     1      -0.665   0.582  25.626  0.00  0.00    -0.220 OA
ATOM      2  C   UNL     1      -1.359   0.254  25.324  0.00  0.00    +0.184 C 
ATOM      3  C   UNL     1      -1.582  -0.540  25.372  0.00  0.00    +0.041 C 
ATOM      4  C   UNL     1      -2.313  -0.622  24.998  0.00  0.00    +0.045 C 
ATOM      5  C   UNL     1      -2.542   0.120  24.720  0.00  0.00    +0.135 C 
ATOM     20  C   UNL     1      -1.953   0.661  24.921  0.00  0.00    +0.200 C 
ATOM     21  O   UNL     1      -1.956   1.468  24.749  0.00  0.00    -0.219 OA
BRANCH   4  22
ATOM     22  C   UNL     1      -2.740  -1.323  24.918  0.00  0.00    -0.021 A 
ATOM     23  C   UNL     1      -2.783  -1.699  24.185  0.00  0.00    -0.004 A 
ATOM     24  C   UNL     1      -3.209  -2.400  24.105  0.00  0.00    -0.000 A 
ATOM     25  C   UNL     1      -3.594  -2.726  24.759  0.00  0.00    -0.000 A 
ATOM     26  C   UNL     1      -3.551  -2.350  25.491  0.00  0.00    -0.000 A 
ATOM     27  C   UNL     1      -3.125  -1.649  25.572  0.00  0.00    -0.004 A 
ENDBRANCH   4  22
ENDBRANCH   6   5
BRANCH   6   7
ATOM      7  S   UNL     1      -3.692   0.946  24.526  0.00  0.00    +0.077 S 
ATOM      8  O   UNL     1      -3.873   0.586  25.245  0.00  0.00    -0.152 OA
ATOM      9  O   UNL     1      -3.510   1.306  23.805  0.00  0.00    -0.152 OA
BRANCH   7  10
ATOM     10  C   UNL     1      -4.146   1.602  24.738  0.00  0.00    +0.124 A 
ATOM     11  C   UNL     1      -4.731   1.527  25.316  0.00  0.00    +0.020 A 
ATOM     12  C   UNL     1      -5.185   2.183  25.530  0.00  0.00    +0.005 A 
ATOM     13  C   UNL     1      -5.054   2.911  25.166  0.00  0.00    +0.072 A 
ATOM     14  C   UNL     1      -4.469   2.985  24.589  0.00  0.00    +0.005 A 
ATOM     15  C   UNL     1      -4.015   2.330  24.375  0.00  0.00    +0.020 A 
BRANCH  13  16
ATOM     16  C   UNL     1      -5.508   3.567  25.380  0.00  0.00    +0.419 C 
ATOM     17  F   UNL     1      -5.962   4.221  25.593  0.00  0.00    -0.166 F 
ATOM     18  F   UNL     1      -6.196   3.124  25.275  0.00  0.00    -0.166 F 
ATOM     19  F   UNL     1      -4.819   4.009  25.484  0.00  0.00    -0.166 F 
ENDBRANCH  13  16
ENDBRANCH   7  10
ENDBRANCH   6   7
TORSDOF 5
ENDMDL
