MODEL 1
REMARK VINA RESULT:     -11.8      0.000      0.000
REMARK  Name = 
REMARK  1 active torsions:
REMARK  status: ('A' for Active; 'I' for Inactive)
REMARK    1  A    between atoms: C_5  and  C_6
REMARK                            x       y       z     vdW  Elec       q    Type
REMARK                         _______ _______ _______ _____ _____    ______ ____
ROOT
ATOM      1  O   UNL     1      -3.795  -3.314  24.285  0.00  0.00    -0.267 OA
ATOM      2  C   UNL     1      -3.864  -2.493  24.323  0.00  0.00    +0.261 A 
ATOM      3  C   UNL     1      -4.193  -2.077  23.691  0.00  0.00    +0.061 A 
ATOM      4  C   UNL     1      -4.262  -1.256  23.729  0.00  0.00    +0.006 A 
ATOM      5  C   UNL     1      -4.002  -0.851  24.400  0.00  0.00    +0.018 A 
ATOM     11  C   UNL     1      -3.673  -1.267  25.032  0.00  0.00    +0.041 A 
ATOM     12  C   UNL     1      -3.483  -0.534  25.621  0.00  0.00    +0.056 C 
ATOM     13  C   UNL     1      -3.109  -1.137  26.309  0.00  0.00    +0.094 C 
ATOM     14  N   UNL     1      -3.207  -1.870  25.921  0.00  0.00    -0.218 NA
ATOM     15  C   UNL     1      -3.339  -1.182  25.790  0.00  0.00    +0.091 C 
ATOM     16  C   UNL     1      -3.703  -0.613  25.115  0.00  0.00    +0.041 C 
ATOM     17  C   UNL     1      -3.754   0.085  25.166  0.00  0.00    +0.011 C 
ATOM     18  C   UNL     1      -3.888  -1.309  24.544  0.00  0.00    +0.110 C 
ATOM     19  N   UNL     1      -3.604  -2.088  24.993  0.00  0.00    -0.299 N 
ENDROOT
BRANCH   5   6
ATOM      6  C   UNL     1      -4.071  -0.030  24.438  0.00  0.00    +0.031 A 
ATOM      7  C   UNL     1      -4.694   0.389  24.776  0.00  0.00    +0.007 A 
ATOM      8  C   UNL     1      -4.537   1.194  24.692  0.00  0.00    +0.007 A 
ATOM      9  C   UNL     1      -3.815   1.273  24.300  0.00  0.00    +0.035 A 
ATOM     10  S   UNL     1      -3.527   0.517  24.143  0.00  0.00    -0.086 S 
ENDBRANCH   5   6
TORSDOF 1
ENDMDL
MODEL 2
REMARK VINA RESULT:     -11.6      2.261      3.296
REMARK  Name = 
REMARK  1 active torsions:
REMARK  status: ('A' for Active; 'I' for Inactive)
REMARK    1  A    between atoms: C_5  and  C_6
REMARK                            x       y       z     vdW  Elec       q    Type
REMARK                         _______ _______ _______ _____ _____    ______ ____
ROOT
ATOM      1  O   UNL     1      -3.806   3.424  23.673  0.00  0.00    -0.267 OA
ATOM      2  C   UNL     1      -3.803   2.622  23.864  0.00  0.00    +0.261 A 
ATOM      3  C   UNL     1      -3.228   2.124  23.544  0.00  0.00    +0.061 A 
ATOM      4  C   UNL     1      -3.225   1.322  23.735  0.00  0.00    +0.006 A 
ATOM      5  C   UNL     1      -3.798   1.017  24.246  0.00  0.00    +0.018 A 
ATOM     11  C   UNL     1      -4.373   1.515  24.565  0.00  0.00    +0.041 A 
ATOM     12  C   UNL     1      -4.860   0.876  25.091  0.00  0.00    +0.056 C 
ATOM     13  C   UNL     1      -5.492   1.565  25.408  0.00  0.00    +0.094 C 
ATOM     14  N   UNL     1      -5.183   2.232  25.012  0.00  0.00    -0.218 NA
ATOM     15  C   UNL     1      -5.037   1.538  25.067  0.00  0.00    +0.091 C 
ATOM     16  C   UNL     1      -4.417   0.883  24.751  0.00  0.00    +0.041 C 
ATOM     17  C   UNL     1      -4.431   0.203  24.925  0.00  0.00    +0.011 C 
ATOM     18  C   UNL     1      -3.945   1.488  24.245  0.00  0.00    +0.110 C 
ATOM     19  N   UNL     1      -4.376   2.317  24.375  0.00  0.00    -0.299 N 
ENDROOT
BRANCH   5   6
ATOM      6  C   UNL     1      -3.794   0.214  24.436  0.00  0.00    +0.031 A 
ATOM      7  C   UNL     1      -4.209  -0.379  24.043  0.00  0.00    +0.007 A 
ATOM      8  C   UNL     1      -4.047  -1.096  24.418  0.00  0.00    +0.007 A 
ATOM      9  C   UNL     1      -3.531  -0.945  25.043  0.00  0.00    +0.035 A 
ATOM     10  S   UNL     1      -3.375  -0.135  25.055  0.00  0.00    -0.086 S 
ENDBRANCH   5   6
TORSDOF 1
ENDMDL
MODEL 3
REMARK VINA RESULT:     -11.1      3.601      4.175
REMARK  Name = 
REMARK  1 active torsions:
REMARK  status: ('A' for Active; 'I' for Inactive)
REMARK    1  A    between atoms: C_5  and  C_6
REMARK                            x       y       z     vdW  Elec       q    Type
REMARK                         _______ _______ _______ _____ _____    ______ ____
ROOT
ATOM      1  O   UNL     1      -5.934   3.072  26.280  0.00  0.00    -0.267 OA
ATOM      2  C   UNL     1      -5.372   2.852  25.718  0.00  0.00    +0.261 A 
ATOM      3  C   UNL     1      -5.551   2.270  25.161  0.00  0.00    +0.061 A 
ATOM      4  C   UNL     1      -4.989   2.050  24.599  0.00  0.00    +0.006 A 
ATOM      5  C   UNL     1      -4.247   2.412  24.594  0.00  0.00    +0.018 A 
ATOM     11  C   UNL     1      -4.068   2.995  25.151  0.00  0.00    +0.041 A 
ATOM     12  C   UNL     1      -3.170   3.200  24.881  0.00  0.00    +0.056 C 
ATOM     13  C   UNL     1      -3.073   3.878  25.593  0.00  0.00    +0.094 C 
ATOM     14  N   UNL     1      -3.827   3.819  25.947  0.00  0.00    -0.218 NA
ATOM     15  C   UNL     1      -3.473   3.517  25.408  0.00  0.00    +0.091 C 
ATOM     16  C   UNL     1      -3.582   2.858  24.725  0.00  0.00    +0.041 C 
ATOM     17  C   UNL     1      -3.091   2.684  24.255  0.00  0.00    +0.011 C 
ATOM     18  C   UNL     1      -4.443   2.655  24.977  0.00  0.00    +0.110 C 
ATOM     19  N   UNL     1      -4.630   3.215  25.713  0.00  0.00    -0.299 N 
ENDROOT
BRANCH   5   6
ATOM      6  C   UNL     1      -3.685   2.192  24.032  0.00  0.00    +0.031 A 
ATOM      7  C   UNL     1      -3.547   2.568  23.312  0.00  0.00    +0.007 A 
ATOM      8  C   UNL     1      -2.939   2.166  22.926  0.00  0.00    +0.007 A 
ATOM      9  C   UNL     1      -2.701   1.541  23.409  0.00  0.00    +0.035 A 
ATOM     10  S   UNL     1      -3.162   1.557  24.092  0.00  0.00    -0.086 S 
ENDBRANCH   5   6
TORSDOF 1
ENDMDL
MODEL 4
REMARK VINA RESULT:     -11.0      2.021      3.049
REMARK  Name = 
REMARK  1 active torsions:
REMARK  status: ('A' for Active; 'I' for Inactive)
REMARK    1  A    between atoms: C_5  and  C_6
REMARK                            x       y       z     vdW  Elec       q    Type
REMARK                         _______ _______ _______ _____ _____    ______ ____
ROOT
ATOM      1  O   UNL     1      -2.261   1.641  22.774  0.00  0.00    -0.267 OA
ATOM      2  C   UNL     1      -2.902   1.763  23.278  0.00  0.00    +0.261 A 
ATOM      3  C   UNL     1      -3.261   2.504  23.316  0.00  0.00    +0.061 A 
ATOM      4  C   UNL     1      -3.903   2.627  23.820  0.00  0.00    +0.006 A 
ATOM      5  C   UNL     1      -4.186   2.007  24.286  0.00  0.00    +0.018 A 
ATOM     11  C   UNL     1      -3.826   1.265  24.247  0.00  0.00    +0.041 A 
ATOM     12  C   UNL     1      -4.370   0.794  24.883  0.00  0.00    +0.056 C 
ATOM     13  C   UNL     1      -3.862  -0.044  24.751  0.00  0.00    +0.094 C 
ATOM     14  N   UNL     1      -3.308   0.217  24.183  0.00  0.00    -0.218 NA
ATOM     15  C   UNL     1      -3.853   0.490  24.551  0.00  0.00    +0.091 C 
ATOM     16  C   UNL     1      -4.335   1.307  24.667  0.00  0.00    +0.041 C 
ATOM     17  C   UNL     1      -4.879   1.391  25.102  0.00  0.00    +0.011 C 
ATOM     18  C   UNL     1      -3.819   1.765  24.060  0.00  0.00    +0.110 C 
ATOM     19  N   UNL     1      -3.185   1.142  23.744  0.00  0.00    -0.299 N 
ENDROOT
BRANCH   5   6
ATOM      6  C   UNL     1      -4.827   2.129  24.790  0.00  0.00    +0.031 A 
ATOM      7  C   UNL     1      -5.603   1.887  24.655  0.00  0.00    +0.007 A 
ATOM      8  C   UNL     1      -6.060   2.123  25.299  0.00  0.00    +0.007 A 
ATOM      9  C   UNL     1      -5.566   2.512  25.833  0.00  0.00    +0.035 A 
ATOM     10  S   UNL     1      -4.804   2.515  25.519  0.00  0.00    -0.086 S 
ENDBRANCH   5   6
TORSDOF 1
ENDMDL
MODEL 5
REMARK VINA RESULT:     -10.9      1.921      3.029
REMARK  Name = 
REMARK  1 active torsions:
REMARK  status: ('A' for Active; 'I' for Inactive)
REMARK    1  A    between atoms: C_5  and  C_6
REMARK                            x       y       z     vdW  Elec       q    Type
REMARK                         _______ _______ _______ _____ _____    ______ ____
ROOT
ATOM      1  O   UNL     1      -4.413  -0.663  24.655  0.00  0.00    -0.267 OA
ATOM      2  C   UNL     1      -4.248   0.143  24.595  0.00  0.00    +0.261 A 
ATOM      3  C   UNL     1      -3.513   0.394  24.320  0.00  0.00    +0.061 A 
ATOM      4  C   UNL     1      -3.348   1.200  24.260  0.00  0.00    +0.006 A 
ATOM      5  C   UNL     1      -3.919   1.756  24.476  0.00  0.00    +0.018 A 
ATOM     11  C   UNL     1      -4.655   1.504  24.752  0.00  0.00    +0.041 A 
ATOM     12  C   UNL     1      -5.064   2.358  24.908  0.00  0.00    +0.056 C 
ATOM     13  C   UNL     1      -5.903   1.939  25.222  0.00  0.00    +0.094 C 
ATOM     14  N   UNL     1      -5.695   1.134  25.142  0.00  0.00    -0.218 NA
ATOM     15  C   UNL     1      -5.393   1.769  25.030  0.00  0.00    +0.091 C 
ATOM     16  C   UNL     1      -4.577   2.159  24.724  0.00  0.00    +0.041 C 
ATOM     17  C   UNL     1      -4.456   2.849  24.681  0.00  0.00    +0.011 C 
ATOM     18  C   UNL     1      -4.177   1.346  24.572  0.00  0.00    +0.110 C 
ATOM     19  N   UNL     1      -4.820   0.698  24.812  0.00  0.00    -0.299 N 
ENDROOT
BRANCH   5   6
ATOM      6  C   UNL     1      -3.754   2.561  24.416  0.00  0.00    +0.031 A 
ATOM      7  C   UNL     1      -3.925   3.045  23.771  0.00  0.00    +0.007 A 
ATOM      8  C   UNL     1      -3.666   3.807  23.947  0.00  0.00    +0.007 A 
ATOM      9  C   UNL     1      -3.334   3.796  24.702  0.00  0.00    +0.035 A 
ATOM     10  S   UNL     1      -3.389   3.026  24.993  0.00  0.00    -0.086 S 
ENDBRANCH   5   6
TORSDOF 1
ENDMDL
