MODEL 1
REMARK VINA RESULT:     -11.6      0.000      0.000
REMARK  Name = 
REMARK  4 active torsions:
REMARK  status: ('A' for Active; 'I' for Inactive)
REMARK    1  A    between atoms: C_2  and  C_5
REMARK    2  A    between atoms: C_8  and  O_9
REMARK    3  A    between atoms: O_9  and  C_10
REMARK    4  A    between atoms: C_17  and  C_19
REMARK                            x       y       z     vdW  Elec       q    Type
REMARK                         _______ _______ _______ _____ _____    ______ ____
ROOT
ATOM     10  C   UNL     1      -2.916   0.950  24.632  0.00  0.00    +0.217 C 
ATOM     11  C   UNL     1      -2.256   0.746  24.181  0.00  0.00    +0.187 C 
ATOM     12  O   UNL     1      -1.925   1.149  23.542  0.00  0.00    -0.348 OA
ATOM     13  C   UNL     1      -2.172   1.856  23.196  0.00  0.00    +0.164 C 
ATOM     14  C   UNL     1      -2.811   2.334  23.404  0.00  0.00    +0.126 C 
ATOM     15  N   UNL     1      -3.361   2.224  24.009  0.00  0.00    -0.268 N 
ATOM     16  C   UNL     1      -3.408   1.608  24.555  0.00  0.00    +0.140 C 
ATOM     17  C   UNL     1      -3.942   2.807  24.076  0.00  0.00    +0.268 C 
ATOM     18  O   UNL     1      -3.945   3.447  23.557  0.00  0.00    -0.268 OA
ENDROOT
BRANCH  17  19
ATOM     19  C   UNL     1      -4.518   2.748  24.663  0.00  0.00    +0.154 A 
ATOM     20  C   UNL     1      -4.392   3.097  25.400  0.00  0.00    +0.123 A 
ATOM     21  N   UNL     1      -4.969   3.039  25.988  0.00  0.00    -0.239 NA
ATOM     22  C   UNL     1      -5.671   2.632  25.838  0.00  0.00    +0.120 A 
ATOM     23  C   UNL     1      -5.797   2.283  25.101  0.00  0.00    +0.120 A 
ATOM     24  N   UNL     1      -5.220   2.342  24.514  0.00  0.00    -0.236 NA
ENDBRANCH  17  19
BRANCH  10   9
ATOM      9  O   UNL     1      -3.110   0.427  25.240  0.00  0.00    -0.460 OA
BRANCH   9   8
ATOM      5  C   UNL     1      -3.518  -1.962  24.735  0.00  0.00    +0.091 A 
ATOM      6  C   UNL     1      -2.826  -1.734  25.122  0.00  0.00    +0.010 A 
ATOM      7  C   UNL     1      -2.690  -0.938  25.290  0.00  0.00    +0.058 A 
ATOM      8  C   UNL     1      -3.246  -0.369  25.072  0.00  0.00    +0.225 A 
ATOM     25  N   UNL     1      -3.938  -0.597  24.684  0.00  0.00    -0.210 NA
ATOM     26  C   UNL     1      -4.074  -1.392  24.516  0.00  0.00    +0.106 A 
BRANCH   5   2
ATOM      1  F   UNL     1      -3.790  -3.554  24.399  0.00  0.00    -0.166 F 
ATOM      2  C   UNL     1      -3.654  -2.758  24.567  0.00  0.00    +0.420 C 
ATOM      3  F   UNL     1      -3.708  -2.579  23.764  0.00  0.00    -0.166 F 
ATOM      4  F   UNL     1      -3.601  -2.936  25.371  0.00  0.00    -0.166 F 
ENDBRANCH   5   2
ENDBRANCH   9   8
ENDBRANCH  10   9
TORSDOF 4
ENDMDL
MODEL 2
REMARK VINA RESULT:     -11.4      1.518      2.466
REMARK  Name = 
REMARK  4 active torsions:
REMARK  status: ('A' for Active; 'I' for Inactive)
REMARK    1  A    between atoms: C_2  and  C_5
REMARK    2  A    between atoms: C_8  and  O_9
REMARK    3  A    between atoms: O_9  and  C_10
REMARK    4  A    between atoms: C_17  and  C_19
REMARK                            x       y       z     vdW  Elec       q    Type
REMARK                         _______ _______ _______ _____ _____    ______ ____
ROOT
ATOM     10  C   UNL     1      -3.991   1.607  24.600  0.00  0.00    +0.217 C 
ATOM     11  C   UNL     1      -4.795   1.427  24.634  0.00  0.00    +0.187 C 
ATOM     12  O   UNL     1      -5.405   1.863  24.978  0.00  0.00    -0.348 OA
ATOM     13  C   UNL     1      -5.362   2.586  25.374  0.00  0.00    +0.164 C 
ATOM     14  C   UNL     1      -4.697   3.051  25.522  0.00  0.00    +0.126 C 
ATOM     15  N   UNL     1      -3.912   2.909  25.312  0.00  0.00    -0.268 N 
ATOM     16  C   UNL     1      -3.598   2.266  24.901  0.00  0.00    +0.140 C 
ATOM     17  C   UNL     1      -3.369   3.486  25.543  0.00  0.00    +0.268 C 
ATOM     18  O   UNL     1      -3.627   4.151  25.956  0.00  0.00    -0.268 OA
ENDROOT
BRANCH  17  19
ATOM     19  C   UNL     1      -2.570   3.397  25.360  0.00  0.00    +0.154 A 
ATOM     20  C   UNL     1      -2.287   3.638  24.623  0.00  0.00    +0.123 A 
ATOM     21  N   UNL     1      -1.487   3.548  24.440  0.00  0.00    -0.239 NA
ATOM     22  C   UNL     1      -0.971   3.219  24.994  0.00  0.00    +0.120 A 
ATOM     23  C   UNL     1      -1.254   2.978  25.730  0.00  0.00    +0.120 A 
ATOM     24  N   UNL     1      -2.055   3.068  25.913  0.00  0.00    -0.236 NA
ENDBRANCH  17  19
BRANCH  10   9
ATOM      9  O   UNL     1      -3.517   1.053  24.212  0.00  0.00    -0.460 OA
BRANCH   9   8
ATOM      5  C   UNL     1      -3.564  -1.321  24.909  0.00  0.00    +0.091 A 
ATOM      6  C   UNL     1      -3.985  -1.078  24.243  0.00  0.00    +0.010 A 
ATOM      7  C   UNL     1      -3.969  -0.287  24.011  0.00  0.00    +0.058 A 
ATOM      8  C   UNL     1      -3.533   0.262  24.445  0.00  0.00    +0.225 A 
ATOM     25  N   UNL     1      -3.111   0.019  25.112  0.00  0.00    -0.210 NA
ATOM     26  C   UNL     1      -3.126  -0.772  25.344  0.00  0.00    +0.106 A 
BRANCH   5   2
ATOM      1  F   UNL     1      -3.595  -2.904  25.374  0.00  0.00    -0.166 F 
ATOM      2  C   UNL     1      -3.579  -2.112  25.141  0.00  0.00    +0.420 C 
ATOM      3  F   UNL     1      -3.564  -2.345  24.350  0.00  0.00    -0.166 F 
ATOM      4  F   UNL     1      -3.595  -1.880  25.933  0.00  0.00    -0.166 F 
ENDBRANCH   5   2
ENDBRANCH   9   8
ENDBRANCH  10   9
TORSDOF 4
ENDMDL
MODEL 3
REMARK VINA RESULT:     -11.1      1.383      1.730
REMARK  Name = 
REMARK  4 active torsions:
REMARK  status: ('A' for Active; 'I' for Inactive)
REMARK    1  A    between atoms: C_2  and  C_5
REMARK    2  A    between atoms: C_8  and  O_9
REMARK    3  A    between atoms: O_9  and  C_10
REMARK    4  A    between atoms: C_17  and  C_19
REMARK                            x       y       z     vdW  Elec       q    Type
REMARK                         _______ _______ _______ _____ _____    ______ ____
ROOT
ATOM     10  C   UNL     1      -2.092   0.678  25.114  0.00  0.00    +0.217 C 
ATOM     11  C   UNL     1      -1.478   0.129  25.064  0.00  0.00    +0.187 C 
ATOM     12  O   UNL     1      -0.703   0.246  24.809  0.00  0.00    -0.348 OA
ATOM     13  C   UNL     1      -0.348   0.941  24.540  0.00  0.00    +0.164 C 
ATOM     14  C   UNL     1      -0.683   1.691  24.461  0.00  0.00    +0.126 C 
ATOM     15  N   UNL     1      -1.455   1.931  24.631  0.00  0.00    -0.268 N 
ATOM     16  C   UNL     1      -2.081   1.480  24.921  0.00  0.00    +0.140 C 
ATOM     17  C   UNL     1      -1.621   2.727  24.491  0.00  0.00    +0.268 C 
ATOM     18  O   UNL     1      -1.032   3.226  24.200  0.00  0.00    -0.268 OA
ENDROOT
BRANCH  17  19
ATOM     19  C   UNL     1      -2.375   3.023  24.642  0.00  0.00    +0.154 A 
ATOM     20  C   UNL     1      -2.561   3.315  25.392  0.00  0.00    +0.123 A 
ATOM     21  N   UNL     1      -3.316   3.611  25.543  0.00  0.00    -0.239 NA
ATOM     22  C   UNL     1      -3.885   3.616  24.945  0.00  0.00    +0.120 A 
ATOM     23  C   UNL     1      -3.700   3.324  24.197  0.00  0.00    +0.120 A 
ATOM     24  N   UNL     1      -2.944   3.028  24.045  0.00  0.00    -0.236 NA
ENDBRANCH  17  19
BRANCH  10   9
ATOM      9  O   UNL     1      -2.811   0.387  25.393  0.00  0.00    -0.460 OA
BRANCH   9   8
ATOM      5  C   UNL     1      -3.843  -1.595  24.328  0.00  0.00    +0.091 A 
ATOM      6  C   UNL     1      -3.507  -1.658  25.079  0.00  0.00    +0.010 A 
ATOM      7  C   UNL     1      -3.164  -0.998  25.434  0.00  0.00    +0.058 A 
ATOM      8  C   UNL     1      -3.155  -0.274  25.038  0.00  0.00    +0.225 A 
ATOM     25  N   UNL     1      -3.491  -0.211  24.287  0.00  0.00    -0.210 NA
ATOM     26  C   UNL     1      -3.835  -0.870  23.932  0.00  0.00    +0.106 A 
BRANCH   5   2
ATOM      1  F   UNL     1      -4.531  -2.916  23.618  0.00  0.00    -0.166 F 
ATOM      2  C   UNL     1      -4.187  -2.255  23.973  0.00  0.00    +0.420 C 
ATOM      3  F   UNL     1      -3.482  -2.673  24.068  0.00  0.00    -0.166 F 
ATOM      4  F   UNL     1      -4.892  -1.837  23.878  0.00  0.00    -0.166 F 
ENDBRANCH   5   2
ENDBRANCH   9   8
ENDBRANCH  10   9
TORSDOF 4
ENDMDL
MODEL 4
REMARK VINA RESULT:     -10.8      2.790      4.682
REMARK  Name = 
REMARK  4 active torsions:
REMARK  status: ('A' for Active; 'I' for Inactive)
REMARK    1  A    between atoms: C_2  and  C_5
REMARK    2  A    between atoms: C_8  and  O_9
REMARK    3  A    between atoms: O_9  and  C_10
REMARK    4  A    between atoms: C_17  and  C_19
REMARK                            x       y       z     vdW  Elec       q    Type
REMARK                         _______ _______ _______ _____ _____    ______ ____
ROOT
ATOM     10  C   UNL     1      -3.304   0.438  24.753  0.00  0.00    +0.217 C 
ATOM     11  C   UNL     1      -3.966   0.006  24.990  0.00  0.00    +0.187 C 
ATOM     12  O   UNL     1      -3.996  -0.685  25.439  0.00  0.00    -0.348 OA
ATOM     13  C   UNL     1      -3.371  -1.115  25.763  0.00  0.00    +0.164 C 
ATOM     14  C   UNL     1      -2.562  -0.960  25.717  0.00  0.00    +0.126 C 
ATOM     15  N   UNL     1      -2.178  -0.336  25.336  0.00  0.00    -0.268 N 
ATOM     16  C   UNL     1      -2.509   0.285  24.908  0.00  0.00    +0.140 C 
ATOM     17  C   UNL     1      -1.355  -0.336  25.392  0.00  0.00    +0.268 C 
ATOM     18  O   UNL     1      -0.969  -0.933  25.809  0.00  0.00    -0.268 OA
ENDROOT
BRANCH  17  19
ATOM     19  C   UNL     1      -0.918   0.263  25.031  0.00  0.00    +0.154 A 
ATOM     20  C   UNL     1      -0.687   0.186  24.242  0.00  0.00    +0.123 A 
ATOM     21  N   UNL     1      -0.250   0.786  23.880  0.00  0.00    -0.239 NA
ATOM     22  C   UNL     1      -0.045   1.462  24.307  0.00  0.00    +0.120 A 
ATOM     23  C   UNL     1      -0.276   1.539  25.094  0.00  0.00    +0.120 A 
ATOM     24  N   UNL     1      -0.713   0.939  25.456  0.00  0.00    -0.236 NA
ENDBRANCH  17  19
BRANCH  10   9
ATOM      9  O   UNL     1      -3.459   1.111  24.303  0.00  0.00    -0.460 OA
BRANCH   9   8
ATOM      5  C   UNL     1      -4.909   2.901  25.208  0.00  0.00    +0.091 A 
ATOM      6  C   UNL     1      -5.233   2.303  24.741  0.00  0.00    +0.010 A 
ATOM      7  C   UNL     1      -4.751   1.708  24.440  0.00  0.00    +0.058 A 
ATOM      8  C   UNL     1      -3.942   1.708  24.604  0.00  0.00    +0.225 A 
ATOM     25  N   UNL     1      -3.617   2.306  25.071  0.00  0.00    -0.210 NA
ATOM     26  C   UNL     1      -4.100   2.902  25.373  0.00  0.00    +0.106 A 
BRANCH   5   2
ATOM      1  F   UNL     1      -5.876   4.095  25.811  0.00  0.00    -0.166 F 
ATOM      2  C   UNL     1      -5.392   3.498  25.510  0.00  0.00    +0.420 C 
ATOM      3  F   UNL     1      -5.745   2.954  26.020  0.00  0.00    -0.166 F 
ATOM      4  F   UNL     1      -5.039   4.042  24.999  0.00  0.00    -0.166 F 
ENDBRANCH   5   2
ENDBRANCH   9   8
ENDBRANCH  10   9
TORSDOF 4
ENDMDL
