MODEL 1
REMARK VINA RESULT:     -11.8      0.000      0.000
REMARK  Name = 
REMARK  6 active torsions:
REMARK  status: ('A' for Active; 'I' for Inactive)
REMARK    1  A    between atoms: C_2  and  N_3
REMARK    2  A    between atoms: N_6  and  C_7
REMARK    3  A    between atoms: C_7  and  C_8
REMARK    4  A    between atoms: C_10  and  C_11
REMARK    5  A    between atoms: C_11  and  C_12
REMARK    6  A    between atoms: C_15  and  C_17
REMARK                            x       y       z     vdW  Elec       q    Type
REMARK                         _______ _______ _______ _____ _____    ______ ____
ROOT
ATOM      8  C   UNL     1      -4.451   2.997  25.412  0.00  0.00    +0.167 C 
ATOM      9  O   UNL     1      -4.207   2.491  24.807  0.00  0.00    -0.354 OA
ATOM     10  C   UNL     1      -4.708   1.890  24.545  0.00  0.00    +0.121 C 
ATOM     24  C   UNL     1      -5.453   1.795  24.888  0.00  0.00    +0.033 C 
ATOM     25  C   UNL     1      -5.696   2.301  25.492  0.00  0.00    +0.038 C 
ATOM     26  C   UNL     1      -5.196   2.902  25.754  0.00  0.00    +0.181 C 
ATOM     27  O   UNL     1      -5.439   3.408  26.358  0.00  0.00    -0.220 OA
ENDROOT
BRANCH   8   7
ATOM      7  C   UNL     1      -3.950   3.597  25.673  0.00  0.00    +0.149 C 
BRANCH   7   6
ATOM      3  N   UNL     1      -2.113   4.560  24.990  0.00  0.00    -0.187 NA
ATOM      4  C   UNL     1      -2.700   4.266  25.491  0.00  0.00    +0.339 C 
ATOM      5  O   UNL     1      -2.624   4.347  26.308  0.00  0.00    -0.249 OA
ATOM      6  N   UNL     1      -3.362   3.891  25.173  0.00  0.00    -0.185 NA
BRANCH   3   2
ATOM      1  C   UNL     1      -0.800   5.100  24.827  0.00  0.00    +0.025 C 
ATOM      2  C   UNL     1      -1.450   4.935  25.308  0.00  0.00    +0.117 C 
ENDBRANCH   3   2
ENDBRANCH   7   6
ENDBRANCH   8   7
BRANCH  10  11
ATOM     11  C   UNL     1      -4.464   1.384  23.941  0.00  0.00    +0.079 C 
BRANCH  11  12
ATOM     12  C   UNL     1      -3.985   0.735  24.114  0.00  0.00    +0.103 A 
ATOM     13  N   UNL     1      -3.163   0.746  24.190  0.00  0.00    -0.081 NA
ATOM     14  O   UNL     1      -2.913  -0.020  24.364  0.00  0.00    -0.354 OA
ATOM     15  C   UNL     1      -3.580  -0.505  24.396  0.00  0.00    +0.177 A 
ATOM     16  C   UNL     1      -4.242  -0.038  24.241  0.00  0.00    +0.058 A 
BRANCH  15  17
ATOM     17  C   UNL     1      -3.583  -1.315  24.554  0.00  0.00    +0.037 A 
ATOM     18  C   UNL     1      -3.882  -1.843  23.995  0.00  0.00    +0.005 A 
ATOM     19  C   UNL     1      -3.885  -2.653  24.154  0.00  0.00    +0.030 A 
ATOM     20  C   UNL     1      -3.590  -2.934  24.871  0.00  0.00    +0.140 A 
ATOM     21  F   UNL     1      -3.594  -3.743  25.030  0.00  0.00    -0.204 F 
ATOM     22  C   UNL     1      -3.292  -2.405  25.430  0.00  0.00    +0.030 A 
ATOM     23  C   UNL     1      -3.289  -1.596  25.271  0.00  0.00    +0.005 A 
ENDBRANCH  15  17
ENDBRANCH  11  12
ENDBRANCH  10  11
TORSDOF 6
ENDMDL
MODEL 2
REMARK VINA RESULT:     -11.8      1.659      2.003
REMARK  Name = 
REMARK  6 active torsions:
REMARK  status: ('A' for Active; 'I' for Inactive)
REMARK    1  A    between atoms: C_2  and  N_3
REMARK    2  A    between atoms: N_6  and  C_7
REMARK    3  A    between atoms: C_7  and  C_8
REMARK    4  A    between atoms: C_10  and  C_11
REMARK    5  A    between atoms: C_11  and  C_12
REMARK    6  A    between atoms: C_15  and  C_17
REMARK                            x       y       z     vdW  Elec       q    Type
REMARK                         _______ _______ _______ _____ _____    ______ ____
ROOT
ATOM      8  C   UNL     1      -2.711   3.232  25.263  0.00  0.00    +0.167 C 
ATOM      9  O   UNL     1      -3.114   2.665  24.817  0.00  0.00    -0.354 OA
ATOM     10  C   UNL     1      -3.938   2.667  24.798  0.00  0.00    +0.121 C 
ATOM     24  C   UNL     1      -4.360   3.233  25.224  0.00  0.00    +0.033 C 
ATOM     25  C   UNL     1      -3.958   3.799  25.669  0.00  0.00    +0.038 C 
ATOM     26  C   UNL     1      -3.133   3.799  25.688  0.00  0.00    +0.181 C 
ATOM     27  O   UNL     1      -2.731   4.365  26.133  0.00  0.00    -0.220 OA
ENDROOT
BRANCH   8   7
ATOM      7  C   UNL     1      -1.886   3.231  25.282  0.00  0.00    +0.149 C 
BRANCH   7   6
ATOM      3  N   UNL     1      -0.242   2.199  24.282  0.00  0.00    -0.187 NA
ATOM      4  C   UNL     1      -0.667   2.625  24.847  0.00  0.00    +0.339 C 
ATOM      5  O   UNL     1      -0.297   2.872  25.542  0.00  0.00    -0.249 OA
ATOM      6  N   UNL     1      -1.461   2.805  24.716  0.00  0.00    -0.185 NA
BRANCH   3   2
ATOM      1  C   UNL     1       0.943   1.491  23.913  0.00  0.00    +0.025 C 
ATOM      2  C   UNL     1       0.552   2.020  24.413  0.00  0.00    +0.117 C 
ENDBRANCH   3   2
ENDBRANCH   7   6
ENDBRANCH   8   7
BRANCH  10  11
ATOM     11  C   UNL     1      -4.341   2.100  24.353  0.00  0.00    +0.079 C 
BRANCH  11  12
ATOM     12  C   UNL     1      -4.436   1.335  24.647  0.00  0.00    +0.103 A 
ATOM     13  N   UNL     1      -4.917   1.115  25.281  0.00  0.00    -0.081 NA
ATOM     14  O   UNL     1      -4.845   0.300  25.384  0.00  0.00    -0.354 OA
ATOM     15  C   UNL     1      -4.319   0.016  24.816  0.00  0.00    +0.177 A 
ATOM     16  C   UNL     1      -4.066   0.656  24.360  0.00  0.00    +0.058 A 
BRANCH  15  17
ATOM     17  C   UNL     1      -4.087  -0.770  24.719  0.00  0.00    +0.037 A 
ATOM     18  C   UNL     1      -4.327  -1.193  24.052  0.00  0.00    +0.005 A 
ATOM     19  C   UNL     1      -4.095  -1.978  23.957  0.00  0.00    +0.030 A 
ATOM     20  C   UNL     1      -3.622  -2.342  24.528  0.00  0.00    +0.140 A 
ATOM     21  F   UNL     1      -3.390  -3.127  24.432  0.00  0.00    -0.204 F 
ATOM     22  C   UNL     1      -3.382  -1.918  25.194  0.00  0.00    +0.030 A 
ATOM     23  C   UNL     1      -3.615  -1.133  25.290  0.00  0.00    +0.005 A 
ENDBRANCH  15  17
ENDBRANCH  11  12
ENDBRANCH  10  11
TORSDOF 6
ENDMDL
MODEL 3
REMARK VINA RESULT:     -11.2      1.802      3.091
REMARK  Name = 
REMARK  6 active torsions:
REMARK  status: ('A' for Active; 'I' for Inactive)
REMARK    1  A    between atoms: C_2  and  N_3
REMARK    2  A    between atoms: N_6  and  C_7
REMARK    3  A    between atoms: C_7  and  C_8
REMARK    4  A    between atoms: C_10  and  C_11
REMARK    5  A    between atoms: C_11  and  C_12
REMARK    6  A    between atoms: C_15  and  C_17
REMARK                            x       y       z     vdW  Elec       q    Type
REMARK                         _______ _______ _______ _____ _____    ______ ____
ROOT
ATOM      8  C   UNL     1      -1.989   2.917  25.152  0.00  0.00    +0.167 C 
ATOM      9  O   UNL     1      -1.740   2.172  24.896  0.00  0.00    -0.354 OA
ATOM     10  C   UNL     1      -0.959   1.935  25.018  0.00  0.00    +0.121 C 
ATOM     24  C   UNL     1      -0.428   2.441  25.395  0.00  0.00    +0.033 C 
ATOM     25  C   UNL     1      -0.677   3.184  25.650  0.00  0.00    +0.038 C 
ATOM     26  C   UNL     1      -1.457   3.423  25.529  0.00  0.00    +0.181 C 
ATOM     27  O   UNL     1      -1.706   4.166  25.785  0.00  0.00    -0.220 OA
ENDROOT
BRANCH   8   7
ATOM      7  C   UNL     1      -2.769   3.154  25.031  0.00  0.00    +0.149 C 
BRANCH   7   6
ATOM      3  N   UNL     1      -4.771   2.307  25.234  0.00  0.00    -0.187 NA
ATOM      4  C   UNL     1      -4.150   2.789  24.983  0.00  0.00    +0.339 C 
ATOM      5  O   UNL     1      -4.289   3.387  24.431  0.00  0.00    -0.249 OA
ATOM      6  N   UNL     1      -3.391   2.672  25.283  0.00  0.00    -0.185 NA
BRANCH   3   2
ATOM      1  C   UNL     1      -6.129   1.880  25.103  0.00  0.00    +0.025 C 
ATOM      2  C   UNL     1      -5.531   2.424  24.934  0.00  0.00    +0.117 C 
ENDBRANCH   3   2
ENDBRANCH   7   6
ENDBRANCH   8   7
BRANCH  10  11
ATOM     11  C   UNL     1      -0.710   1.191  24.762  0.00  0.00    +0.079 C 
BRANCH  11  12
ATOM     12  C   UNL     1      -1.035   0.510  25.095  0.00  0.00    +0.103 A 
ATOM     13  N   UNL     1      -0.879   0.218  25.851  0.00  0.00    -0.081 NA
ATOM     14  O   UNL     1      -1.320  -0.471  25.954  0.00  0.00    -0.354 OA
ATOM     15  C   UNL     1      -1.749  -0.605  25.262  0.00  0.00    +0.177 A 
ATOM     16  C   UNL     1      -1.573   0.001  24.732  0.00  0.00    +0.058 A 
BRANCH  15  17
ATOM     17  C   UNL     1      -2.264  -1.235  25.125  0.00  0.00    +0.037 A 
ATOM     18  C   UNL     1      -3.043  -1.198  25.396  0.00  0.00    +0.005 A 
ATOM     19  C   UNL     1      -3.557  -1.828  25.259  0.00  0.00    +0.030 A 
ATOM     20  C   UNL     1      -3.294  -2.496  24.852  0.00  0.00    +0.140 A 
ATOM     21  F   UNL     1      -3.808  -3.126  24.715  0.00  0.00    -0.204 F 
ATOM     22  C   UNL     1      -2.515  -2.532  24.582  0.00  0.00    +0.030 A 
ATOM     23  C   UNL     1      -2.001  -1.902  24.718  0.00  0.00    +0.005 A 
ENDBRANCH  15  17
ENDBRANCH  11  12
ENDBRANCH  10  11
TORSDOF 6
ENDMDL
MODEL 4
REMARK VINA RESULT:     -11.0      2.459      4.467
REMARK  Name = 
REMARK  6 active torsions:
REMARK  status: ('A' for Active; 'I' for Inactive)
REMARK    1  A    between atoms: C_2  and  N_3
REMARK    2  A    between atoms: N_6  and  C_7
REMARK    3  A    between atoms: C_7  and  C_8
REMARK    4  A    between atoms: C_10  and  C_11
REMARK    5  A    between atoms: C_11  and  C_12
REMARK    6  A    between atoms: C_15  and  C_17
REMARK                            x       y       z     vdW  Elec       q    Type
REMARK                         _______ _______ _______ _____ _____    ______ ____
ROOT
ATOM      8  C   UNL     1      -1.529  -0.951  24.850  0.00  0.00    +0.167 C 
ATOM      9  O   UNL     1      -2.273  -0.750  25.146  0.00  0.00    -0.354 OA
ATOM     10  C   UNL     1      -2.884  -1.303  25.135  0.00  0.00    +0.121 C 
ATOM     24  C   UNL     1      -2.753  -2.057  24.827  0.00  0.00    +0.033 C 
ATOM     25  C   UNL     1      -2.011  -2.258  24.531  0.00  0.00    +0.038 C 
ATOM     26  C   UNL     1      -1.398  -1.706  24.542  0.00  0.00    +0.181 C 
ATOM     27  O   UNL     1      -0.655  -1.907  24.246  0.00  0.00    -0.220 OA
ENDROOT
BRANCH   8   7
ATOM      7  C   UNL     1      -0.917  -0.398  24.861  0.00  0.00    +0.149 C 
BRANCH   7   6
ATOM      3  N   UNL     1      -0.579   1.604  25.664  0.00  0.00    -0.187 NA
ATOM      4  C   UNL     1      -0.524   0.939  25.178  0.00  0.00    +0.339 C 
ATOM      5  O   UNL     1      -0.021   0.946  24.524  0.00  0.00    -0.249 OA
ATOM      6  N   UNL     1      -0.972   0.267  25.347  0.00  0.00    -0.185 NA
BRANCH   3   2
ATOM      1  C   UNL     1      -0.346   3.006  25.815  0.00  0.00    +0.025 C 
ATOM      2  C   UNL     1      -0.131   2.275  25.495  0.00  0.00    +0.117 C 
ENDBRANCH   3   2
ENDBRANCH   7   6
ENDBRANCH   8   7
BRANCH  10  11
ATOM     11  C   UNL     1      -3.628  -1.102  25.432  0.00  0.00    +0.079 C 
BRANCH  11  12
ATOM     12  C   UNL     1      -4.045  -0.469  25.106  0.00  0.00    +0.103 A 
ATOM     13  N   UNL     1      -4.410  -0.459  24.366  0.00  0.00    -0.081 NA
ATOM     14  O   UNL     1      -4.760   0.281  24.265  0.00  0.00    -0.354 OA
ATOM     15  C   UNL     1      -4.612   0.728  24.942  0.00  0.00    +0.177 A 
ATOM     16  C   UNL     1      -4.169   0.265  25.461  0.00  0.00    +0.058 A 
BRANCH  15  17
ATOM     17  C   UNL     1      -4.862   1.503  25.076  0.00  0.00    +0.037 A 
ATOM     18  C   UNL     1      -4.375   2.136  24.865  0.00  0.00    +0.005 A 
ATOM     19  C   UNL     1      -4.625   2.910  24.999  0.00  0.00    +0.030 A 
ATOM     20  C   UNL     1      -5.362   3.053  25.344  0.00  0.00    +0.140 A 
ATOM     21  F   UNL     1      -5.612   3.827  25.478  0.00  0.00    -0.204 F 
ATOM     22  C   UNL     1      -5.847   2.420  25.554  0.00  0.00    +0.030 A 
ATOM     23  C   UNL     1      -5.597   1.645  25.420  0.00  0.00    +0.005 A 
ENDBRANCH  15  17
ENDBRANCH  11  12
ENDBRANCH  10  11
TORSDOF 6
ENDMDL
MODEL 5
REMARK VINA RESULT:     -10.9      2.703      5.465
REMARK  Name = 
REMARK  6 active torsions:
REMARK  status: ('A' for Active; 'I' for Inactive)
REMARK    1  A    between atoms: C_2  and  N_3
REMARK    2  A    between atoms: N_6  and  C_7
REMARK    3  A    between atoms: C_7  and  C_8
REMARK    4  A    between atoms: C_10  and  C_11
REMARK    5  A    between atoms: C_11  and  C_12
REMARK    6  A    between atoms: C_15  and  C_17
REMARK                            x       y       z     vdW  Elec       q    Type
REMARK                         _______ _______ _______ _____ _____    ______ ____
ROOT
ATOM      8  C   UNL     1      -2.328  -0.406  24.844  0.00  0.00    +0.167 C 
ATOM      9  O   UNL     1      -1.842   0.224  24.626  0.00  0.00    -0.354 OA
ATOM     10  C   UNL     1      -1.022   0.150  24.680  0.00  0.00    +0.121 C 
ATOM     24  C   UNL     1      -0.689  -0.553  24.953  0.00  0.00    +0.033 C 
ATOM     25  C   UNL     1      -1.175  -1.182  25.171  0.00  0.00    +0.038 C 
ATOM     26  C   UNL     1      -1.995  -1.109  25.117  0.00  0.00    +0.181 C 
ATOM     27  O   UNL     1      -2.481  -1.738  25.336  0.00  0.00    -0.220 OA
ENDROOT
BRANCH   8   7
ATOM      7  C   UNL     1      -3.148  -0.331  24.790  0.00  0.00    +0.149 C 
BRANCH   7   6
ATOM      3  N   UNL     1      -4.675   1.174  25.204  0.00  0.00    -0.187 NA
ATOM      4  C   UNL     1      -4.299   0.510  24.888  0.00  0.00    +0.339 C 
ATOM      5  O   UNL     1      -4.700   0.024  24.355  0.00  0.00    -0.249 OA
ATOM      6  N   UNL     1      -3.523   0.333  25.106  0.00  0.00    -0.185 NA
BRANCH   3   2
ATOM      1  C   UNL     1      -5.787   2.071  25.209  0.00  0.00    +0.025 C 
ATOM      2  C   UNL     1      -5.450   1.351  24.986  0.00  0.00    +0.117 C 
ENDBRANCH   3   2
ENDBRANCH   7   6
ENDBRANCH   8   7
BRANCH  10  11
ATOM     11  C   UNL     1      -0.536   0.780  24.461  0.00  0.00    +0.079 C 
BRANCH  11  12
ATOM     12  C   UNL     1      -0.552   1.483  24.892  0.00  0.00    +0.103 A 
ATOM     13  N   UNL     1      -0.256   1.591  25.655  0.00  0.00    -0.081 NA
ATOM     14  O   UNL     1      -0.388   2.376  25.871  0.00  0.00    -0.354 OA
ATOM     15  C   UNL     1      -0.766   2.753  25.242  0.00  0.00    +0.177 A 
ATOM     16  C   UNL     1      -0.867   2.201  24.637  0.00  0.00    +0.058 A 
BRANCH  15  17
ATOM     17  C   UNL     1      -1.001   3.544  25.221  0.00  0.00    +0.037 A 
ATOM     18  C   UNL     1      -0.520   4.108  24.859  0.00  0.00    +0.005 A 
ATOM     19  C   UNL     1      -0.756   4.899  24.838  0.00  0.00    +0.030 A 
ATOM     20  C   UNL     1      -1.472   5.125  25.180  0.00  0.00    +0.140 A 
ATOM     21  F   UNL     1      -1.708   5.915  25.160  0.00  0.00    -0.204 F 
ATOM     22  C   UNL     1      -1.952   4.560  25.542  0.00  0.00    +0.030 A 
ATOM     23  C   UNL     1      -1.717   3.770  25.563  0.00  0.00    +0.005 A 
ENDBRANCH  15  17
ENDBRANCH  11  12
ENDBRANCH  10  11
TORSDOF 6
ENDMDL
MODEL 6
REMARK VINA RESULT:     -10.8      2.322      4.981
REMARK  Name = 
REMARK  6 active torsions:
REMARK  status: ('A' for Active; 'I' for Inactive)
REMARK    1  A    between atoms: C_2  and  N_3
REMARK    2  A    between atoms: N_6  and  C_7
REMARK    3  A    between atoms: C_7  and  C_8
REMARK    4  A    between atoms: C_10  and  C_11
REMARK    5  A    between atoms: C_11  and  C_12
REMARK    6  A    between atoms: C_15  and  C_17
REMARK                            x       y       z     vdW  Elec       q    Type
REMARK                         _______ _______ _______ _____ _____    ______ ____
ROOT
ATOM      8  C   UNL     1      -0.487   1.671  24.935  0.00  0.00    +0.167 C 
ATOM      9  O   UNL     1      -1.080   2.078  25.341  0.00  0.00    -0.354 OA
ATOM     10  C   UNL     1      -1.101   2.902  25.321  0.00  0.00    +0.121 C 
ATOM     24  C   UNL     1      -0.530   3.320  24.897  0.00  0.00    +0.033 C 
ATOM     25  C   UNL     1       0.062   2.913  24.492  0.00  0.00    +0.038 C 
ATOM     26  C   UNL     1       0.084   2.088  24.511  0.00  0.00    +0.181 C 
ATOM     27  O   UNL     1       0.676   1.682  24.106  0.00  0.00    -0.220 OA
ENDROOT
BRANCH   8   7
ATOM      7  C   UNL     1      -0.466   0.846  24.954  0.00  0.00    +0.149 C 
BRANCH   7   6
ATOM      3  N   UNL     1      -1.833  -0.838  24.702  0.00  0.00    -0.187 NA
ATOM      4  C   UNL     1      -1.155  -0.404  24.888  0.00  0.00    +0.339 C 
ATOM      5  O   UNL     1      -0.491  -0.786  25.193  0.00  0.00    -0.249 OA
ATOM      6  N   UNL     1      -1.144   0.412  24.768  0.00  0.00    -0.185 NA
BRANCH   3   2
ATOM      1  C   UNL     1      -2.533  -2.083  24.667  0.00  0.00    +0.025 C 
ATOM      2  C   UNL     1      -1.845  -1.654  24.821  0.00  0.00    +0.117 C 
ENDBRANCH   3   2
ENDBRANCH   7   6
ENDBRANCH   8   7
BRANCH  10  11
ATOM     11  C   UNL     1      -1.694   3.309  25.727  0.00  0.00    +0.079 C 
BRANCH  11  12
ATOM     12  C   UNL     1      -2.451   3.364  25.404  0.00  0.00    +0.103 A 
ATOM     13  N   UNL     1      -2.702   3.921  24.849  0.00  0.00    -0.081 NA
ATOM     14  O   UNL     1      -3.496   3.773  24.682  0.00  0.00    -0.354 OA
ATOM     15  C   UNL     1      -3.736   3.126  25.133  0.00  0.00    +0.177 A 
ATOM     16  C   UNL     1      -3.090   2.873  25.580  0.00  0.00    +0.058 A 
BRANCH  15  17
ATOM     17  C   UNL     1      -4.490   2.790  25.138  0.00  0.00    +0.037 A 
ATOM     18  C   UNL     1      -5.101   3.152  25.558  0.00  0.00    +0.005 A 
ATOM     19  C   UNL     1      -5.854   2.816  25.562  0.00  0.00    +0.030 A 
ATOM     20  C   UNL     1      -5.997   2.118  25.146  0.00  0.00    +0.140 A 
ATOM     21  F   UNL     1      -6.750   1.782  25.149  0.00  0.00    -0.204 F 
ATOM     22  C   UNL     1      -5.386   1.756  24.725  0.00  0.00    +0.030 A 
ATOM     23  C   UNL     1      -4.633   2.092  24.722  0.00  0.00    +0.005 A 
ENDBRANCH  15  17
ENDBRANCH  11  12
ENDBRANCH  10  11
TORSDOF 6
ENDMDL
