MODEL 1
REMARK VINA RESULT:      -7.7      0.000      0.000
REMARK  Name = 
REMARK  4 active torsions:
REMARK  status: ('A' for Active; 'I' for Inactive)
REMARK    1  A    between atoms: C_2  and  O_5
REMARK    2  A    between atoms: O_5  and  C_6
REMARK    3  A    between atoms: N_8  and  C_9
REMARK    4  A    between atoms: C_9  and  C_10
REMARK                            x       y       z     vdW  Elec       q    Type
REMARK                         _______ _______ _______ _____ _____    ______ ____
ROOT
ATOM      6  C   UNL     1      -4.054  -0.377  24.610  0.00  0.00    +0.421 C 
ATOM      7  O   UNL     1      -3.429  -0.245  24.089  0.00  0.00    -0.225 OA
ATOM      8  N   UNL     1      -4.474   0.262  24.920  0.00  0.00    -0.166 NA
ENDROOT
BRANCH   6   5
ATOM      5  O   UNL     1      -4.261  -1.147  24.822  0.00  0.00    -0.441 OA
BRANCH   5   2
ATOM      1  C   UNL     1      -3.300  -2.411  24.371  0.00  0.00    +0.044 C 
ATOM      2  C   UNL     1      -3.780  -1.779  24.597  0.00  0.00    +0.138 C 
ATOM      3  C   UNL     1      -3.366  -1.717  25.307  0.00  0.00    +0.044 C 
ATOM      4  C   UNL     1      -4.195  -1.841  23.886  0.00  0.00    +0.044 C 
ENDBRANCH   5   2
ENDBRANCH   6   5
BRANCH   8   9
ATOM      9  C   UNL     1      -4.269   1.033  24.710  0.00  0.00    +0.151 C 
BRANCH   9  10
ATOM     10  C   UNL     1      -4.694   1.671  25.013  0.00  0.00    +0.169 C 
ATOM     11  O   UNL     1      -5.415   1.629  25.410  0.00  0.00    -0.350 OA
ATOM     12  C   UNL     1      -5.639   2.395  25.616  0.00  0.00    +0.164 C 
ATOM     13  C   UNL     1      -5.055   2.912  25.345  0.00  0.00    +0.154 C 
ATOM     14  N   UNL     1      -5.057   3.733  25.433  0.00  0.00    -0.127 NA
ATOM     15  C   UNL     1      -4.471   2.465  24.973  0.00  0.00    +0.201 C 
ATOM     16  O   UNL     1      -3.786   2.759  24.622  0.00  0.00    -0.219 OA
ENDBRANCH   9  10
ENDBRANCH   8   9
TORSDOF 4
ENDMDL
MODEL 2
REMARK VINA RESULT:      -7.2      1.084      4.135
REMARK  Name = 
REMARK  4 active torsions:
REMARK  status: ('A' for Active; 'I' for Inactive)
REMARK    1  A    between atoms: C_2  and  O_5
REMARK    2  A    between atoms: O_5  and  C_6
REMARK    3  A    between atoms: N_8  and  C_9
REMARK    4  A    between atoms: C_9  and  C_10
REMARK                            x       y       z     vdW  Elec       q    Type
REMARK                         _______ _______ _______ _____ _____    ______ ____
ROOT
ATOM      6  C   UNL     1      -4.516   1.241  24.883  0.00  0.00    +0.421 C 
ATOM      7  O   UNL     1      -3.883   1.501  25.342  0.00  0.00    -0.225 OA
ATOM      8  N   UNL     1      -4.569   0.447  24.665  0.00  0.00    -0.166 NA
ENDROOT
BRANCH   6   5
ATOM      5  O   UNL     1      -5.098   1.774  24.640  0.00  0.00    -0.441 OA
BRANCH   5   2
ATOM      1  C   UNL     1      -5.261   3.223  25.412  0.00  0.00    +0.044 C 
ATOM      2  C   UNL     1      -5.179   2.499  25.026  0.00  0.00    +0.138 C 
ATOM      3  C   UNL     1      -4.626   2.834  24.513  0.00  0.00    +0.044 C 
ATOM      4  C   UNL     1      -5.732   2.164  25.538  0.00  0.00    +0.044 C 
ENDBRANCH   5   2
ENDBRANCH   6   5
BRANCH   8   9
ATOM      9  C   UNL     1      -3.989  -0.087  24.908  0.00  0.00    +0.151 C 
BRANCH   9  10
ATOM     10  C   UNL     1      -3.984  -0.855  24.607  0.00  0.00    +0.169 C 
ATOM     11  O   UNL     1      -4.323  -1.101  23.897  0.00  0.00    -0.350 OA
ATOM     12  C   UNL     1      -4.187  -1.910  23.816  0.00  0.00    +0.164 C 
ATOM     13  C   UNL     1      -3.763  -2.165  24.476  0.00  0.00    +0.154 C 
ATOM     14  N   UNL     1      -3.509  -2.937  24.621  0.00  0.00    -0.127 NA
ATOM     15  C   UNL     1      -3.637  -1.513  24.966  0.00  0.00    +0.201 C 
ATOM     16  O   UNL     1      -3.236  -1.518  25.686  0.00  0.00    -0.219 OA
ENDBRANCH   9  10
ENDBRANCH   8   9
TORSDOF 4
ENDMDL
MODEL 3
REMARK VINA RESULT:      -7.1      2.695      4.323
REMARK  Name = 
REMARK  4 active torsions:
REMARK  status: ('A' for Active; 'I' for Inactive)
REMARK    1  A    between atoms: C_2  and  O_5
REMARK    2  A    between atoms: O_5  and  C_6
REMARK    3  A    between atoms: N_8  and  C_9
REMARK    4  A    between atoms: C_9  and  C_10
REMARK                            x       y       z     vdW  Elec       q    Type
REMARK                         _______ _______ _______ _____ _____    ______ ____
ROOT
ATOM      6  C   UNL     1      -2.424   3.674  25.073  0.00  0.00    +0.421 C 
ATOM      7  O   UNL     1      -2.177   3.419  24.329  0.00  0.00    -0.225 OA
ATOM      8  N   UNL     1      -3.171   3.465  25.354  0.00  0.00    -0.166 NA
ENDROOT
BRANCH   6   5
ATOM      5  O   UNL     1      -1.925   4.140  25.536  0.00  0.00    -0.441 OA
BRANCH   5   2
ATOM      1  C   UNL     1      -0.609   4.866  24.857  0.00  0.00    +0.044 C 
ATOM      2  C   UNL     1      -1.267   4.503  25.197  0.00  0.00    +0.138 C 
ATOM      3  C   UNL     1      -0.844   3.798  25.264  0.00  0.00    +0.044 C 
ATOM      4  C   UNL     1      -1.691   5.208  25.129  0.00  0.00    +0.044 C 
ENDBRANCH   5   2
ENDBRANCH   6   5
BRANCH   8   9
ATOM      9  C   UNL     1      -3.671   2.999  24.891  0.00  0.00    +0.151 C 
BRANCH   9  10
ATOM     10  C   UNL     1      -4.442   2.846  25.141  0.00  0.00    +0.169 C 
ATOM     11  O   UNL     1      -4.863   3.276  25.705  0.00  0.00    -0.350 OA
ATOM     12  C   UNL     1      -5.608   2.932  25.783  0.00  0.00    +0.164 C 
ATOM     13  C   UNL     1      -5.648   2.290  25.267  0.00  0.00    +0.154 C 
ATOM     14  N   UNL     1      -6.297   1.789  25.166  0.00  0.00    -0.127 NA
ATOM     15  C   UNL     1      -4.928   2.237  24.870  0.00  0.00    +0.201 C 
ATOM     16  O   UNL     1      -4.728   1.674  24.302  0.00  0.00    -0.219 OA
ENDBRANCH   9  10
ENDBRANCH   8   9
TORSDOF 4
ENDMDL
MODEL 4
REMARK VINA RESULT:      -6.9      2.901      3.386
REMARK  Name = 
REMARK  4 active torsions:
REMARK  status: ('A' for Active; 'I' for Inactive)
REMARK    1  A    between atoms: C_2  and  O_5
REMARK    2  A    between atoms: O_5  and  C_6
REMARK    3  A    between atoms: N_8  and  C_9
REMARK    4  A    between atoms: C_9  and  C_10
REMARK                            x       y       z     vdW  Elec       q    Type
REMARK                         _______ _______ _______ _____ _____    ______ ____
ROOT
ATOM      6  C   UNL     1      -2.491  -1.221  24.709  0.00  0.00    +0.421 C 
ATOM      7  O   UNL     1      -2.043  -1.782  24.303  0.00  0.00    -0.225 OA
ATOM      8  N   UNL     1      -2.159  -0.493  24.908  0.00  0.00    -0.166 NA
ENDROOT
BRANCH   6   5
ATOM      5  O   UNL     1      -3.272  -1.388  24.916  0.00  0.00    -0.441 OA
BRANCH   5   2
ATOM      1  C   UNL     1      -4.135  -2.498  24.052  0.00  0.00    +0.044 C 
ATOM      2  C   UNL     1      -3.704  -1.943  24.484  0.00  0.00    +0.138 C 
ATOM      3  C   UNL     1      -4.002  -1.340  24.007  0.00  0.00    +0.044 C 
ATOM      4  C   UNL     1      -3.405  -2.546  24.961  0.00  0.00    +0.044 C 
ENDBRANCH   5   2
ENDBRANCH   6   5
BRANCH   8   9
ATOM      9  C   UNL     1      -1.378  -0.325  24.701  0.00  0.00    +0.151 C 
BRANCH   9  10
ATOM     10  C   UNL     1      -1.039   0.396  24.917  0.00  0.00    +0.169 C 
ATOM     11  O   UNL     1      -1.242   0.849  25.575  0.00  0.00    -0.350 OA
ATOM     12  C   UNL     1      -0.766   1.523  25.577  0.00  0.00    +0.164 C 
ATOM     13  C   UNL     1      -0.270   1.486  24.919  0.00  0.00    +0.154 C 
ATOM     14  N   UNL     1       0.296   2.048  24.707  0.00  0.00    -0.127 NA
ATOM     15  C   UNL     1      -0.438   0.790  24.511  0.00  0.00    +0.201 C 
ATOM     16  O   UNL     1      -0.071   0.533  23.819  0.00  0.00    -0.219 OA
ENDBRANCH   9  10
ENDBRANCH   8   9
TORSDOF 4
ENDMDL
MODEL 5
REMARK VINA RESULT:      -6.7      1.990      2.469
REMARK  Name = 
REMARK  4 active torsions:
REMARK  status: ('A' for Active; 'I' for Inactive)
REMARK    1  A    between atoms: C_2  and  O_5
REMARK    2  A    between atoms: O_5  and  C_6
REMARK    3  A    between atoms: N_8  and  C_9
REMARK    4  A    between atoms: C_9  and  C_10
REMARK                            x       y       z     vdW  Elec       q    Type
REMARK                         _______ _______ _______ _____ _____    ______ ____
ROOT
ATOM      6  C   UNL     1      -3.347   0.928  24.704  0.00  0.00    +0.421 C 
ATOM      7  O   UNL     1      -4.110   1.157  24.490  0.00  0.00    -0.225 OA
ATOM      8  N   UNL     1      -2.783   1.499  24.893  0.00  0.00    -0.166 NA
ENDROOT
BRANCH   6   5
ATOM      5  O   UNL     1      -3.148   0.128  24.730  0.00  0.00    -0.441 OA
BRANCH   5   2
ATOM      1  C   UNL     1      -4.276  -1.014  24.348  0.00  0.00    +0.044 C 
ATOM      2  C   UNL     1      -3.712  -0.443  24.539  0.00  0.00    +0.138 C 
ATOM      3  C   UNL     1      -3.895  -0.531  25.339  0.00  0.00    +0.044 C 
ATOM      4  C   UNL     1      -3.530  -0.356  23.739  0.00  0.00    +0.044 C 
ENDBRANCH   5   2
ENDBRANCH   6   5
BRANCH   8   9
ATOM      9  C   UNL     1      -2.981   2.300  24.867  0.00  0.00    +0.151 C 
BRANCH   9  10
ATOM     10  C   UNL     1      -2.429   2.869  25.095  0.00  0.00    +0.169 C 
ATOM     11  O   UNL     1      -1.704   2.723  25.460  0.00  0.00    -0.350 OA
ATOM     12  C   UNL     1      -1.332   3.448  25.589  0.00  0.00    +0.164 C 
ATOM     13  C   UNL     1      -1.828   4.042  25.303  0.00  0.00    +0.154 C 
ATOM     14  N   UNL     1      -1.672   4.853  25.320  0.00  0.00    -0.127 NA
ATOM     15  C   UNL     1      -2.506   3.685  24.998  0.00  0.00    +0.201 C 
ATOM     16  O   UNL     1      -3.147   4.074  24.657  0.00  0.00    -0.219 OA
ENDBRANCH   9  10
ENDBRANCH   8   9
TORSDOF 4
ENDMDL
MODEL 6
REMARK VINA RESULT:      -6.6      2.285      4.506
REMARK  Name = 
REMARK  4 active torsions:
REMARK  status: ('A' for Active; 'I' for Inactive)
REMARK    1  A    between atoms: C_2  and  O_5
REMARK    2  A    between atoms: O_5  and  C_6
REMARK    3  A    between atoms: N_8  and  C_9
REMARK    4  A    between atoms: C_9  and  C_10
REMARK                            x       y       z     vdW  Elec       q    Type
REMARK                         _______ _______ _______ _____ _____    ______ ____
ROOT
ATOM      6  C   UNL     1      -2.340   3.061  25.014  0.00  0.00    +0.421 C 
ATOM      7  O   UNL     1      -2.770   3.463  24.437  0.00  0.00    -0.225 OA
ATOM      8  N   UNL     1      -2.466   2.255  25.136  0.00  0.00    -0.166 NA
ENDROOT
BRANCH   6   5
ATOM      5  O   UNL     1      -1.782   3.464  25.470  0.00  0.00    -0.441 OA
BRANCH   5   2
ATOM      1  C   UNL     1      -1.411   5.033  25.120  0.00  0.00    +0.044 C 
ATOM      2  C   UNL     1      -1.596   4.248  25.295  0.00  0.00    +0.138 C 
ATOM      3  C   UNL     1      -2.260   4.499  25.715  0.00  0.00    +0.044 C 
ATOM      4  C   UNL     1      -0.932   3.997  24.874  0.00  0.00    +0.044 C 
ENDBRANCH   5   2
ENDBRANCH   6   5
BRANCH   8   9
ATOM      9  C   UNL     1      -3.023   1.851  24.681  0.00  0.00    +0.151 C 
BRANCH   9  10
ATOM     10  C   UNL     1      -3.101   1.033  24.754  0.00  0.00    +0.169 C 
ATOM     11  O   UNL     1      -2.505   0.506  24.973  0.00  0.00    -0.350 OA
ATOM     12  C   UNL     1      -2.825  -0.254  24.975  0.00  0.00    +0.164 C 
ATOM     13  C   UNL     1      -3.619  -0.198  24.758  0.00  0.00    +0.154 C 
ATOM     14  N   UNL     1      -4.149  -0.827  24.689  0.00  0.00    -0.127 NA
ATOM     15  C   UNL     1      -3.790   0.597  24.621  0.00  0.00    +0.201 C 
ATOM     16  O   UNL     1      -4.520   0.904  24.392  0.00  0.00    -0.219 OA
ENDBRANCH   9  10
ENDBRANCH   8   9
TORSDOF 4
ENDMDL
