MODEL 1
REMARK VINA RESULT:     -13.6      0.000      0.000
REMARK  Name = 
REMARK  5 active torsions:
REMARK  status: ('A' for Active; 'I' for Inactive)
REMARK    1  A    between atoms: C_2  and  C_4
REMARK    2  A    between atoms: C_4  and  C_5
REMARK    3  A    between atoms: C_5  and  C_6
REMARK    4  A    between atoms: C_13  and  C_14
REMARK    5  A    between atoms: C_16  and  C_19
REMARK                            x       y       z     vdW  Elec       q    Type
REMARK                         _______ _______ _______ _____ _____    ______ ____
ROOT
ATOM      6  C   UNL     1      -3.814   2.932  24.886  0.00  0.00    +0.227 C 
ATOM      7  O   UNL     1      -4.026   2.192  24.590  0.00  0.00    -0.275 OA
ATOM      8  N   UNL     1      -3.032   3.188  24.838  0.00  0.00    -0.267 N 
ATOM      9  C   UNL     1      -2.820   3.928  25.135  0.00  0.00    +0.141 C 
ATOM     10  C   UNL     1      -2.038   4.183  25.086  0.00  0.00    +0.094 A 
ATOM     11  C   UNL     1      -1.466   3.699  24.741  0.00  0.00    +0.078 A 
ATOM     12  C   UNL     1      -1.678   2.959  24.444  0.00  0.00    +0.077 C 
ATOM     13  C   UNL     1      -2.460   2.703  24.493  0.00  0.00    +0.161 C 
ATOM     29  N   UNL     1      -0.743   4.096  24.770  0.00  0.00    -0.227 NA
ATOM     30  C   UNL     1      -0.868   4.826  25.134  0.00  0.00    +0.198 A 
ATOM     31  N   UNL     1      -1.668   4.880  25.329  0.00  0.00    -0.225 NA
ENDROOT
BRANCH  13  14
ATOM     14  C   UNL     1      -2.672   1.963  24.196  0.00  0.00    +0.255 A 
ATOM     15  N   UNL     1      -2.613   1.245  24.597  0.00  0.00    -0.189 NA
ATOM     16  C   UNL     1      -2.884   0.649  24.094  0.00  0.00    +0.203 A 
ATOM     17  N   UNL     1      -3.110   0.999  23.382  0.00  0.00    -0.056 NA
ATOM     18  O   UNL     1      -2.979   1.812  23.445  0.00  0.00    -0.335 OA
BRANCH  16  19
ATOM     19  C   UNL     1      -2.921  -0.156  24.273  0.00  0.00    +0.039 A 
ATOM     20  C   UNL     1      -3.542  -0.615  23.983  0.00  0.00    +0.003 A 
ATOM     21  C   UNL     1      -3.579  -1.419  24.162  0.00  0.00    +0.000 A 
ATOM     22  C   UNL     1      -4.200  -1.878  23.872  0.00  0.00    +0.000 A 
ATOM     23  C   UNL     1      -4.237  -2.682  24.051  0.00  0.00    +0.000 A 
ATOM     24  C   UNL     1      -3.652  -3.028  24.521  0.00  0.00    +0.000 A 
ATOM     25  C   UNL     1      -3.032  -2.569  24.811  0.00  0.00    +0.000 A 
ATOM     26  C   UNL     1      -2.994  -1.764  24.632  0.00  0.00    +0.000 A 
ATOM     27  C   UNL     1      -2.374  -1.306  24.922  0.00  0.00    +0.000 A 
ATOM     28  C   UNL     1      -2.337  -0.502  24.743  0.00  0.00    +0.003 A 
ENDBRANCH  16  19
ENDBRANCH  13  14
BRANCH   6   5
ATOM      5  C   UNL     1      -4.386   3.417  25.232  0.00  0.00    +0.097 C 
BRANCH   5   4
ATOM      4  C   UNL     1      -5.176   3.178  25.245  0.00  0.00    +0.124 C 
BRANCH   4   2
ATOM      1  O   UNL     1      -6.006   4.256  25.683  0.00  0.00    -0.246 OA
ATOM      2  C   UNL     1      -5.695   3.501  25.799  0.00  0.00    +0.365 C 
ATOM      3  O   UNL     1      -5.904   3.068  26.470  0.00  0.00    -0.246 OA
ENDBRANCH   4   2
ENDBRANCH   5   4
ENDBRANCH   6   5
TORSDOF 5
ENDMDL
MODEL 2
REMARK VINA RESULT:     -12.8      1.472      2.774
REMARK  Name = 
REMARK  5 active torsions:
REMARK  status: ('A' for Active; 'I' for Inactive)
REMARK    1  A    between atoms: C_2  and  C_4
REMARK    2  A    between atoms: C_4  and  C_5
REMARK    3  A    between atoms: C_5  and  C_6
REMARK    4  A    between atoms: C_13  and  C_14
REMARK    5  A    between atoms: C_16  and  C_19
REMARK                            x       y       z     vdW  Elec       q    Type
REMARK                         _______ _______ _______ _____ _____    ______ ____
ROOT
ATOM      6  C   UNL     1      -2.714   2.652  24.865  0.00  0.00    +0.227 C 
ATOM      7  O   UNL     1      -2.503   1.957  24.474  0.00  0.00    -0.275 OA
ATOM      8  N   UNL     1      -3.510   2.827  24.993  0.00  0.00    -0.267 N 
ATOM      9  C   UNL     1      -3.721   3.523  25.384  0.00  0.00    +0.141 C 
ATOM     10  C   UNL     1      -4.517   3.697  25.513  0.00  0.00    +0.094 A 
ATOM     11  C   UNL     1      -5.102   3.178  25.251  0.00  0.00    +0.078 A 
ATOM     12  C   UNL     1      -4.890   2.483  24.860  0.00  0.00    +0.077 C 
ATOM     13  C   UNL     1      -4.094   2.308  24.731  0.00  0.00    +0.161 C 
ATOM     29  N   UNL     1      -5.835   3.495  25.456  0.00  0.00    -0.227 NA
ATOM     30  C   UNL     1      -5.704   4.211  25.844  0.00  0.00    +0.198 A 
ATOM     31  N   UNL     1      -4.889   4.336  25.879  0.00  0.00    -0.225 NA
ENDROOT
BRANCH  13  14
ATOM     14  C   UNL     1      -3.883   1.612  24.340  0.00  0.00    +0.255 A 
ATOM     15  N   UNL     1      -3.970   0.846  24.633  0.00  0.00    -0.189 NA
ATOM     16  C   UNL     1      -3.689   0.321  24.061  0.00  0.00    +0.203 A 
ATOM     17  N   UNL     1      -3.428   0.764  23.415  0.00  0.00    -0.056 NA
ATOM     18  O   UNL     1      -3.548   1.562  23.588  0.00  0.00    -0.335 OA
BRANCH  16  19
ATOM     19  C   UNL     1      -3.672  -0.501  24.124  0.00  0.00    +0.039 A 
ATOM     20  C   UNL     1      -2.996  -0.879  24.406  0.00  0.00    +0.003 A 
ATOM     21  C   UNL     1      -2.979  -1.701  24.470  0.00  0.00    +0.000 A 
ATOM     22  C   UNL     1      -2.302  -2.080  24.752  0.00  0.00    +0.000 A 
ATOM     23  C   UNL     1      -2.286  -2.902  24.816  0.00  0.00    +0.000 A 
ATOM     24  C   UNL     1      -2.947  -3.347  24.596  0.00  0.00    +0.000 A 
ATOM     25  C   UNL     1      -3.622  -2.968  24.314  0.00  0.00    +0.000 A 
ATOM     26  C   UNL     1      -3.640  -2.146  24.251  0.00  0.00    +0.000 A 
ATOM     27  C   UNL     1      -4.316  -1.767  23.969  0.00  0.00    +0.000 A 
ATOM     28  C   UNL     1      -4.332  -0.946  23.905  0.00  0.00    +0.003 A 
ENDBRANCH  16  19
ENDBRANCH  13  14
BRANCH   6   5
ATOM      5  C   UNL     1      -2.129   3.172  25.127  0.00  0.00    +0.097 C 
BRANCH   5   4
ATOM      4  C   UNL     1      -1.334   3.006  24.980  0.00  0.00    +0.124 C 
BRANCH   4   2
ATOM      1  O   UNL     1      -0.287   3.194  25.934  0.00  0.00    -0.246 OA
ATOM      2  C   UNL     1      -0.746   3.480  25.311  0.00  0.00    +0.365 C 
ATOM      3  O   UNL     1      -0.617   4.242  25.019  0.00  0.00    -0.246 OA
ENDBRANCH   4   2
ENDBRANCH   5   4
ENDBRANCH   6   5
TORSDOF 5
ENDMDL
MODEL 3
REMARK VINA RESULT:     -11.9      2.491      6.042
REMARK  Name = 
REMARK  5 active torsions:
REMARK  status: ('A' for Active; 'I' for Inactive)
REMARK    1  A    between atoms: C_2  and  C_4
REMARK    2  A    between atoms: C_4  and  C_5
REMARK    3  A    between atoms: C_5  and  C_6
REMARK    4  A    between atoms: C_13  and  C_14
REMARK    5  A    between atoms: C_16  and  C_19
REMARK                            x       y       z     vdW  Elec       q    Type
REMARK                         _______ _______ _______ _____ _____    ______ ____
ROOT
ATOM      6  C   UNL     1      -0.153   0.014  24.117  0.00  0.00    +0.227 C 
ATOM      7  O   UNL     1      -0.002   0.771  24.409  0.00  0.00    -0.275 OA
ATOM      8  N   UNL     1      -0.785  -0.425  24.414  0.00  0.00    -0.267 N 
ATOM      9  C   UNL     1      -0.935  -1.181  24.121  0.00  0.00    +0.141 C 
ATOM     10  C   UNL     1      -1.567  -1.620  24.419  0.00  0.00    +0.094 A 
ATOM     11  C   UNL     1      -2.048  -1.303  25.010  0.00  0.00    +0.078 A 
ATOM     12  C   UNL     1      -1.897  -0.547  25.302  0.00  0.00    +0.077 C 
ATOM     13  C   UNL     1      -1.266  -0.108  25.004  0.00  0.00    +0.161 C 
ATOM     29  N   UNL     1      -2.626  -1.862  25.195  0.00  0.00    -0.227 NA
ATOM     30  C   UNL     1      -2.503  -2.525  24.719  0.00  0.00    +0.198 A 
ATOM     31  N   UNL     1      -1.848  -2.375  24.240  0.00  0.00    -0.225 NA
ENDROOT
BRANCH  13  14
ATOM     14  C   UNL     1      -1.115   0.649  25.298  0.00  0.00    +0.255 A 
ATOM     15  N   UNL     1      -1.518   1.338  25.090  0.00  0.00    -0.189 NA
ATOM     16  C   UNL     1      -1.187   1.964  25.514  0.00  0.00    +0.203 A 
ATOM     17  N   UNL     1      -0.579   1.662  25.984  0.00  0.00    -0.056 NA
ATOM     18  O   UNL     1      -0.535   0.848  25.850  0.00  0.00    -0.335 OA
BRANCH  16  19
ATOM     19  C   UNL     1      -1.422   2.754  25.474  0.00  0.00    +0.039 A 
ATOM     20  C   UNL     1      -0.912   3.322  25.163  0.00  0.00    +0.003 A 
ATOM     21  C   UNL     1      -1.148   4.111  25.124  0.00  0.00    +0.000 A 
ATOM     22  C   UNL     1      -0.638   4.680  24.813  0.00  0.00    +0.000 A 
ATOM     23  C   UNL     1      -0.874   5.469  24.773  0.00  0.00    +0.000 A 
ATOM     24  C   UNL     1      -1.621   5.691  25.046  0.00  0.00    +0.000 A 
ATOM     25  C   UNL     1      -2.131   5.123  25.358  0.00  0.00    +0.000 A 
ATOM     26  C   UNL     1      -1.896   4.333  25.397  0.00  0.00    +0.000 A 
ATOM     27  C   UNL     1      -2.406   3.765  25.708  0.00  0.00    +0.000 A 
ATOM     28  C   UNL     1      -2.170   2.976  25.747  0.00  0.00    +0.003 A 
ENDBRANCH  16  19
ENDBRANCH  13  14
BRANCH   6   5
ATOM      5  C   UNL     1       0.328  -0.303  23.526  0.00  0.00    +0.097 C 
BRANCH   5   4
ATOM      4  C   UNL     1       0.880   0.176  23.141  0.00  0.00    +0.124 C 
BRANCH   4   2
ATOM      1  O   UNL     1       2.196  -0.296  22.852  0.00  0.00    -0.246 OA
ATOM      2  C   UNL     1       1.419  -0.157  22.614  0.00  0.00    +0.365 C 
ATOM      3  O   UNL     1       1.181  -0.352  21.848  0.00  0.00    -0.246 OA
ENDBRANCH   4   2
ENDBRANCH   5   4
ENDBRANCH   6   5
TORSDOF 5
ENDMDL
MODEL 4
REMARK VINA RESULT:     -11.7      2.078      3.555
REMARK  Name = 
REMARK  5 active torsions:
REMARK  status: ('A' for Active; 'I' for Inactive)
REMARK    1  A    between atoms: C_2  and  C_4
REMARK    2  A    between atoms: C_4  and  C_5
REMARK    3  A    between atoms: C_5  and  C_6
REMARK    4  A    between atoms: C_13  and  C_14
REMARK    5  A    between atoms: C_16  and  C_19
REMARK                            x       y       z     vdW  Elec       q    Type
REMARK                         _______ _______ _______ _____ _____    ______ ____
ROOT
ATOM      6  C   UNL     1      -0.167   1.494  24.402  0.00  0.00    +0.227 C 
ATOM      7  O   UNL     1      -0.489   0.746  24.537  0.00  0.00    -0.275 OA
ATOM      8  N   UNL     1      -0.576   2.168  24.642  0.00  0.00    -0.267 N 
ATOM      9  C   UNL     1      -0.253   2.916  24.507  0.00  0.00    +0.141 C 
ATOM     10  C   UNL     1      -0.662   3.591  24.746  0.00  0.00    +0.094 A 
ATOM     11  C   UNL     1      -1.393   3.519  25.122  0.00  0.00    +0.078 A 
ATOM     12  C   UNL     1      -1.715   2.772  25.257  0.00  0.00    +0.077 C 
ATOM     13  C   UNL     1      -1.306   2.097  25.017  0.00  0.00    +0.161 C 
ATOM     29  N   UNL     1      -1.666   4.278  25.295  0.00  0.00    -0.227 NA
ATOM     30  C   UNL     1      -1.104   4.819  25.027  0.00  0.00    +0.198 A 
ATOM     31  N   UNL     1      -0.483   4.394  24.688  0.00  0.00    -0.225 NA
ENDROOT
BRANCH  13  14
ATOM     14  C   UNL     1      -1.629   1.349  25.152  0.00  0.00    +0.255 A 
ATOM     15  N   UNL     1      -2.192   0.972  24.682  0.00  0.00    -0.189 NA
ATOM     16  C   UNL     1      -2.356   0.238  25.021  0.00  0.00    +0.203 A 
ATOM     17  N   UNL     1      -1.895   0.161  25.701  0.00  0.00    -0.056 NA
ATOM     18  O   UNL     1      -1.445   0.849  25.782  0.00  0.00    -0.335 OA
BRANCH  16  19
ATOM     19  C   UNL     1      -2.889  -0.322  24.731  0.00  0.00    +0.039 A 
ATOM     20  C   UNL     1      -2.723  -1.126  24.804  0.00  0.00    +0.003 A 
ATOM     21  C   UNL     1      -3.255  -1.685  24.513  0.00  0.00    +0.000 A 
ATOM     22  C   UNL     1      -3.090  -2.490  24.587  0.00  0.00    +0.000 A 
ATOM     23  C   UNL     1      -3.622  -3.049  24.296  0.00  0.00    +0.000 A 
ATOM     24  C   UNL     1      -4.321  -2.803  23.932  0.00  0.00    +0.000 A 
ATOM     25  C   UNL     1      -4.487  -1.998  23.859  0.00  0.00    +0.000 A 
ATOM     26  C   UNL     1      -3.954  -1.439  24.149  0.00  0.00    +0.000 A 
ATOM     27  C   UNL     1      -4.120  -0.635  24.076  0.00  0.00    +0.000 A 
ATOM     28  C   UNL     1      -3.588  -0.076  24.366  0.00  0.00    +0.003 A 
ENDBRANCH  16  19
ENDBRANCH  13  14
BRANCH   6   5
ATOM      5  C   UNL     1       0.565   1.565  24.027  0.00  0.00    +0.097 C 
BRANCH   5   4
ATOM      4  C   UNL     1       1.013   0.891  23.865  0.00  0.00    +0.124 C 
BRANCH   4   2
ATOM      1  O   UNL     1       2.251   1.499  23.491  0.00  0.00    -0.246 OA
ATOM      2  C   UNL     1       1.661   0.940  23.356  0.00  0.00    +0.365 C 
ATOM      3  O   UNL     1       1.718   0.428  22.711  0.00  0.00    -0.246 OA
ENDBRANCH   4   2
ENDBRANCH   5   4
ENDBRANCH   6   5
TORSDOF 5
ENDMDL
MODEL 5
REMARK VINA RESULT:     -11.3      1.443      4.749
REMARK  Name = 
REMARK  5 active torsions:
REMARK  status: ('A' for Active; 'I' for Inactive)
REMARK    1  A    between atoms: C_2  and  C_4
REMARK    2  A    between atoms: C_4  and  C_5
REMARK    3  A    between atoms: C_5  and  C_6
REMARK    4  A    between atoms: C_13  and  C_14
REMARK    5  A    between atoms: C_16  and  C_19
REMARK                            x       y       z     vdW  Elec       q    Type
REMARK                         _______ _______ _______ _____ _____    ______ ____
ROOT
ATOM      6  C   UNL     1      -4.239   0.891  24.674  0.00  0.00    +0.227 C 
ATOM      7  O   UNL     1      -3.900   1.577  24.366  0.00  0.00    -0.275 OA
ATOM      8  N   UNL     1      -3.801   0.192  24.702  0.00  0.00    -0.267 N 
ATOM      9  C   UNL     1      -4.140  -0.495  25.010  0.00  0.00    +0.141 C 
ATOM     10  C   UNL     1      -3.703  -1.193  25.038  0.00  0.00    +0.094 A 
ATOM     11  C   UNL     1      -2.927  -1.206  24.758  0.00  0.00    +0.078 A 
ATOM     12  C   UNL     1      -2.589  -0.520  24.450  0.00  0.00    +0.077 C 
ATOM     13  C   UNL     1      -3.026   0.179  24.422  0.00  0.00    +0.161 C 
ATOM     29  N   UNL     1      -2.633  -1.971  24.856  0.00  0.00    -0.227 NA
ATOM     30  C   UNL     1      -3.228  -2.431  25.197  0.00  0.00    +0.198 A 
ATOM     31  N   UNL     1      -3.888  -1.950  25.309  0.00  0.00    -0.225 NA
ENDROOT
BRANCH  13  14
ATOM     14  C   UNL     1      -2.687   0.866  24.114  0.00  0.00    +0.255 A 
ATOM     15  N   UNL     1      -2.271   1.435  24.542  0.00  0.00    -0.189 NA
ATOM     16  C   UNL     1      -2.032   2.024  24.015  0.00  0.00    +0.203 A 
ATOM     17  N   UNL     1      -2.299   1.818  23.262  0.00  0.00    -0.056 NA
ATOM     18  O   UNL     1      -2.705   1.102  23.324  0.00  0.00    -0.335 OA
BRANCH  16  19
ATOM     19  C   UNL     1      -1.600   2.701  24.209  0.00  0.00    +0.039 A 
ATOM     20  C   UNL     1      -1.987   3.368  24.498  0.00  0.00    +0.003 A 
ATOM     21  C   UNL     1      -1.555   4.044  24.692  0.00  0.00    +0.000 A 
ATOM     22  C   UNL     1      -1.942   4.713  24.982  0.00  0.00    +0.000 A 
ATOM     23  C   UNL     1      -1.511   5.388  25.175  0.00  0.00    +0.000 A 
ATOM     24  C   UNL     1      -0.690   5.395  25.078  0.00  0.00    +0.000 A 
ATOM     25  C   UNL     1      -0.303   4.727  24.789  0.00  0.00    +0.000 A 
ATOM     26  C   UNL     1      -0.735   4.051  24.595  0.00  0.00    +0.000 A 
ATOM     27  C   UNL     1      -0.348   3.383  24.305  0.00  0.00    +0.000 A 
ATOM     28  C   UNL     1      -0.780   2.708  24.112  0.00  0.00    +0.003 A 
ENDBRANCH  16  19
ENDBRANCH  13  14
BRANCH   6   5
ATOM      5  C   UNL     1      -5.015   0.904  24.955  0.00  0.00    +0.097 C 
BRANCH   5   4
ATOM      4  C   UNL     1      -5.428   1.617  24.993  0.00  0.00    +0.124 C 
BRANCH   4   2
ATOM      1  O   UNL     1      -6.837   1.608  24.758  0.00  0.00    -0.246 OA
ATOM      2  C   UNL     1      -6.200   1.632  25.281  0.00  0.00    +0.365 C 
ATOM      3  O   UNL     1      -6.336   1.670  26.095  0.00  0.00    -0.246 OA
ENDBRANCH   4   2
ENDBRANCH   5   4
ENDBRANCH   6   5
TORSDOF 5
ENDMDL
MODEL 6
REMARK VINA RESULT:     -11.1      2.288      5.007
REMARK  Name = 
REMARK  5 active torsions:
REMARK  status: ('A' for Active; 'I' for Inactive)
REMARK    1  A    between atoms: C_2  and  C_4
REMARK    2  A    between atoms: C_4  and  C_5
REMARK    3  A    between atoms: C_5  and  C_6
REMARK    4  A    between atoms: C_13  and  C_14
REMARK    5  A    between atoms: C_16  and  C_19
REMARK                            x       y       z     vdW  Elec       q    Type
REMARK                         _______ _______ _______ _____ _____    ______ ____
ROOT
ATOM      6  C   UNL     1      -1.241   0.701  24.391  0.00  0.00    +0.227 C 
ATOM      7  O   UNL     1      -1.815   1.264  24.209  0.00  0.00    -0.275 OA
ATOM      8  N   UNL     1      -1.456  -0.088  24.503  0.00  0.00    -0.267 N 
ATOM      9  C   UNL     1      -0.881  -0.651  24.686  0.00  0.00    +0.141 C 
ATOM     10  C   UNL     1      -1.097  -1.439  24.798  0.00  0.00    +0.094 A 
ATOM     11  C   UNL     1      -1.887  -1.665  24.727  0.00  0.00    +0.078 A 
ATOM     12  C   UNL     1      -2.462  -1.101  24.545  0.00  0.00    +0.077 C 
ATOM     13  C   UNL     1      -2.246  -0.313  24.433  0.00  0.00    +0.161 C 
ATOM     29  N   UNL     1      -1.934  -2.476  24.867  0.00  0.00    -0.227 NA
ATOM     30  C   UNL     1      -1.172  -2.753  25.024  0.00  0.00    +0.198 A 
ATOM     31  N   UNL     1      -0.655  -2.111  24.981  0.00  0.00    -0.225 NA
ENDROOT
BRANCH  13  14
ATOM     14  C   UNL     1      -2.822   0.250  24.251  0.00  0.00    +0.255 A 
ATOM     15  N   UNL     1      -3.313   0.633  24.791  0.00  0.00    -0.189 NA
ATOM     16  C   UNL     1      -3.802   1.148  24.370  0.00  0.00    +0.203 A 
ATOM     17  N   UNL     1      -3.612   1.083  23.569  0.00  0.00    -0.056 NA
ATOM     18  O   UNL     1      -3.006   0.527  23.496  0.00  0.00    -0.335 OA
BRANCH  16  19
ATOM     19  C   UNL     1      -4.378   1.642  24.693  0.00  0.00    +0.039 A 
ATOM     20  C   UNL     1      -4.223   2.445  24.799  0.00  0.00    +0.003 A 
ATOM     21  C   UNL     1      -4.800   2.937  25.122  0.00  0.00    +0.000 A 
ATOM     22  C   UNL     1      -4.644   3.741  25.228  0.00  0.00    +0.000 A 
ATOM     23  C   UNL     1      -5.221   4.234  25.551  0.00  0.00    +0.000 A 
ATOM     24  C   UNL     1      -5.955   3.923  25.768  0.00  0.00    +0.000 A 
ATOM     25  C   UNL     1      -6.110   3.120  25.663  0.00  0.00    +0.000 A 
ATOM     26  C   UNL     1      -5.533   2.627  25.339  0.00  0.00    +0.000 A 
ATOM     27  C   UNL     1      -5.689   1.824  25.234  0.00  0.00    +0.000 A 
ATOM     28  C   UNL     1      -5.112   1.331  24.911  0.00  0.00    +0.003 A 
ENDBRANCH  16  19
ENDBRANCH  13  14
BRANCH   6   5
ATOM      5  C   UNL     1      -0.450   0.927  24.462  0.00  0.00    +0.097 C 
BRANCH   5   4
ATOM      4  C   UNL     1      -0.239   1.720  24.381  0.00  0.00    +0.124 C 
BRANCH   4   2
ATOM      1  O   UNL     1       1.141   1.891  24.052  0.00  0.00    -0.246 OA
ATOM      2  C   UNL     1       0.520   1.968  24.589  0.00  0.00    +0.365 C 
ATOM      3  O   UNL     1       0.658   2.295  25.334  0.00  0.00    -0.246 OA
ENDBRANCH   4   2
ENDBRANCH   5   4
ENDBRANCH   6   5
TORSDOF 5
ENDMDL
