REMARK  Name = 
REMARK  6 active torsions:
REMARK  status: ('A' for Active; 'I' for Inactive)
REMARK    1  A    between atoms: O_2  and  C_3
REMARK    2  A    between atoms: C_3  and  C_5
REMARK    3  A    between atoms: C_10  and  C_12
REMARK    4  A    between atoms: C_13  and  N_25
REMARK    5  A    between atoms: C_17  and  C_19
REMARK    6  A    between atoms: N_28  and  C_29
REMARK                            x       y       z     vdW  Elec       q    Type
REMARK                         _______ _______ _______ _____ _____    ______ ____
ROOT
ATOM     12  C   UNL     1      -1.901  -3.868   0.000  0.00  0.00    +0.172 C 
ATOM     13  C   UNL     1      -1.814  -4.689   0.000  0.00  0.00    +0.126 C 
ATOM     14  C   UNL     1      -2.568  -5.024   0.000  0.00  0.00    +0.045 C 
ATOM     15  C   UNL     1      -3.120  -4.411   0.000  0.00  0.00    +0.096 C 
ATOM     16  N   UNL     1      -2.708  -3.697   0.000  0.00  0.00    -0.267 N 
ATOM     17  C   UNL     1      -3.043  -2.943   0.000  0.00  0.00    +0.265 C 
ATOM     18  O   UNL     1      -2.558  -2.276   0.000  0.00  0.00    -0.268 OA
ENDROOT
BRANCH  12  10
ATOM      5  C   UNL     1       0.165  -3.086   0.000  0.00  0.00    +0.175 C 
ATOM      6  C   UNL     1       0.832  -3.571   0.000  0.00  0.00    +0.033 C 
ATOM      7  C   UNL     1       0.577  -4.356   0.000  0.00  0.00    +0.024 C 
ATOM      8  C   UNL     1      -0.248  -4.356   0.000  0.00  0.00    +0.094 C 
ATOM      9  N   UNL     1      -0.503  -3.571   0.000  0.00  0.00    -0.270 N 
ATOM     10  C   UNL     1      -1.288  -3.316   0.000  0.00  0.00    +0.246 C 
ATOM     11  O   UNL     1      -1.459  -2.509   0.000  0.00  0.00    -0.273 OA
BRANCH   5   3
ATOM      3  C   UNL     1       0.165  -2.261   0.000  0.00  0.00    +0.335 C 
ATOM      4  O   UNL     1      -0.550  -1.849   0.000  0.00  0.00    -0.248 OA
BRANCH   3   2
ATOM      1  C   UNL     1       0.879  -1.024   0.000  0.00  0.00    +0.256 C 
ATOM      2  O   UNL     1       0.879  -1.849   0.000  0.00  0.00    -0.443 OA
ENDBRANCH   3   2
ENDBRANCH   5   3
ENDBRANCH  12  10
BRANCH  17  19
ATOM     19  C   UNL     1      -3.864  -2.857   0.000  0.00  0.00    +0.114 A 
ATOM     20  C   UNL     1      -4.276  -2.143   0.000  0.00  0.00    +0.023 A 
ATOM     21  C   UNL     1      -5.083  -2.314   0.000  0.00  0.00    +0.020 A 
ATOM     22  C   UNL     1      -5.169  -3.135   0.000  0.00  0.00    +0.076 A 
ATOM     23  N   UNL     1      -4.416  -3.470   0.000  0.00  0.00    -0.320 N 
ATOM     24  C   UNL     1      -4.244  -4.277   0.000  0.00  0.00    +0.131 C 
ENDBRANCH  17  19
BRANCH  13  25
ATOM     25  N   UNL     1      -1.100  -5.101   0.000  0.00  0.00    -0.187 NA
ATOM     26  C   UNL     1      -1.100  -5.926   0.000  0.00  0.00    +0.339 C 
ATOM     27  O   UNL     1      -1.814  -6.339   0.000  0.00  0.00    -0.249 OA
ATOM     28  N   UNL     1      -0.386  -6.339   0.000  0.00  0.00    -0.189 NA
BRANCH  28  29
ATOM     29  C   UNL     1      -0.386  -7.164   0.000  0.00  0.00    +0.097 C 
ATOM     30  C   UNL     1       0.329  -7.576   0.000  0.00  0.00    +0.022 C 
ATOM     31  C   UNL     1       0.329  -8.401   0.000  0.00  0.00    +0.002 C 
ATOM     32  C   UNL     1      -0.386  -8.814   0.000  0.00  0.00    +0.000 C 
ATOM     33  C   UNL     1      -1.100  -8.401   0.000  0.00  0.00    +0.002 C 
ATOM     34  C   UNL     1      -1.100  -7.576   0.000  0.00  0.00    +0.022 C 
ENDBRANCH  28  29
ENDBRANCH  13  25
TORSDOF 6
