MODEL 1
REMARK VINA RESULT:      -9.0      0.000      0.000
REMARK  Name = 
REMARK  7 active torsions:
REMARK  status: ('A' for Active; 'I' for Inactive)
REMARK    1  A    between atoms: C_2  and  C_4
REMARK    2  A    between atoms: C_6  and  C_7
REMARK    3  A    between atoms: C_7  and  C_8
REMARK    4  A    between atoms: N_10  and  C_12
REMARK    5  A    between atoms: C_12  and  C_13
REMARK    6  A    between atoms: C_13  and  C_14
REMARK    7  A    between atoms: C_19  and  C_20
REMARK                            x       y       z     vdW  Elec       q    Type
REMARK                         _______ _______ _______ _____ _____    ______ ____
ROOT
ATOM      4  C   UNL     1      -2.231  -1.030  24.960  0.00  0.00    +0.007 C 
ATOM      5  C   UNL     1      -2.841  -0.475  24.943  0.00  0.00    +0.005 C 
ATOM      6  C   UNL     1      -3.570  -0.675  24.612  0.00  0.00    +0.027 C 
ATOM     16  C   UNL     1      -3.688  -1.428  24.298  0.00  0.00    -0.048 C 
ATOM     17  C   UNL     1      -4.416  -1.627  23.967  0.00  0.00    +0.026 C 
ATOM     18  C   UNL     1      -3.077  -1.983  24.316  0.00  0.00    -0.032 C 
ATOM     19  C   UNL     1      -2.349  -1.783  24.647  0.00  0.00    +0.054 C 
ENDROOT
BRANCH   4   2
ATOM      1  C   UNL     1      -1.405  -0.839  26.111  0.00  0.00    +0.000 C 
ATOM      2  C   UNL     1      -1.501  -0.831  25.292  0.00  0.00    +0.000 C 
ATOM      3  C   UNL     1      -0.869  -0.623  24.804  0.00  0.00    +0.000 C 
ENDBRANCH   4   2
BRANCH  19  20
ATOM     20  C   UNL     1      -1.738  -2.338  24.664  0.00  0.00    +0.186 C 
ATOM     21  O   UNL     1      -1.829  -3.065  24.285  0.00  0.00    -0.220 OA
ENDBRANCH  19  20
BRANCH   6   7
ATOM      7  C   UNL     1      -4.180  -0.120  24.594  0.00  0.00    +0.089 C 
BRANCH   7   8
ATOM      8  C   UNL     1      -4.041   0.634  24.290  0.00  0.00    +0.226 C 
ATOM      9  O   UNL     1      -3.539   0.733  23.645  0.00  0.00    -0.275 OA
ATOM     10  N   UNL     1      -4.407   1.290  24.633  0.00  0.00    -0.277 N 
ATOM     11  C   UNL     1      -4.910   1.191  25.280  0.00  0.00    +0.115 C 
BRANCH  10  12
ATOM     12  C   UNL     1      -4.269   2.046  24.330  0.00  0.00    +0.110 C 
BRANCH  12  13
ATOM     13  C   UNL     1      -4.494   2.711  24.762  0.00  0.00    +0.127 C 
BRANCH  13  14
ATOM     14  C   UNL     1      -4.178   3.449  24.575  0.00  0.00    +0.075 C 
ATOM     15  N   UNL     1      -3.860   4.188  24.388  0.00  0.00    -0.196 NA
ENDBRANCH  13  14
ENDBRANCH  12  13
ENDBRANCH  10  12
ENDBRANCH   7   8
ENDBRANCH   6   7
TORSDOF 7
ENDMDL
MODEL 2
REMARK VINA RESULT:      -8.9      1.786      4.482
REMARK  Name = 
REMARK  7 active torsions:
REMARK  status: ('A' for Active; 'I' for Inactive)
REMARK    1  A    between atoms: C_2  and  C_4
REMARK    2  A    between atoms: C_6  and  C_7
REMARK    3  A    between atoms: C_7  and  C_8
REMARK    4  A    between atoms: N_10  and  C_12
REMARK    5  A    between atoms: C_12  and  C_13
REMARK    6  A    between atoms: C_13  and  C_14
REMARK    7  A    between atoms: C_19  and  C_20
REMARK                            x       y       z     vdW  Elec       q    Type
REMARK                         _______ _______ _______ _____ _____    ______ ____
ROOT
ATOM      4  C   UNL     1      -4.133   2.484  24.553  0.00  0.00    +0.007 C 
ATOM      5  C   UNL     1      -4.130   1.662  24.484  0.00  0.00    +0.005 C 
ATOM      6  C   UNL     1      -4.708   1.215  24.869  0.00  0.00    +0.027 C 
ATOM     16  C   UNL     1      -5.287   1.590  25.320  0.00  0.00    -0.048 C 
ATOM     17  C   UNL     1      -5.865   1.144  25.704  0.00  0.00    +0.026 C 
ATOM     18  C   UNL     1      -5.289   2.413  25.389  0.00  0.00    -0.032 C 
ATOM     19  C   UNL     1      -4.711   2.859  25.005  0.00  0.00    +0.054 C 
ENDROOT
BRANCH   4   2
ATOM      1  C   UNL     1      -3.627   3.094  23.363  0.00  0.00    +0.000 C 
ATOM      2  C   UNL     1      -3.554   2.932  24.169  0.00  0.00    +0.000 C 
ATOM      3  C   UNL     1      -2.905   3.216  24.590  0.00  0.00    +0.000 C 
ENDBRANCH   4   2
BRANCH  19  20
ATOM     20  C   UNL     1      -4.713   3.682  25.073  0.00  0.00    +0.186 C 
ATOM     21  O   UNL     1      -5.313   4.060  25.495  0.00  0.00    -0.220 OA
ENDBRANCH  19  20
BRANCH   6   7
ATOM      7  C   UNL     1      -4.706   0.393  24.800  0.00  0.00    +0.089 C 
BRANCH   7   8
ATOM      8  C   UNL     1      -4.027  -0.034  24.992  0.00  0.00    +0.226 C 
ATOM      9  O   UNL     1      -3.511   0.250  25.568  0.00  0.00    -0.275 OA
ATOM     10  N   UNL     1      -3.865  -0.746  24.607  0.00  0.00    -0.277 N 
ATOM     11  C   UNL     1      -4.382  -1.030  24.030  0.00  0.00    +0.115 C 
BRANCH  10  12
ATOM     12  C   UNL     1      -3.186  -1.174  24.799  0.00  0.00    +0.110 C 
BRANCH  12  13
ATOM     13  C   UNL     1      -3.054  -1.913  24.458  0.00  0.00    +0.127 C 
BRANCH  13  14
ATOM     14  C   UNL     1      -2.317  -2.276  24.534  0.00  0.00    +0.075 C 
ATOM     15  N   UNL     1      -1.581  -2.640  24.609  0.00  0.00    -0.196 NA
ENDBRANCH  13  14
ENDBRANCH  12  13
ENDBRANCH  10  12
ENDBRANCH   7   8
ENDBRANCH   6   7
TORSDOF 7
ENDMDL
MODEL 3
REMARK VINA RESULT:      -8.8      2.305      4.366
REMARK  Name = 
REMARK  7 active torsions:
REMARK  status: ('A' for Active; 'I' for Inactive)
REMARK    1  A    between atoms: C_2  and  C_4
REMARK    2  A    between atoms: C_6  and  C_7
REMARK    3  A    between atoms: C_7  and  C_8
REMARK    4  A    between atoms: N_10  and  C_12
REMARK    5  A    between atoms: C_12  and  C_13
REMARK    6  A    between atoms: C_13  and  C_14
REMARK    7  A    between atoms: C_19  and  C_20
REMARK                            x       y       z     vdW  Elec       q    Type
REMARK                         _______ _______ _______ _____ _____    ______ ____
ROOT
ATOM      4  C   UNL     1      -1.672   3.054  25.216  0.00  0.00    +0.007 C 
ATOM      5  C   UNL     1      -2.299   2.524  25.144  0.00  0.00    +0.005 C 
ATOM      6  C   UNL     1      -3.050   2.799  24.936  0.00  0.00    +0.027 C 
ATOM     16  C   UNL     1      -3.171   3.603  24.801  0.00  0.00    -0.048 C 
ATOM     17  C   UNL     1      -3.920   3.878  24.594  0.00  0.00    +0.026 C 
ATOM     18  C   UNL     1      -2.542   4.133  24.874  0.00  0.00    -0.032 C 
ATOM     19  C   UNL     1      -1.793   3.858  25.081  0.00  0.00    +0.054 C 
ENDROOT
BRANCH   4   2
ATOM      1  C   UNL     1      -0.734   2.653  26.218  0.00  0.00    +0.000 C 
ATOM      2  C   UNL     1      -0.922   2.779  25.424  0.00  0.00    +0.000 C 
ATOM      3  C   UNL     1      -0.360   2.629  24.839  0.00  0.00    +0.000 C 
ENDBRANCH   4   2
BRANCH  19  20
ATOM     20  C   UNL     1      -1.165   4.388  25.154  0.00  0.00    +0.186 C 
ATOM     21  O   UNL     1      -1.300   5.200  25.090  0.00  0.00    -0.220 OA
ENDBRANCH  19  20
BRANCH   6   7
ATOM      7  C   UNL     1      -3.677   2.269  24.864  0.00  0.00    +0.089 C 
BRANCH   7   8
ATOM      8  C   UNL     1      -3.575   1.564  24.447  0.00  0.00    +0.226 C 
ATOM      9  O   UNL     1      -3.056   1.535  23.808  0.00  0.00    -0.275 OA
ATOM     10  N   UNL     1      -3.993   0.888  24.671  0.00  0.00    -0.277 N 
ATOM     11  C   UNL     1      -4.512   0.917  25.311  0.00  0.00    +0.115 C 
BRANCH  10  12
ATOM     12  C   UNL     1      -3.890   0.183  24.254  0.00  0.00    +0.110 C 
BRANCH  12  13
ATOM     13  C   UNL     1      -4.283  -0.500  24.498  0.00  0.00    +0.127 C 
BRANCH  13  14
ATOM     14  C   UNL     1      -4.154  -1.212  24.102  0.00  0.00    +0.075 C 
ATOM     15  N   UNL     1      -4.024  -1.925  23.706  0.00  0.00    -0.196 NA
ENDBRANCH  13  14
ENDBRANCH  12  13
ENDBRANCH  10  12
ENDBRANCH   7   8
ENDBRANCH   6   7
TORSDOF 7
ENDMDL
MODEL 4
REMARK VINA RESULT:      -8.8      1.912      4.157
REMARK  Name = 
REMARK  7 active torsions:
REMARK  status: ('A' for Active; 'I' for Inactive)
REMARK    1  A    between atoms: C_2  and  C_4
REMARK    2  A    between atoms: C_6  and  C_7
REMARK    3  A    between atoms: C_7  and  C_8
REMARK    4  A    between atoms: N_10  and  C_12
REMARK    5  A    between atoms: C_12  and  C_13
REMARK    6  A    between atoms: C_13  and  C_14
REMARK    7  A    between atoms: C_19  and  C_20
REMARK                            x       y       z     vdW  Elec       q    Type
REMARK                         _______ _______ _______ _____ _____    ______ ____
ROOT
ATOM      4  C   UNL     1      -4.050   2.151  24.847  0.00  0.00    +0.007 C 
ATOM      5  C   UNL     1      -3.376   1.676  24.879  0.00  0.00    +0.005 C 
ATOM      6  C   UNL     1      -3.452   0.855  24.914  0.00  0.00    +0.027 C 
ATOM     16  C   UNL     1      -4.200   0.510  24.917  0.00  0.00    -0.048 C 
ATOM     17  C   UNL     1      -4.276  -0.311  24.952  0.00  0.00    +0.026 C 
ATOM     18  C   UNL     1      -4.874   0.985  24.885  0.00  0.00    -0.032 C 
ATOM     19  C   UNL     1      -4.798   1.806  24.850  0.00  0.00    +0.054 C 
ENDROOT
BRANCH   4   2
ATOM      1  C   UNL     1      -3.898   3.409  25.508  0.00  0.00    +0.000 C 
ATOM      2  C   UNL     1      -3.974   2.972  24.812  0.00  0.00    +0.000 C 
ATOM      3  C   UNL     1      -3.975   3.356  24.082  0.00  0.00    +0.000 C 
ENDBRANCH   4   2
BRANCH  19  20
ATOM     20  C   UNL     1      -5.473   2.281  24.818  0.00  0.00    +0.186 C 
ATOM     21  O   UNL     1      -6.222   1.936  24.841  0.00  0.00    -0.220 OA
ENDBRANCH  19  20
BRANCH   6   7
ATOM      7  C   UNL     1      -2.778   0.380  24.946  0.00  0.00    +0.089 C 
BRANCH   7   8
ATOM      8  C   UNL     1      -2.203   0.443  24.358  0.00  0.00    +0.226 C 
ATOM      9  O   UNL     1      -2.416   0.671  23.595  0.00  0.00    -0.275 OA
ATOM     10  N   UNL     1      -1.414   0.276  24.534  0.00  0.00    -0.277 N 
ATOM     11  C   UNL     1      -1.201   0.047  25.297  0.00  0.00    +0.115 C 
BRANCH  10  12
ATOM     12  C   UNL     1      -0.838   0.338  23.945  0.00  0.00    +0.110 C 
BRANCH  12  13
ATOM     13  C   UNL     1      -0.086   0.020  24.069  0.00  0.00    +0.127 C 
BRANCH  13  14
ATOM     14  C   UNL     1       0.462   0.010  23.454  0.00  0.00    +0.075 C 
ATOM     15  N   UNL     1       1.011   0.001  22.838  0.00  0.00    -0.196 NA
ENDBRANCH  13  14
ENDBRANCH  12  13
ENDBRANCH  10  12
ENDBRANCH   7   8
ENDBRANCH   6   7
TORSDOF 7
ENDMDL
MODEL 5
REMARK VINA RESULT:      -8.6      1.606      2.672
REMARK  Name = 
REMARK  7 active torsions:
REMARK  status: ('A' for Active; 'I' for Inactive)
REMARK    1  A    between atoms: C_2  and  C_4
REMARK    2  A    between atoms: C_6  and  C_7
REMARK    3  A    between atoms: C_7  and  C_8
REMARK    4  A    between atoms: N_10  and  C_12
REMARK    5  A    between atoms: C_12  and  C_13
REMARK    6  A    between atoms: C_13  and  C_14
REMARK    7  A    between atoms: C_19  and  C_20
REMARK                            x       y       z     vdW  Elec       q    Type
REMARK                         _______ _______ _______ _____ _____    ______ ____
ROOT
ATOM      4  C   UNL     1      -3.284   0.420  24.840  0.00  0.00    +0.007 C 
ATOM      5  C   UNL     1      -3.288   1.225  25.020  0.00  0.00    +0.005 C 
ATOM      6  C   UNL     1      -3.989   1.657  24.962  0.00  0.00    +0.027 C 
ATOM     16  C   UNL     1      -4.685   1.284  24.725  0.00  0.00    -0.048 C 
ATOM     17  C   UNL     1      -5.386   1.715  24.667  0.00  0.00    +0.026 C 
ATOM     18  C   UNL     1      -4.681   0.478  24.545  0.00  0.00    -0.032 C 
ATOM     19  C   UNL     1      -3.980   0.047  24.603  0.00  0.00    +0.054 C 
ENDROOT
BRANCH   4   2
ATOM      1  C   UNL     1      -2.092  -0.090  24.240  0.00  0.00    +0.000 C 
ATOM      2  C   UNL     1      -2.583  -0.012  24.898  0.00  0.00    +0.000 C 
ATOM      3  C   UNL     1      -2.374  -0.365  25.614  0.00  0.00    +0.000 C 
ENDBRANCH   4   2
BRANCH  19  20
ATOM     20  C   UNL     1      -3.976  -0.759  24.424  0.00  0.00    +0.186 C 
ATOM     21  O   UNL     1      -4.659  -1.121  24.136  0.00  0.00    -0.220 OA
ENDBRANCH  19  20
BRANCH   6   7
ATOM      7  C   UNL     1      -3.993   2.462  25.141  0.00  0.00    +0.089 C 
BRANCH   7   8
ATOM      8  C   UNL     1      -3.417   2.958  24.821  0.00  0.00    +0.226 C 
ATOM      9  O   UNL     1      -3.166   2.849  24.043  0.00  0.00    -0.275 OA
ATOM     10  N   UNL     1      -3.092   3.563  25.279  0.00  0.00    -0.277 N 
ATOM     11  C   UNL     1      -3.344   3.672  26.057  0.00  0.00    +0.115 C 
BRANCH  10  12
ATOM     12  C   UNL     1      -2.515   4.059  24.958  0.00  0.00    +0.110 C 
BRANCH  12  13
ATOM     13  C   UNL     1      -2.063   4.539  25.454  0.00  0.00    +0.127 C 
BRANCH  13  14
ATOM     14  C   UNL     1      -1.402   4.931  25.155  0.00  0.00    +0.075 C 
ATOM     15  N   UNL     1      -0.740   5.323  24.856  0.00  0.00    -0.196 NA
ENDBRANCH  13  14
ENDBRANCH  12  13
ENDBRANCH  10  12
ENDBRANCH   7   8
ENDBRANCH   6   7
TORSDOF 7
ENDMDL
MODEL 6
REMARK VINA RESULT:      -8.5      1.851      2.676
REMARK  Name = 
REMARK  7 active torsions:
REMARK  status: ('A' for Active; 'I' for Inactive)
REMARK    1  A    between atoms: C_2  and  C_4
REMARK    2  A    between atoms: C_6  and  C_7
REMARK    3  A    between atoms: C_7  and  C_8
REMARK    4  A    between atoms: N_10  and  C_12
REMARK    5  A    between atoms: C_12  and  C_13
REMARK    6  A    between atoms: C_13  and  C_14
REMARK    7  A    between atoms: C_19  and  C_20
REMARK                            x       y       z     vdW  Elec       q    Type
REMARK                         _______ _______ _______ _____ _____    ______ ____
ROOT
ATOM      4  C   UNL     1      -2.551  -0.875  25.129  0.00  0.00    +0.007 C 
ATOM      5  C   UNL     1      -2.116  -0.192  25.283  0.00  0.00    +0.005 C 
ATOM      6  C   UNL     1      -1.332  -0.136  25.029  0.00  0.00    +0.027 C 
ATOM     16  C   UNL     1      -0.986  -0.763  24.621  0.00  0.00    -0.048 C 
ATOM     17  C   UNL     1      -0.203  -0.708  24.367  0.00  0.00    +0.026 C 
ATOM     18  C   UNL     1      -1.422  -1.446  24.467  0.00  0.00    -0.032 C 
ATOM     19  C   UNL     1      -2.205  -1.502  24.721  0.00  0.00    +0.054 C 
ENDROOT
BRANCH   4   2
ATOM      1  C   UNL     1      -3.503  -1.200  26.144  0.00  0.00    +0.000 C 
ATOM      2  C   UNL     1      -3.335  -0.931  25.383  0.00  0.00    +0.000 C 
ATOM      3  C   UNL     1      -3.949  -0.716  24.876  0.00  0.00    +0.000 C 
ENDBRANCH   4   2
BRANCH  19  20
ATOM     20  C   UNL     1      -2.641  -2.185  24.567  0.00  0.00    +0.186 C 
ATOM     21  O   UNL     1      -2.291  -2.816  24.167  0.00  0.00    -0.220 OA
ENDBRANCH  19  20
BRANCH   6   7
ATOM      7  C   UNL     1      -0.897   0.547  25.184  0.00  0.00    +0.089 C 
BRANCH   7   8
ATOM      8  C   UNL     1      -1.192   1.283  24.956  0.00  0.00    +0.226 C 
ATOM      9  O   UNL     1      -1.689   1.344  24.302  0.00  0.00    -0.275 OA
ATOM     10  N   UNL     1      -0.988   1.959  25.384  0.00  0.00    -0.277 N 
ATOM     11  C   UNL     1      -0.490   1.899  26.039  0.00  0.00    +0.115 C 
BRANCH  10  12
ATOM     12  C   UNL     1      -1.283   2.696  25.156  0.00  0.00    +0.110 C 
BRANCH  12  13
ATOM     13  C   UNL     1      -1.071   3.373  25.578  0.00  0.00    +0.127 C 
BRANCH  13  14
ATOM     14  C   UNL     1      -1.362   4.109  25.347  0.00  0.00    +0.075 C 
ATOM     15  N   UNL     1      -1.652   4.846  25.117  0.00  0.00    -0.196 NA
ENDBRANCH  13  14
ENDBRANCH  12  13
ENDBRANCH  10  12
ENDBRANCH   7   8
ENDBRANCH   6   7
TORSDOF 7
ENDMDL
MODEL 7
REMARK VINA RESULT:      -8.5      2.500      4.816
REMARK  Name = 
REMARK  7 active torsions:
REMARK  status: ('A' for Active; 'I' for Inactive)
REMARK    1  A    between atoms: C_2  and  C_4
REMARK    2  A    between atoms: C_6  and  C_7
REMARK    3  A    between atoms: C_7  and  C_8
REMARK    4  A    between atoms: N_10  and  C_12
REMARK    5  A    between atoms: C_12  and  C_13
REMARK    6  A    between atoms: C_13  and  C_14
REMARK    7  A    between atoms: C_19  and  C_20
REMARK                            x       y       z     vdW  Elec       q    Type
REMARK                         _______ _______ _______ _____ _____    ______ ____
ROOT
ATOM      4  C   UNL     1      -2.153   3.465  25.320  0.00  0.00    +0.007 C 
ATOM      5  C   UNL     1      -2.133   2.641  25.304  0.00  0.00    +0.005 C 
ATOM      6  C   UNL     1      -1.426   2.249  25.135  0.00  0.00    +0.027 C 
ATOM     16  C   UNL     1      -0.741   2.681  24.983  0.00  0.00    -0.048 C 
ATOM     17  C   UNL     1      -0.035   2.290  24.815  0.00  0.00    +0.026 C 
ATOM     18  C   UNL     1      -0.762   3.506  24.999  0.00  0.00    -0.032 C 
ATOM     19  C   UNL     1      -1.468   3.898  25.168  0.00  0.00    +0.054 C 
ENDROOT
BRANCH   4   2
ATOM      1  C   UNL     1      -3.374   4.061  24.876  0.00  0.00    +0.000 C 
ATOM      2  C   UNL     1      -2.860   3.857  25.488  0.00  0.00    +0.000 C 
ATOM      3  C   UNL     1      -3.052   4.045  26.268  0.00  0.00    +0.000 C 
ENDBRANCH   4   2
BRANCH  19  20
ATOM     20  C   UNL     1      -1.489   4.723  25.184  0.00  0.00    +0.186 C 
ATOM     21  O   UNL     1      -0.819   5.156  24.975  0.00  0.00    -0.220 OA
ENDBRANCH  19  20
BRANCH   6   7
ATOM      7  C   UNL     1      -1.406   1.424  25.119  0.00  0.00    +0.089 C 
BRANCH   7   8
ATOM      8  C   UNL     1      -1.955   1.008  24.665  0.00  0.00    +0.226 C 
ATOM      9  O   UNL     1      -2.228   1.325  23.955  0.00  0.00    -0.275 OA
ATOM     10  N   UNL     1      -2.231   0.274  24.923  0.00  0.00    -0.277 N 
ATOM     11  C   UNL     1      -1.959  -0.043  25.634  0.00  0.00    +0.115 C 
BRANCH  10  12
ATOM     12  C   UNL     1      -2.781  -0.142  24.469  0.00  0.00    +0.110 C 
BRANCH  12  13
ATOM     13  C   UNL     1      -3.124  -0.831  24.767  0.00  0.00    +0.127 C 
BRANCH  13  14
ATOM     14  C   UNL     1      -3.697  -1.229  24.327  0.00  0.00    +0.075 C 
ATOM     15  N   UNL     1      -4.270  -1.628  23.887  0.00  0.00    -0.196 NA
ENDBRANCH  13  14
ENDBRANCH  12  13
ENDBRANCH  10  12
ENDBRANCH   7   8
ENDBRANCH   6   7
TORSDOF 7
ENDMDL
