MODEL 1
REMARK VINA RESULT:     -12.2      0.000      0.000
REMARK  Name = 
REMARK  7 active torsions:
REMARK  status: ('A' for Active; 'I' for Inactive)
REMARK    1  A    between atoms: C_2  and  C_3
REMARK    2  A    between atoms: C_3  and  N_4
REMARK    3  A    between atoms: C_5  and  C_7
REMARK    4  A    between atoms: C_7  and  C_8
REMARK    5  A    between atoms: C_13  and  C_14
REMARK    6  A    between atoms: N_18  and  C_19
REMARK    7  A    between atoms: C_21  and  C_25
REMARK                            x       y       z     vdW  Elec       q    Type
REMARK                         _______ _______ _______ _____ _____    ______ ____
ROOT
ATOM      8  C   UNL     1      -3.771   2.931  25.164  0.00  0.00    +0.012 C 
ATOM      9  C   UNL     1      -3.152   2.430  24.951  0.00  0.00    +0.022 C 
ATOM     10  C   UNL     1      -3.297   1.632  24.807  0.00  0.00    +0.095 C 
ATOM     11  N   UNL     1      -4.063   1.333  24.876  0.00  0.00    -0.263 N 
ATOM     12  C   UNL     1      -4.683   1.834  25.089  0.00  0.00    +0.095 C 
ATOM     13  C   UNL     1      -4.537   2.632  25.233  0.00  0.00    +0.020 C 
ATOM     16  C   UNL     1      -4.209   0.534  24.732  0.00  0.00    +0.327 C 
ATOM     17  O   UNL     1      -4.974   0.236  24.800  0.00  0.00    -0.250 OA
ATOM     18  N   UNL     1      -3.589   0.034  24.519  0.00  0.00    -0.162 NA
ENDROOT
BRANCH  18  19
ATOM     19  C   UNL     1      -3.735  -0.766  24.374  0.00  0.00    +0.075 A 
ATOM     20  C   UNL     1      -3.405  -1.340  24.867  0.00  0.00    +0.021 A 
ATOM     21  C   UNL     1      -3.551  -2.139  24.722  0.00  0.00    +0.073 A 
ATOM     22  C   UNL     1      -4.027  -2.364  24.086  0.00  0.00    +0.004 A 
ATOM     23  C   UNL     1      -4.356  -1.789  23.595  0.00  0.00    +0.001 A 
ATOM     24  C   UNL     1      -4.210  -0.990  23.739  0.00  0.00    +0.017 A 
BRANCH  21  25
ATOM     25  C   UNL     1      -3.221  -2.715  25.214  0.00  0.00    +0.419 C 
ATOM     26  F   UNL     1      -2.892  -3.289  25.706  0.00  0.00    -0.166 F 
ATOM     27  F   UNL     1      -2.650  -2.877  24.642  0.00  0.00    -0.166 F 
ATOM     28  F   UNL     1      -3.793  -2.552  25.787  0.00  0.00    -0.166 F 
ENDBRANCH  21  25
ENDBRANCH  18  19
BRANCH  13  14
ATOM     14  C   UNL     1      -5.158   3.134  25.446  0.00  0.00    +0.002 C 
ATOM     15  C   UNL     1      -5.876   2.816  25.700  0.00  0.00    +0.000 C 
ENDBRANCH  13  14
BRANCH   8   7
ATOM      7  C   UNL     1      -3.625   3.731  25.308  0.00  0.00    +0.087 C 
BRANCH   7   5
ATOM      4  N   UNL     1      -2.399   4.432  25.094  0.00  0.00    -0.205 NA
ATOM      5  C   UNL     1      -2.885   3.972  25.577  0.00  0.00    +0.241 C 
ATOM      6  O   UNL     1      -2.628   3.754  26.331  0.00  0.00    -0.273 OA
BRANCH   4   3
ATOM      3  C   UNL     1      -1.657   4.674  25.362  0.00  0.00    +0.115 C 
BRANCH   3   2
ATOM      1  C   UNL     1      -0.511   5.104  24.628  0.00  0.00    +0.002 C 
ATOM      2  C   UNL     1      -1.246   5.266  24.962  0.00  0.00    +0.023 C 
ENDBRANCH   3   2
ENDBRANCH   4   3
ENDBRANCH   7   5
ENDBRANCH   8   7
TORSDOF 7
ENDMDL
MODEL 2
REMARK VINA RESULT:     -10.9      2.200      3.020
REMARK  Name = 
REMARK  7 active torsions:
REMARK  status: ('A' for Active; 'I' for Inactive)
REMARK    1  A    between atoms: C_2  and  C_3
REMARK    2  A    between atoms: C_3  and  N_4
REMARK    3  A    between atoms: C_5  and  C_7
REMARK    4  A    between atoms: C_7  and  C_8
REMARK    5  A    between atoms: C_13  and  C_14
REMARK    6  A    between atoms: N_18  and  C_19
REMARK    7  A    between atoms: C_21  and  C_25
REMARK                            x       y       z     vdW  Elec       q    Type
REMARK                         _______ _______ _______ _____ _____    ______ ____
ROOT
ATOM      8  C   UNL     1      -0.574   1.727  24.630  0.00  0.00    +0.012 C 
ATOM      9  C   UNL     1      -1.321   1.670  24.975  0.00  0.00    +0.022 C 
ATOM     10  C   UNL     1      -1.717   0.947  24.984  0.00  0.00    +0.095 C 
ATOM     11  N   UNL     1      -1.367   0.280  24.649  0.00  0.00    -0.263 N 
ATOM     12  C   UNL     1      -0.619   0.337  24.304  0.00  0.00    +0.095 C 
ATOM     13  C   UNL     1      -0.224   1.060  24.295  0.00  0.00    +0.020 C 
ATOM     16  C   UNL     1      -1.763  -0.444  24.658  0.00  0.00    +0.327 C 
ATOM     17  O   UNL     1      -1.412  -1.110  24.323  0.00  0.00    -0.250 OA
ATOM     18  N   UNL     1      -2.510  -0.500  25.003  0.00  0.00    -0.162 NA
ENDROOT
BRANCH  18  19
ATOM     19  C   UNL     1      -2.906  -1.224  25.012  0.00  0.00    +0.075 A 
ATOM     20  C   UNL     1      -3.417  -1.423  24.395  0.00  0.00    +0.021 A 
ATOM     21  C   UNL     1      -3.813  -2.146  24.404  0.00  0.00    +0.073 A 
ATOM     22  C   UNL     1      -3.699  -2.671  25.031  0.00  0.00    +0.004 A 
ATOM     23  C   UNL     1      -3.189  -2.472  25.647  0.00  0.00    +0.001 A 
ATOM     24  C   UNL     1      -2.792  -1.748  25.638  0.00  0.00    +0.017 A 
BRANCH  21  25
ATOM     25  C   UNL     1      -4.324  -2.345  23.787  0.00  0.00    +0.419 C 
ATOM     26  F   UNL     1      -4.834  -2.544  23.170  0.00  0.00    -0.166 F 
ATOM     27  F   UNL     1      -3.916  -3.054  23.678  0.00  0.00    -0.166 F 
ATOM     28  F   UNL     1      -4.731  -1.636  23.896  0.00  0.00    -0.166 F 
ENDBRANCH  21  25
ENDBRANCH  18  19
BRANCH  13  14
ATOM     14  C   UNL     1       0.525   1.116  23.950  0.00  0.00    +0.002 C 
ATOM     15  C   UNL     1       0.795   0.519  23.450  0.00  0.00    +0.000 C 
ENDBRANCH  13  14
BRANCH   8   7
ATOM      7  C   UNL     1      -0.178   2.450  24.621  0.00  0.00    +0.087 C 
BRANCH   7   5
ATOM      4  N   UNL     1      -0.746   3.751  24.784  0.00  0.00    -0.205 NA
ATOM      5  C   UNL     1      -0.428   3.064  25.111  0.00  0.00    +0.241 C 
ATOM      6  O   UNL     1      -0.361   2.990  25.931  0.00  0.00    -0.273 OA
BRANCH   4   3
ATOM      3  C   UNL     1      -0.997   4.366  25.274  0.00  0.00    +0.115 C 
BRANCH   3   2
ATOM      1  C   UNL     1      -1.841   5.504  25.097  0.00  0.00    +0.002 C 
ATOM      2  C   UNL     1      -1.125   5.118  24.962  0.00  0.00    +0.023 C 
ENDBRANCH   3   2
ENDBRANCH   4   3
ENDBRANCH   7   5
ENDBRANCH   8   7
TORSDOF 7
ENDMDL
MODEL 3
REMARK VINA RESULT:     -10.5      2.844      5.646
REMARK  Name = 
REMARK  7 active torsions:
REMARK  status: ('A' for Active; 'I' for Inactive)
REMARK    1  A    between atoms: C_2  and  C_3
REMARK    2  A    between atoms: C_3  and  N_4
REMARK    3  A    between atoms: C_5  and  C_7
REMARK    4  A    between atoms: C_7  and  C_8
REMARK    5  A    between atoms: C_13  and  C_14
REMARK    6  A    between atoms: N_18  and  C_19
REMARK    7  A    between atoms: C_21  and  C_25
REMARK                            x       y       z     vdW  Elec       q    Type
REMARK                         _______ _______ _______ _____ _____    ______ ____
ROOT
ATOM      8  C   UNL     1      -4.399   0.547  24.718  0.00  0.00    +0.012 C 
ATOM      9  C   UNL     1      -3.583   0.665  24.749  0.00  0.00    +0.022 C 
ATOM     10  C   UNL     1      -3.280   1.417  24.896  0.00  0.00    +0.095 C 
ATOM     11  N   UNL     1      -3.792   2.053  25.012  0.00  0.00    -0.263 N 
ATOM     12  C   UNL     1      -4.608   1.935  24.981  0.00  0.00    +0.095 C 
ATOM     13  C   UNL     1      -4.911   1.183  24.834  0.00  0.00    +0.020 C 
ATOM     16  C   UNL     1      -3.489   2.806  25.159  0.00  0.00    +0.327 C 
ATOM     17  O   UNL     1      -4.001   3.441  25.275  0.00  0.00    -0.250 OA
ATOM     18  N   UNL     1      -2.673   2.923  25.190  0.00  0.00    -0.162 NA
ENDROOT
BRANCH  18  19
ATOM     19  C   UNL     1      -2.369   3.676  25.337  0.00  0.00    +0.075 A 
ATOM     20  C   UNL     1      -1.705   3.941  24.924  0.00  0.00    +0.021 A 
ATOM     21  C   UNL     1      -1.402   4.694  25.071  0.00  0.00    +0.073 A 
ATOM     22  C   UNL     1      -1.762   5.182  25.630  0.00  0.00    +0.004 A 
ATOM     23  C   UNL     1      -2.426   4.917  26.042  0.00  0.00    +0.001 A 
ATOM     24  C   UNL     1      -2.729   4.164  25.895  0.00  0.00    +0.017 A 
BRANCH  21  25
ATOM     25  C   UNL     1      -0.737   4.959  24.659  0.00  0.00    +0.419 C 
ATOM     26  F   UNL     1      -0.074   5.223  24.247  0.00  0.00    -0.166 F 
ATOM     27  F   UNL     1      -1.037   5.727  24.671  0.00  0.00    -0.166 F 
ATOM     28  F   UNL     1      -0.438   4.190  24.647  0.00  0.00    -0.166 F 
ENDBRANCH  21  25
ENDBRANCH  18  19
BRANCH  13  14
ATOM     14  C   UNL     1      -5.728   1.066  24.803  0.00  0.00    +0.002 C 
ATOM     15  C   UNL     1      -6.241   1.684  24.991  0.00  0.00    +0.000 C 
ENDBRANCH  13  14
BRANCH   8   7
ATOM      7  C   UNL     1      -4.703  -0.206  24.571  0.00  0.00    +0.087 C 
BRANCH   7   5
ATOM      4  N   UNL     1      -4.069  -1.485  24.629  0.00  0.00    -0.205 NA
ATOM      5  C   UNL     1      -4.225  -0.782  24.226  0.00  0.00    +0.241 C 
ATOM      6  O   UNL     1      -3.903  -0.657  23.476  0.00  0.00    -0.273 OA
BRANCH   4   3
ATOM      3  C   UNL     1      -3.591  -2.063  24.284  0.00  0.00    +0.115 C 
BRANCH   3   2
ATOM      1  C   UNL     1      -2.827  -3.212  24.651  0.00  0.00    +0.002 C 
ATOM      2  C   UNL     1      -3.549  -2.816  24.616  0.00  0.00    +0.023 C 
ENDBRANCH   3   2
ENDBRANCH   4   3
ENDBRANCH   7   5
ENDBRANCH   8   7
TORSDOF 7
ENDMDL
MODEL 4
REMARK VINA RESULT:      -9.8      3.364      4.842
REMARK  Name = 
REMARK  7 active torsions:
REMARK  status: ('A' for Active; 'I' for Inactive)
REMARK    1  A    between atoms: C_2  and  C_3
REMARK    2  A    between atoms: C_3  and  N_4
REMARK    3  A    between atoms: C_5  and  C_7
REMARK    4  A    between atoms: C_7  and  C_8
REMARK    5  A    between atoms: C_13  and  C_14
REMARK    6  A    between atoms: N_18  and  C_19
REMARK    7  A    between atoms: C_21  and  C_25
REMARK                            x       y       z     vdW  Elec       q    Type
REMARK                         _______ _______ _______ _____ _____    ______ ____
ROOT
ATOM      8  C   UNL     1      -1.226  -0.371  24.407  0.00  0.00    +0.012 C 
ATOM      9  C   UNL     1      -1.426   0.396  24.177  0.00  0.00    +0.022 C 
ATOM     10  C   UNL     1      -2.177   0.693  24.340  0.00  0.00    +0.095 C 
ATOM     11  N   UNL     1      -2.730   0.224  24.734  0.00  0.00    -0.263 N 
ATOM     12  C   UNL     1      -2.530  -0.542  24.964  0.00  0.00    +0.095 C 
ATOM     13  C   UNL     1      -1.779  -0.839  24.801  0.00  0.00    +0.020 C 
ATOM     16  C   UNL     1      -3.482   0.521  24.898  0.00  0.00    +0.327 C 
ATOM     17  O   UNL     1      -4.034   0.052  25.291  0.00  0.00    -0.250 OA
ATOM     18  N   UNL     1      -3.681   1.287  24.667  0.00  0.00    -0.162 NA
ENDROOT
BRANCH  18  19
ATOM     19  C   UNL     1      -4.434   1.585  24.831  0.00  0.00    +0.075 A 
ATOM     20  C   UNL     1      -4.518   2.341  25.152  0.00  0.00    +0.021 A 
ATOM     21  C   UNL     1      -5.270   2.638  25.315  0.00  0.00    +0.073 A 
ATOM     22  C   UNL     1      -5.938   2.180  25.158  0.00  0.00    +0.004 A 
ATOM     23  C   UNL     1      -5.854   1.424  24.838  0.00  0.00    +0.001 A 
ATOM     24  C   UNL     1      -5.102   1.127  24.674  0.00  0.00    +0.017 A 
BRANCH  21  25
ATOM     25  C   UNL     1      -5.354   3.395  25.636  0.00  0.00    +0.419 C 
ATOM     26  F   UNL     1      -5.438   4.149  25.956  0.00  0.00    -0.166 F 
ATOM     27  F   UNL     1      -5.204   3.725  24.895  0.00  0.00    -0.166 F 
ATOM     28  F   UNL     1      -5.504   3.063  26.376  0.00  0.00    -0.166 F 
ENDBRANCH  21  25
ENDBRANCH  18  19
BRANCH  13  14
ATOM     14  C   UNL     1      -1.579  -1.607  25.031  0.00  0.00    +0.002 C 
ATOM     15  C   UNL     1      -2.122  -2.221  24.936  0.00  0.00    +0.000 C 
ENDBRANCH  13  14
BRANCH   8   7
ATOM      7  C   UNL     1      -0.474  -0.668  24.243  0.00  0.00    +0.087 C 
BRANCH   7   5
ATOM      4  N   UNL     1       0.588  -0.414  23.322  0.00  0.00    -0.205 NA
ATOM      5  C   UNL     1       0.111  -0.168  23.949  0.00  0.00    +0.241 C 
ATOM      6  O   UNL     1       0.221   0.580  24.283  0.00  0.00    -0.273 OA
BRANCH   4   3
ATOM      3  C   UNL     1       1.175   0.086  23.028  0.00  0.00    +0.115 C 
BRANCH   3   2
ATOM      1  C   UNL     1       2.445   0.139  22.377  0.00  0.00    +0.002 C 
ATOM      2  C   UNL     1       1.687  -0.180  22.439  0.00  0.00    +0.023 C 
ENDBRANCH   3   2
ENDBRANCH   4   3
ENDBRANCH   7   5
ENDBRANCH   8   7
TORSDOF 7
ENDMDL
MODEL 5
REMARK VINA RESULT:      -9.8      3.704      4.371
REMARK  Name = 
REMARK  7 active torsions:
REMARK  status: ('A' for Active; 'I' for Inactive)
REMARK    1  A    between atoms: C_2  and  C_3
REMARK    2  A    between atoms: C_3  and  N_4
REMARK    3  A    between atoms: C_5  and  C_7
REMARK    4  A    between atoms: C_7  and  C_8
REMARK    5  A    between atoms: C_13  and  C_14
REMARK    6  A    between atoms: N_18  and  C_19
REMARK    7  A    between atoms: C_21  and  C_25
REMARK                            x       y       z     vdW  Elec       q    Type
REMARK                         _______ _______ _______ _____ _____    ______ ____
ROOT
ATOM      8  C   UNL     1       0.578   0.935  23.828  0.00  0.00    +0.012 C 
ATOM      9  C   UNL     1       0.431   0.130  23.723  0.00  0.00    +0.022 C 
ATOM     10  C   UNL     1      -0.272  -0.200  23.997  0.00  0.00    +0.095 C 
ATOM     11  N   UNL     1      -0.831   0.274  24.376  0.00  0.00    -0.263 N 
ATOM     12  C   UNL     1      -0.684   1.079  24.480  0.00  0.00    +0.095 C 
ATOM     13  C   UNL     1       0.020   1.409  24.207  0.00  0.00    +0.020 C 
ATOM     16  C   UNL     1      -1.535  -0.056  24.650  0.00  0.00    +0.327 C 
ATOM     17  O   UNL     1      -2.093   0.419  25.029  0.00  0.00    -0.250 OA
ATOM     18  N   UNL     1      -1.682  -0.860  24.546  0.00  0.00    -0.162 NA
ENDROOT
BRANCH  18  19
ATOM     19  C   UNL     1      -2.387  -1.191  24.820  0.00  0.00    +0.075 A 
ATOM     20  C   UNL     1      -2.920  -1.526  24.286  0.00  0.00    +0.021 A 
ATOM     21  C   UNL     1      -3.624  -1.857  24.561  0.00  0.00    +0.073 A 
ATOM     22  C   UNL     1      -3.796  -1.852  25.368  0.00  0.00    +0.004 A 
ATOM     23  C   UNL     1      -3.263  -1.516  25.901  0.00  0.00    +0.001 A 
ATOM     24  C   UNL     1      -2.558  -1.186  25.626  0.00  0.00    +0.017 A 
BRANCH  21  25
ATOM     25  C   UNL     1      -4.158  -2.193  24.027  0.00  0.00    +0.419 C 
ATOM     26  F   UNL     1      -4.691  -2.527  23.495  0.00  0.00    -0.166 F 
ATOM     27  F   UNL     1      -3.818  -2.933  24.155  0.00  0.00    -0.166 F 
ATOM     28  F   UNL     1      -4.497  -1.451  23.901  0.00  0.00    -0.166 F 
ENDBRANCH  21  25
ENDBRANCH  18  19
BRANCH  13  14
ATOM     14  C   UNL     1       0.166   2.215  24.311  0.00  0.00    +0.002 C 
ATOM     15  C   UNL     1      -0.327   2.664  24.797  0.00  0.00    +0.000 C 
ENDBRANCH  13  14
BRANCH   8   7
ATOM      7  C   UNL     1       1.283   1.265  23.554  0.00  0.00    +0.087 C 
BRANCH   7   5
ATOM      4  N   UNL     1       2.643   0.961  23.238  0.00  0.00    -0.205 NA
ATOM      5  C   UNL     1       1.838   0.792  23.171  0.00  0.00    +0.241 C 
ATOM      6  O   UNL     1       1.589   0.147  22.719  0.00  0.00    -0.273 OA
BRANCH   4   3
ATOM      3  C   UNL     1       3.199   0.488  22.855  0.00  0.00    +0.115 C 
BRANCH   3   2
ATOM      1  C   UNL     1       4.604   0.360  23.079  0.00  0.00    +0.002 C 
ATOM      2  C   UNL     1       3.968   0.762  22.742  0.00  0.00    +0.023 C 
ENDBRANCH   3   2
ENDBRANCH   4   3
ENDBRANCH   7   5
ENDBRANCH   8   7
TORSDOF 7
ENDMDL
MODEL 6
REMARK VINA RESULT:      -9.8      3.456      6.188
REMARK  Name = 
REMARK  7 active torsions:
REMARK  status: ('A' for Active; 'I' for Inactive)
REMARK    1  A    between atoms: C_2  and  C_3
REMARK    2  A    between atoms: C_3  and  N_4
REMARK    3  A    between atoms: C_5  and  C_7
REMARK    4  A    between atoms: C_7  and  C_8
REMARK    5  A    between atoms: C_13  and  C_14
REMARK    6  A    between atoms: N_18  and  C_19
REMARK    7  A    between atoms: C_21  and  C_25
REMARK                            x       y       z     vdW  Elec       q    Type
REMARK                         _______ _______ _______ _____ _____    ______ ____
ROOT
ATOM      8  C   UNL     1      -0.507  -0.428  24.509  0.00  0.00    +0.012 C 
ATOM      9  C   UNL     1      -0.936  -0.098  25.131  0.00  0.00    +0.022 C 
ATOM     10  C   UNL     1      -1.049   0.717  25.168  0.00  0.00    +0.095 C 
ATOM     11  N   UNL     1      -0.734   1.205  24.582  0.00  0.00    -0.263 N 
ATOM     12  C   UNL     1      -0.305   0.875  23.960  0.00  0.00    +0.095 C 
ATOM     13  C   UNL     1      -0.192   0.060  23.923  0.00  0.00    +0.020 C 
ATOM     16  C   UNL     1      -0.847   2.021  24.619  0.00  0.00    +0.327 C 
ATOM     17  O   UNL     1      -0.531   2.508  24.033  0.00  0.00    -0.250 OA
ATOM     18  N   UNL     1      -1.276   2.350  25.242  0.00  0.00    -0.162 NA
ENDROOT
BRANCH  18  19
ATOM     19  C   UNL     1      -1.389   3.167  25.278  0.00  0.00    +0.075 A 
ATOM     20  C   UNL     1      -2.133   3.472  25.465  0.00  0.00    +0.021 A 
ATOM     21  C   UNL     1      -2.246   4.289  25.502  0.00  0.00    +0.073 A 
ATOM     22  C   UNL     1      -1.616   4.800  25.352  0.00  0.00    +0.004 A 
ATOM     23  C   UNL     1      -0.873   4.494  25.165  0.00  0.00    +0.001 A 
ATOM     24  C   UNL     1      -0.760   3.678  25.128  0.00  0.00    +0.017 A 
BRANCH  21  25
ATOM     25  C   UNL     1      -2.990   4.594  25.689  0.00  0.00    +0.419 C 
ATOM     26  F   UNL     1      -3.733   4.900  25.876  0.00  0.00    -0.166 F 
ATOM     27  F   UNL     1      -2.772   4.638  26.484  0.00  0.00    -0.166 F 
ATOM     28  F   UNL     1      -3.207   4.550  24.895  0.00  0.00    -0.166 F 
ENDBRANCH  21  25
ENDBRANCH  18  19
BRANCH  13  14
ATOM     14  C   UNL     1       0.238  -0.270  23.299  0.00  0.00    +0.002 C 
ATOM     15  C   UNL     1       0.898   0.123  23.000  0.00  0.00    +0.000 C 
ENDBRANCH  13  14
BRANCH   8   7
ATOM      7  C   UNL     1      -0.394  -1.244  24.472  0.00  0.00    +0.087 C 
BRANCH   7   5
ATOM      4  N   UNL     1      -1.580  -2.036  24.384  0.00  0.00    -0.205 NA
ATOM      5  C   UNL     1      -0.941  -1.752  24.822  0.00  0.00    +0.241 C 
ATOM      6  O   UNL     1      -0.849  -1.977  25.611  0.00  0.00    -0.273 OA
BRANCH   4   3
ATOM      3  C   UNL     1      -2.128  -2.545  24.734  0.00  0.00    +0.115 C 
BRANCH   3   2
ATOM      1  C   UNL     1      -3.530  -2.799  24.641  0.00  0.00    +0.002 C 
ATOM      2  C   UNL     1      -2.778  -2.811  24.303  0.00  0.00    +0.023 C 
ENDBRANCH   3   2
ENDBRANCH   4   3
ENDBRANCH   7   5
ENDBRANCH   8   7
TORSDOF 7
ENDMDL
MODEL 7
REMARK VINA RESULT:      -9.6      1.604      2.654
REMARK  Name = 
REMARK  7 active torsions:
REMARK  status: ('A' for Active; 'I' for Inactive)
REMARK    1  A    between atoms: C_2  and  C_3
REMARK    2  A    between atoms: C_3  and  N_4
REMARK    3  A    between atoms: C_5  and  C_7
REMARK    4  A    between atoms: C_7  and  C_8
REMARK    5  A    between atoms: C_13  and  C_14
REMARK    6  A    between atoms: N_18  and  C_19
REMARK    7  A    between atoms: C_21  and  C_25
REMARK                            x       y       z     vdW  Elec       q    Type
REMARK                         _______ _______ _______ _____ _____    ______ ____
ROOT
ATOM      8  C   UNL     1      -2.283   2.608  25.051  0.00  0.00    +0.012 C 
ATOM      9  C   UNL     1      -2.785   2.110  24.627  0.00  0.00    +0.022 C 
ATOM     10  C   UNL     1      -2.644   1.299  24.610  0.00  0.00    +0.095 C 
ATOM     11  N   UNL     1      -2.001   0.983  25.017  0.00  0.00    -0.263 N 
ATOM     12  C   UNL     1      -1.498   1.480  25.442  0.00  0.00    +0.095 C 
ATOM     13  C   UNL     1      -1.639   2.292  25.458  0.00  0.00    +0.020 C 
ATOM     16  C   UNL     1      -1.860   0.170  25.000  0.00  0.00    +0.327 C 
ATOM     17  O   UNL     1      -1.216  -0.145  25.408  0.00  0.00    -0.250 OA
ATOM     18  N   UNL     1      -2.363  -0.327  24.576  0.00  0.00    -0.162 NA
ENDROOT
BRANCH  18  19
ATOM     19  C   UNL     1      -2.221  -1.140  24.559  0.00  0.00    +0.075 A 
ATOM     20  C   UNL     1      -2.850  -1.669  24.634  0.00  0.00    +0.021 A 
ATOM     21  C   UNL     1      -2.710  -2.482  24.617  0.00  0.00    +0.073 A 
ATOM     22  C   UNL     1      -1.940  -2.766  24.525  0.00  0.00    +0.004 A 
ATOM     23  C   UNL     1      -1.312  -2.236  24.450  0.00  0.00    +0.001 A 
ATOM     24  C   UNL     1      -1.453  -1.423  24.467  0.00  0.00    +0.017 A 
BRANCH  21  25
ATOM     25  C   UNL     1      -3.338  -3.012  24.692  0.00  0.00    +0.419 C 
ATOM     26  F   UNL     1      -3.966  -3.541  24.767  0.00  0.00    -0.166 F 
ATOM     27  F   UNL     1      -3.355  -2.876  25.506  0.00  0.00    -0.166 F 
ATOM     28  F   UNL     1      -3.321  -3.147  23.878  0.00  0.00    -0.166 F 
ENDBRANCH  21  25
ENDBRANCH  18  19
BRANCH  13  14
ATOM     14  C   UNL     1      -1.135   2.789  25.883  0.00  0.00    +0.002 C 
ATOM     15  C   UNL     1      -0.383   2.528  26.100  0.00  0.00    +0.000 C 
ENDBRANCH  13  14
BRANCH   8   7
ATOM      7  C   UNL     1      -2.423   3.421  25.068  0.00  0.00    +0.087 C 
BRANCH   7   5
ATOM      4  N   UNL     1      -3.771   3.768  25.392  0.00  0.00    -0.205 NA
ATOM      5  C   UNL     1      -3.159   3.716  24.841  0.00  0.00    +0.241 C 
ATOM      6  O   UNL     1      -3.283   3.960  24.062  0.00  0.00    -0.273 OA
BRANCH   4   3
ATOM      3  C   UNL     1      -4.508   4.064  25.166  0.00  0.00    +0.115 C 
BRANCH   3   2
ATOM      1  C   UNL     1      -5.809   3.665  25.599  0.00  0.00    +0.002 C 
ATOM      2  C   UNL     1      -5.122   4.106  25.714  0.00  0.00    +0.023 C 
ENDBRANCH   3   2
ENDBRANCH   4   3
ENDBRANCH   7   5
ENDBRANCH   8   7
TORSDOF 7
ENDMDL
