MODEL 1
REMARK VINA RESULT:      -9.4      0.000      0.000
REMARK  Name = 
REMARK  5 active torsions:
REMARK  status: ('A' for Active; 'I' for Inactive)
REMARK    1  A    between atoms: O_2  and  C_3
REMARK    2  A    between atoms: C_6  and  C_9
REMARK    3  A    between atoms: N_11  and  C_12
REMARK    4  A    between atoms: C_16  and  N_20
REMARK    5  A    between atoms: C_22  and  C_25
REMARK                            x       y       z     vdW  Elec       q    Type
REMARK                         _______ _______ _______ _____ _____    ______ ____
ROOT
ATOM     12  C   UNL     1      -1.511   1.170  23.879  0.00  0.00    +0.155 C 
ATOM     13  C   UNL     1      -1.193   1.731  23.365  0.00  0.00    +0.166 C 
ATOM     14  O   UNL     1      -0.464   1.449  23.100  0.00  0.00    -0.350 OA
ATOM     15  C   UNL     1      -0.332   0.714  23.449  0.00  0.00    +0.169 C 
ATOM     16  C   UNL     1       0.199   0.085  23.503  0.00  0.00    +0.166 C 
ATOM     17  C   UNL     1      -0.120  -0.476  24.016  0.00  0.00    +0.169 C 
ATOM     18  O   UNL     1      -0.848  -0.194  24.281  0.00  0.00    -0.350 OA
ATOM     19  C   UNL     1      -0.980   0.542  23.931  0.00  0.00    +0.167 C 
ENDROOT
BRANCH  16  20
ATOM     20  N   UNL     1       0.922   0.028  23.110  0.00  0.00    -0.227 N 
ATOM     21  C   UNL     1       1.657   0.256  23.410  0.00  0.00    +0.118 A 
ATOM     22  C   UNL     1       2.226   0.102  22.834  0.00  0.00    +0.123 A 
ATOM     23  N   UNL     1       1.845  -0.222  22.179  0.00  0.00    -0.129 NA
ATOM     24  N   UNL     1       1.039  -0.268  22.349  0.00  0.00    -0.064 NA
BRANCH  22  25
ATOM     25  C   UNL     1       3.036   0.246  22.902  0.00  0.00    +0.021 A 
ATOM     26  C   UNL     1       3.538  -0.346  23.180  0.00  0.00    +0.002 A 
ATOM     27  C   UNL     1       4.348  -0.202  23.248  0.00  0.00    +0.000 A 
ATOM     28  C   UNL     1       4.655   0.534  23.037  0.00  0.00    +0.000 A 
ATOM     29  C   UNL     1       4.152   1.126  22.759  0.00  0.00    +0.000 A 
ATOM     30  C   UNL     1       3.343   0.982  22.691  0.00  0.00    +0.002 A 
ENDBRANCH  22  25
ENDBRANCH  16  20
BRANCH  12  11
ATOM      9  C   UNL     1      -2.905   1.487  23.866  0.00  0.00    +0.265 C 
ATOM     10  O   UNL     1      -2.851   1.689  23.067  0.00  0.00    -0.268 OA
ATOM     11  N   UNL     1      -2.235   1.227  24.271  0.00  0.00    -0.198 NA
BRANCH   9   6
ATOM      3  C   UNL     1      -5.075   1.659  25.042  0.00  0.00    +0.139 A 
ATOM      4  C   UNL     1      -4.701   2.340  24.766  0.00  0.00    +0.037 A 
ATOM      5  C   UNL     1      -3.978   2.283  24.374  0.00  0.00    +0.008 A 
ATOM      6  C   UNL     1      -3.628   1.544  24.258  0.00  0.00    +0.055 A 
ATOM      7  C   UNL     1      -4.002   0.863  24.534  0.00  0.00    +0.008 A 
ATOM      8  C   UNL     1      -4.726   0.920  24.927  0.00  0.00    +0.037 A 
BRANCH   3   2
ATOM      1  C   UNL     1      -5.900   2.272  26.035  0.00  0.00    +0.252 C 
ATOM      2  O   UNL     1      -5.799   1.716  25.435  0.00  0.00    -0.471 OA
ENDBRANCH   3   2
ENDBRANCH   9   6
ENDBRANCH  12  11
TORSDOF 5
ENDMDL
MODEL 2
REMARK VINA RESULT:      -9.2      1.438      6.769
REMARK  Name = 
REMARK  5 active torsions:
REMARK  status: ('A' for Active; 'I' for Inactive)
REMARK    1  A    between atoms: O_2  and  C_3
REMARK    2  A    between atoms: C_6  and  C_9
REMARK    3  A    between atoms: N_11  and  C_12
REMARK    4  A    between atoms: C_16  and  N_20
REMARK    5  A    between atoms: C_22  and  C_25
REMARK                            x       y       z     vdW  Elec       q    Type
REMARK                         _______ _______ _______ _____ _____    ______ ____
ROOT
ATOM     12  C   UNL     1       0.864   0.548  23.434  0.00  0.00    +0.155 C 
ATOM     13  C   UNL     1       0.394  -0.016  23.059  0.00  0.00    +0.166 C 
ATOM     14  O   UNL     1      -0.392   0.223  23.127  0.00  0.00    -0.350 OA
ATOM     15  C   UNL     1      -0.409   0.934  23.543  0.00  0.00    +0.169 C 
ATOM     16  C   UNL     1      -0.904   1.522  23.842  0.00  0.00    +0.166 C 
ATOM     17  C   UNL     1      -0.433   2.087  24.217  0.00  0.00    +0.169 C 
ATOM     18  O   UNL     1       0.353   1.848  24.149  0.00  0.00    -0.350 OA
ATOM     19  C   UNL     1       0.369   1.135  23.733  0.00  0.00    +0.167 C 
ENDROOT
BRANCH  16  20
ATOM     20  N   UNL     1      -1.726   1.542  23.778  0.00  0.00    -0.227 N 
ATOM     21  C   UNL     1      -2.264   1.328  24.366  0.00  0.00    +0.118 A 
ATOM     22  C   UNL     1      -3.025   1.433  24.066  0.00  0.00    +0.123 A 
ATOM     23  N   UNL     1      -2.958   1.712  23.293  0.00  0.00    -0.129 NA
ATOM     24  N   UNL     1      -2.155   1.779  23.115  0.00  0.00    -0.064 NA
BRANCH  22  25
ATOM     25  C   UNL     1      -3.730   1.285  24.468  0.00  0.00    +0.021 A 
ATOM     26  C   UNL     1      -4.215   1.913  24.695  0.00  0.00    +0.002 A 
ATOM     27  C   UNL     1      -4.920   1.765  25.098  0.00  0.00    +0.000 A 
ATOM     28  C   UNL     1      -5.140   0.990  25.273  0.00  0.00    +0.000 A 
ATOM     29  C   UNL     1      -4.655   0.362  25.046  0.00  0.00    +0.000 A 
ATOM     30  C   UNL     1      -3.950   0.510  24.644  0.00  0.00    +0.002 A 
ENDBRANCH  22  25
ENDBRANCH  16  20
BRANCH  12  11
ATOM      9  C   UNL     1       2.144   0.255  22.868  0.00  0.00    +0.265 C 
ATOM     10  O   UNL     1       1.778   0.001  22.173  0.00  0.00    -0.268 OA
ATOM     11  N   UNL     1       1.687   0.528  23.498  0.00  0.00    -0.198 NA
BRANCH   9   6
ATOM      3  C   UNL     1       4.610   0.195  23.060  0.00  0.00    +0.139 A 
ATOM      4  C   UNL     1       4.165  -0.469  23.261  0.00  0.00    +0.037 A 
ATOM      5  C   UNL     1       3.343  -0.449  23.197  0.00  0.00    +0.008 A 
ATOM      6  C   UNL     1       2.966   0.235  22.932  0.00  0.00    +0.055 A 
ATOM      7  C   UNL     1       3.411   0.900  22.731  0.00  0.00    +0.008 A 
ATOM      8  C   UNL     1       4.234   0.880  22.795  0.00  0.00    +0.037 A 
BRANCH   3   2
ATOM      1  C   UNL     1       5.788   0.142  23.868  0.00  0.00    +0.252 C 
ATOM      2  O   UNL     1       5.433   0.176  23.124  0.00  0.00    -0.471 OA
ENDBRANCH   3   2
ENDBRANCH   9   6
ENDBRANCH  12  11
TORSDOF 5
ENDMDL
MODEL 3
REMARK VINA RESULT:      -9.0      1.221      6.780
REMARK  Name = 
REMARK  5 active torsions:
REMARK  status: ('A' for Active; 'I' for Inactive)
REMARK    1  A    between atoms: O_2  and  C_3
REMARK    2  A    between atoms: C_6  and  C_9
REMARK    3  A    between atoms: N_11  and  C_12
REMARK    4  A    between atoms: C_16  and  N_20
REMARK    5  A    between atoms: C_22  and  C_25
REMARK                            x       y       z     vdW  Elec       q    Type
REMARK                         _______ _______ _______ _____ _____    ______ ____
ROOT
ATOM     12  C   UNL     1      -0.405   0.785  23.823  0.00  0.00    +0.155 C 
ATOM     13  C   UNL     1      -0.650   0.259  24.409  0.00  0.00    +0.166 C 
ATOM     14  O   UNL     1      -1.462   0.356  24.515  0.00  0.00    -0.350 OA
ATOM     15  C   UNL     1      -1.719   0.941  23.995  0.00  0.00    +0.169 C 
ATOM     16  C   UNL     1      -2.379   1.364  23.738  0.00  0.00    +0.166 C 
ATOM     17  C   UNL     1      -2.135   1.890  23.152  0.00  0.00    +0.169 C 
ATOM     18  O   UNL     1      -1.323   1.793  23.047  0.00  0.00    -0.350 OA
ATOM     19  C   UNL     1      -1.066   1.207  23.567  0.00  0.00    +0.167 C 
ENDROOT
BRANCH  16  20
ATOM     20  N   UNL     1      -3.151   1.276  24.019  0.00  0.00    -0.227 N 
ATOM     21  C   UNL     1      -3.577   1.835  24.452  0.00  0.00    +0.118 A 
ATOM     22  C   UNL     1      -4.320   1.517  24.617  0.00  0.00    +0.123 A 
ATOM     23  N   UNL     1      -4.353   0.762  24.286  0.00  0.00    -0.129 NA
ATOM     24  N   UNL     1      -3.631   0.613  23.917  0.00  0.00    -0.064 NA
BRANCH  22  25
ATOM     25  C   UNL     1      -4.924   1.889  25.038  0.00  0.00    +0.021 A 
ATOM     26  C   UNL     1      -5.660   1.525  25.111  0.00  0.00    +0.002 A 
ATOM     27  C   UNL     1      -6.265   1.898  25.532  0.00  0.00    +0.000 A 
ATOM     28  C   UNL     1      -6.131   2.633  25.881  0.00  0.00    +0.000 A 
ATOM     29  C   UNL     1      -5.394   2.997  25.808  0.00  0.00    +0.000 A 
ATOM     30  C   UNL     1      -4.791   2.625  25.386  0.00  0.00    +0.002 A 
ENDBRANCH  22  25
ENDBRANCH  16  20
BRANCH  12  11
ATOM      9  C   UNL     1       0.813   0.208  23.347  0.00  0.00    +0.265 C 
ATOM     10  O   UNL     1       0.489  -0.546  23.433  0.00  0.00    -0.268 OA
ATOM     11  N   UNL     1       0.366   0.873  23.542  0.00  0.00    -0.198 NA
BRANCH   9   6
ATOM      3  C   UNL     1       3.125   0.473  22.506  0.00  0.00    +0.139 A 
ATOM      4  C   UNL     1       2.621  -0.081  22.159  0.00  0.00    +0.037 A 
ATOM      5  C   UNL     1       1.851  -0.169  22.440  0.00  0.00    +0.008 A 
ATOM      6  C   UNL     1       1.584   0.296  23.067  0.00  0.00    +0.055 A 
ATOM      7  C   UNL     1       2.088   0.849  23.413  0.00  0.00    +0.008 A 
ATOM      8  C   UNL     1       2.859   0.938  23.133  0.00  0.00    +0.037 A 
BRANCH   3   2
ATOM      1  C   UNL     1       4.532   0.529  22.749  0.00  0.00    +0.252 C 
ATOM      2  O   UNL     1       3.896   0.561  22.225  0.00  0.00    -0.471 OA
ENDBRANCH   3   2
ENDBRANCH   9   6
ENDBRANCH  12  11
TORSDOF 5
ENDMDL
