MODEL 1
REMARK VINA RESULT:     -12.1      0.000      0.000
REMARK  Name = 
REMARK  8 active torsions:
REMARK  status: ('A' for Active; 'I' for Inactive)
REMARK    1  A    between atoms: C_2  and  C_4
REMARK    2  A    between atoms: C_6  and  C_7
REMARK    3  A    between atoms: C_7  and  C_8
REMARK    4  A    between atoms: C_11  and  C_13
REMARK    5  A    between atoms: C_20  and  C_21
REMARK    6  A    between atoms: C_21  and  N_22
REMARK    7  A    between atoms: N_22  and  C_23
REMARK    8  A    between atoms: C_23  and  C_24
REMARK                            x       y       z     vdW  Elec       q    Type
REMARK                         _______ _______ _______ _____ _____    ______ ____
ROOT
ATOM      4  C   UNL     1      -3.312   1.711  23.848  0.00  0.00    +0.006 C 
ATOM      5  C   UNL     1      -3.348   2.487  24.125  0.00  0.00    +0.005 C 
ATOM      6  C   UNL     1      -3.940   2.709  24.654  0.00  0.00    +0.027 C 
ATOM     17  C   UNL     1      -4.497   2.155  24.907  0.00  0.00    -0.048 C 
ATOM     18  C   UNL     1      -5.089   2.377  25.436  0.00  0.00    +0.026 C 
ATOM     19  C   UNL     1      -4.460   1.378  24.630  0.00  0.00    -0.033 C 
ATOM     20  C   UNL     1      -3.868   1.156  24.102  0.00  0.00    +0.039 C 
ENDROOT
BRANCH   4   2
ATOM      1  C   UNL     1      -2.845   1.560  22.506  0.00  0.00    +0.000 C 
ATOM      2  C   UNL     1      -2.719   1.489  23.319  0.00  0.00    +0.000 C 
ATOM      3  C   UNL     1      -2.002   1.196  23.602  0.00  0.00    +0.000 C 
ENDBRANCH   4   2
BRANCH   6   7
ATOM      7  C   UNL     1      -3.977   3.486  24.931  0.00  0.00    +0.091 C 
BRANCH   7   8
ATOM      8  C   UNL     1      -3.305   3.841  25.252  0.00  0.00    +0.226 A 
ATOM      9  N   UNL     1      -3.106   3.867  26.052  0.00  0.00    -0.112 NA
ATOM     10  N   UNL     1      -2.392   4.276  26.124  0.00  0.00    -0.112 NA
ATOM     11  C   UNL     1      -2.150   4.502  25.368  0.00  0.00    +0.225 A 
ATOM     12  O   UNL     1      -2.715   4.234  24.829  0.00  0.00    -0.423 OA
BRANCH  11  13
ATOM     13  C   UNL     1      -1.466   4.923  25.183  0.00  0.00    +0.070 C 
ATOM     14  C   UNL     1      -0.782   5.344  24.998  0.00  0.00    +0.009 C 
ATOM     15  C   UNL     1      -1.923   5.585  24.998  0.00  0.00    +0.009 C 
ATOM     16  C   UNL     1      -1.009   4.261  25.368  0.00  0.00    +0.009 C 
ENDBRANCH  11  13
ENDBRANCH   7   8
ENDBRANCH   6   7
BRANCH  20  21
ATOM     21  C   UNL     1      -3.831   0.380  23.825  0.00  0.00    +0.093 C 
BRANCH  21  22
ATOM     22  N   UNL     1      -3.986  -0.249  24.336  0.00  0.00    -0.213 NA
BRANCH  22  23
ATOM     23  C   UNL     1      -4.247  -0.970  24.035  0.00  0.00    +0.117 C 
BRANCH  23  24
ATOM     24  C   UNL     1      -3.937  -1.677  24.329  0.00  0.00    +0.014 A 
ATOM     25  C   UNL     1      -3.595  -1.696  25.080  0.00  0.00    +0.000 A 
ATOM     26  C   UNL     1      -3.285  -2.402  25.374  0.00  0.00    +0.020 A 
ATOM     27  C   UNL     1      -3.317  -3.089  24.918  0.00  0.00    +0.099 A 
ATOM     28  N   UNL     1      -3.660  -3.069  24.168  0.00  0.00    -0.243 NA
ATOM     29  C   UNL     1      -3.969  -2.363  23.873  0.00  0.00    +0.096 A 
ENDBRANCH  23  24
ENDBRANCH  22  23
ENDBRANCH  21  22
ENDBRANCH  20  21
TORSDOF 8
ENDMDL
MODEL 2
REMARK VINA RESULT:     -10.8      1.269      5.622
REMARK  Name = 
REMARK  8 active torsions:
REMARK  status: ('A' for Active; 'I' for Inactive)
REMARK    1  A    between atoms: C_2  and  C_4
REMARK    2  A    between atoms: C_6  and  C_7
REMARK    3  A    between atoms: C_7  and  C_8
REMARK    4  A    between atoms: C_11  and  C_13
REMARK    5  A    between atoms: C_20  and  C_21
REMARK    6  A    between atoms: C_21  and  N_22
REMARK    7  A    between atoms: N_22  and  C_23
REMARK    8  A    between atoms: C_23  and  C_24
REMARK                            x       y       z     vdW  Elec       q    Type
REMARK                         _______ _______ _______ _____ _____    ______ ____
ROOT
ATOM      4  C   UNL     1      -4.242   1.622  24.579  0.00  0.00    +0.006 C 
ATOM      5  C   UNL     1      -4.270   0.900  24.181  0.00  0.00    +0.005 C 
ATOM      6  C   UNL     1      -3.621   0.645  23.742  0.00  0.00    +0.027 C 
ATOM     17  C   UNL     1      -2.942   1.112  23.700  0.00  0.00    -0.048 C 
ATOM     18  C   UNL     1      -2.292   0.857  23.261  0.00  0.00    +0.026 C 
ATOM     19  C   UNL     1      -2.914   1.835  24.098  0.00  0.00    -0.033 C 
ATOM     20  C   UNL     1      -3.563   2.089  24.537  0.00  0.00    +0.039 C 
ENDROOT
BRANCH   4   2
ATOM      1  C   UNL     1      -5.468   2.351  24.666  0.00  0.00    +0.000 C 
ATOM      2  C   UNL     1      -4.892   1.877  25.019  0.00  0.00    +0.000 C 
ATOM      3  C   UNL     1      -4.966   1.657  25.810  0.00  0.00    +0.000 C 
ENDBRANCH   4   2
BRANCH   6   7
ATOM      7  C   UNL     1      -3.650  -0.077  23.344  0.00  0.00    +0.091 C 
BRANCH   7   8
ATOM      8  C   UNL     1      -3.819  -0.770  23.758  0.00  0.00    +0.226 A 
ATOM      9  N   UNL     1      -4.543  -1.166  23.765  0.00  0.00    -0.112 NA
ATOM     10  N   UNL     1      -4.466  -1.830  24.250  0.00  0.00    -0.112 NA
ATOM     11  C   UNL     1      -3.694  -1.845  24.541  0.00  0.00    +0.225 A 
ATOM     12  O   UNL     1      -3.294  -1.190  24.237  0.00  0.00    -0.423 OA
BRANCH  11  13
ATOM     13  C   UNL     1      -3.378  -2.414  25.048  0.00  0.00    +0.070 C 
ATOM     14  C   UNL     1      -3.061  -2.983  25.553  0.00  0.00    +0.009 C 
ATOM     15  C   UNL     1      -3.285  -2.929  24.409  0.00  0.00    +0.009 C 
ATOM     16  C   UNL     1      -3.471  -1.898  25.685  0.00  0.00    +0.009 C 
ENDBRANCH  11  13
ENDBRANCH   7   8
ENDBRANCH   6   7
BRANCH  20  21
ATOM     21  C   UNL     1      -3.535   2.811  24.936  0.00  0.00    +0.093 C 
BRANCH  21  22
ATOM     22  N   UNL     1      -2.911   3.334  24.799  0.00  0.00    -0.213 NA
BRANCH  22  23
ATOM     23  C   UNL     1      -2.685   3.867  25.386  0.00  0.00    +0.117 C 
BRANCH  23  24
ATOM     24  C   UNL     1      -2.050   4.379  25.256  0.00  0.00    +0.014 A 
ATOM     25  C   UNL     1      -1.289   4.075  25.162  0.00  0.00    +0.000 A 
ATOM     26  C   UNL     1      -0.654   4.586  25.032  0.00  0.00    +0.020 A 
ATOM     27  C   UNL     1      -0.781   5.401  24.996  0.00  0.00    +0.099 A 
ATOM     28  N   UNL     1      -1.543   5.704  25.091  0.00  0.00    -0.243 NA
ATOM     29  C   UNL     1      -2.177   5.193  25.220  0.00  0.00    +0.096 A 
ENDBRANCH  23  24
ENDBRANCH  22  23
ENDBRANCH  21  22
ENDBRANCH  20  21
TORSDOF 8
ENDMDL
MODEL 3
REMARK VINA RESULT:     -10.7      1.534      5.718
REMARK  Name = 
REMARK  8 active torsions:
REMARK  status: ('A' for Active; 'I' for Inactive)
REMARK    1  A    between atoms: C_2  and  C_4
REMARK    2  A    between atoms: C_6  and  C_7
REMARK    3  A    between atoms: C_7  and  C_8
REMARK    4  A    between atoms: C_11  and  C_13
REMARK    5  A    between atoms: C_20  and  C_21
REMARK    6  A    between atoms: C_21  and  N_22
REMARK    7  A    between atoms: N_22  and  C_23
REMARK    8  A    between atoms: C_23  and  C_24
REMARK                            x       y       z     vdW  Elec       q    Type
REMARK                         _______ _______ _______ _____ _____    ______ ____
ROOT
ATOM      4  C   UNL     1      -1.919   0.941  24.497  0.00  0.00    +0.006 C 
ATOM      5  C   UNL     1      -2.531   0.420  24.311  0.00  0.00    +0.005 C 
ATOM      6  C   UNL     1      -3.312   0.682  24.316  0.00  0.00    +0.027 C 
ATOM     17  C   UNL     1      -3.483   1.465  24.508  0.00  0.00    -0.048 C 
ATOM     18  C   UNL     1      -4.266   1.728  24.514  0.00  0.00    +0.026 C 
ATOM     19  C   UNL     1      -2.871   1.988  24.694  0.00  0.00    -0.033 C 
ATOM     20  C   UNL     1      -2.090   1.726  24.689  0.00  0.00    +0.039 C 
ENDROOT
BRANCH   4   2
ATOM      1  C   UNL     1      -0.800   0.374  25.180  0.00  0.00    +0.000 C 
ATOM      2  C   UNL     1      -1.137   0.679  24.491  0.00  0.00    +0.000 C 
ATOM      3  C   UNL     1      -0.693   0.722  23.798  0.00  0.00    +0.000 C 
ENDBRANCH   4   2
BRANCH   6   7
ATOM      7  C   UNL     1      -3.924   0.160  24.130  0.00  0.00    +0.091 C 
BRANCH   7   8
ATOM      8  C   UNL     1      -3.923  -0.605  24.441  0.00  0.00    +0.226 A 
ATOM      9  N   UNL     1      -4.099  -0.812  25.219  0.00  0.00    -0.112 NA
ATOM     10  N   UNL     1      -4.031  -1.632  25.287  0.00  0.00    -0.112 NA
ATOM     11  C   UNL     1      -3.813  -1.931  24.549  0.00  0.00    +0.225 A 
ATOM     12  O   UNL     1      -3.746  -1.296  24.026  0.00  0.00    -0.423 OA
BRANCH  11  13
ATOM     13  C   UNL     1      -3.684  -2.725  24.367  0.00  0.00    +0.070 C 
ATOM     14  C   UNL     1      -3.555  -3.518  24.185  0.00  0.00    +0.009 C 
ATOM     15  C   UNL     1      -3.172  -2.790  25.011  0.00  0.00    +0.009 C 
ATOM     16  C   UNL     1      -4.195  -2.660  23.723  0.00  0.00    +0.009 C 
ENDBRANCH  11  13
ENDBRANCH   7   8
ENDBRANCH   6   7
BRANCH  20  21
ATOM     21  C   UNL     1      -1.479   2.247  24.875  0.00  0.00    +0.093 C 
BRANCH  21  22
ATOM     22  N   UNL     1      -1.635   3.051  24.968  0.00  0.00    -0.213 NA
BRANCH  22  23
ATOM     23  C   UNL     1      -1.050   3.554  25.259  0.00  0.00    +0.117 C 
BRANCH  23  24
ATOM     24  C   UNL     1      -1.103   4.368  25.127  0.00  0.00    +0.014 A 
ATOM     25  C   UNL     1      -1.771   4.783  25.375  0.00  0.00    +0.000 A 
ATOM     26  C   UNL     1      -1.823   5.596  25.244  0.00  0.00    +0.020 A 
ATOM     27  C   UNL     1      -1.207   5.993  24.864  0.00  0.00    +0.099 A 
ATOM     28  N   UNL     1      -0.539   5.577  24.617  0.00  0.00    -0.243 NA
ATOM     29  C   UNL     1      -0.487   4.764  24.748  0.00  0.00    +0.096 A 
ENDBRANCH  23  24
ENDBRANCH  22  23
ENDBRANCH  21  22
ENDBRANCH  20  21
TORSDOF 8
ENDMDL
MODEL 4
REMARK VINA RESULT:     -10.5      2.191      5.911
REMARK  Name = 
REMARK  8 active torsions:
REMARK  status: ('A' for Active; 'I' for Inactive)
REMARK    1  A    between atoms: C_2  and  C_4
REMARK    2  A    between atoms: C_6  and  C_7
REMARK    3  A    between atoms: C_7  and  C_8
REMARK    4  A    between atoms: C_11  and  C_13
REMARK    5  A    between atoms: C_20  and  C_21
REMARK    6  A    between atoms: C_21  and  N_22
REMARK    7  A    between atoms: N_22  and  C_23
REMARK    8  A    between atoms: C_23  and  C_24
REMARK                            x       y       z     vdW  Elec       q    Type
REMARK                         _______ _______ _______ _____ _____    ______ ____
ROOT
ATOM      4  C   UNL     1      -0.497   0.347  24.397  0.00  0.00    +0.006 C 
ATOM      5  C   UNL     1      -0.679  -0.450  24.506  0.00  0.00    +0.005 C 
ATOM      6  C   UNL     1      -0.983  -0.709  25.227  0.00  0.00    +0.027 C 
ATOM     17  C   UNL     1      -1.107  -0.171  25.840  0.00  0.00    -0.048 C 
ATOM     18  C   UNL     1      -1.411  -0.431  26.561  0.00  0.00    +0.026 C 
ATOM     19  C   UNL     1      -0.925   0.627  25.731  0.00  0.00    -0.033 C 
ATOM     20  C   UNL     1      -0.620   0.886  25.011  0.00  0.00    +0.039 C 
ENDROOT
BRANCH   4   2
ATOM      1  C   UNL     1       0.620   0.578  23.537  0.00  0.00    +0.000 C 
ATOM      2  C   UNL     1      -0.193   0.607  23.675  0.00  0.00    +0.000 C 
ATOM      3  C   UNL     1      -0.701   0.894  23.093  0.00  0.00    +0.000 C 
ENDBRANCH   4   2
BRANCH   6   7
ATOM      7  C   UNL     1      -1.165  -1.507  25.335  0.00  0.00    +0.091 C 
BRANCH   7   8
ATOM      8  C   UNL     1      -1.730  -1.870  24.856  0.00  0.00    +0.226 A 
ATOM      9  N   UNL     1      -1.579  -2.419  24.259  0.00  0.00    -0.112 NA
ATOM     10  N   UNL     1      -2.302  -2.636  23.924  0.00  0.00    -0.112 NA
ATOM     11  C   UNL     1      -2.899  -2.223  24.314  0.00  0.00    +0.225 A 
ATOM     12  O   UNL     1      -2.546  -1.749  24.891  0.00  0.00    -0.423 OA
BRANCH  11  13
ATOM     13  C   UNL     1      -3.707  -2.273  24.157  0.00  0.00    +0.070 C 
ATOM     14  C   UNL     1      -4.514  -2.324  24.000  0.00  0.00    +0.009 C 
ATOM     15  C   UNL     1      -3.733  -3.008  24.531  0.00  0.00    +0.009 C 
ATOM     16  C   UNL     1      -3.680  -1.539  23.782  0.00  0.00    +0.009 C 
ENDBRANCH  11  13
ENDBRANCH   7   8
ENDBRANCH   6   7
BRANCH  20  21
ATOM     21  C   UNL     1      -0.439   1.683  24.902  0.00  0.00    +0.093 C 
BRANCH  21  22
ATOM     22  N   UNL     1      -0.870   2.263  25.299  0.00  0.00    -0.213 NA
BRANCH  22  23
ATOM     23  C   UNL     1      -0.548   3.014  25.407  0.00  0.00    +0.117 C 
BRANCH  23  24
ATOM     24  C   UNL     1      -1.039   3.679  25.397  0.00  0.00    +0.014 A 
ATOM     25  C   UNL     1      -0.798   4.363  25.004  0.00  0.00    +0.000 A 
ATOM     26  C   UNL     1      -1.288   5.027  24.994  0.00  0.00    +0.020 A 
ATOM     27  C   UNL     1      -2.019   5.006  25.378  0.00  0.00    +0.099 A 
ATOM     28  N   UNL     1      -2.258   4.322  25.771  0.00  0.00    -0.243 NA
ATOM     29  C   UNL     1      -1.768   3.658  25.781  0.00  0.00    +0.096 A 
ENDBRANCH  23  24
ENDBRANCH  22  23
ENDBRANCH  21  22
ENDBRANCH  20  21
TORSDOF 8
ENDMDL
MODEL 5
REMARK VINA RESULT:     -10.3      2.689      4.181
REMARK  Name = 
REMARK  8 active torsions:
REMARK  status: ('A' for Active; 'I' for Inactive)
REMARK    1  A    between atoms: C_2  and  C_4
REMARK    2  A    between atoms: C_6  and  C_7
REMARK    3  A    between atoms: C_7  and  C_8
REMARK    4  A    between atoms: C_11  and  C_13
REMARK    5  A    between atoms: C_20  and  C_21
REMARK    6  A    between atoms: C_21  and  N_22
REMARK    7  A    between atoms: N_22  and  C_23
REMARK    8  A    between atoms: C_23  and  C_24
REMARK                            x       y       z     vdW  Elec       q    Type
REMARK                         _______ _______ _______ _____ _____    ______ ____
ROOT
ATOM      4  C   UNL     1      -1.827   3.086  24.648  0.00  0.00    +0.006 C 
ATOM      5  C   UNL     1      -2.606   3.306  24.486  0.00  0.00    +0.005 C 
ATOM      6  C   UNL     1      -3.023   2.931  23.883  0.00  0.00    +0.027 C 
ATOM     17  C   UNL     1      -2.663   2.335  23.440  0.00  0.00    -0.048 C 
ATOM     18  C   UNL     1      -3.081   1.959  22.836  0.00  0.00    +0.026 C 
ATOM     19  C   UNL     1      -1.884   2.115  23.602  0.00  0.00    -0.033 C 
ATOM     20  C   UNL     1      -1.466   2.490  24.205  0.00  0.00    +0.039 C 
ENDROOT
BRANCH   4   2
ATOM      1  C   UNL     1      -1.400   3.137  26.011  0.00  0.00    +0.000 C 
ATOM      2  C   UNL     1      -1.409   3.462  25.252  0.00  0.00    +0.000 C 
ATOM      3  C   UNL     1      -1.002   4.161  25.098  0.00  0.00    +0.000 C 
ENDBRANCH   4   2
BRANCH   6   7
ATOM      7  C   UNL     1      -3.802   3.151  23.721  0.00  0.00    +0.091 C 
BRANCH   7   8
ATOM      8  C   UNL     1      -4.371   3.125  24.318  0.00  0.00    +0.226 A 
ATOM      9  N   UNL     1      -4.639   3.767  24.760  0.00  0.00    -0.112 NA
ATOM     10  N   UNL     1      -5.205   3.492  25.293  0.00  0.00    -0.112 NA
ATOM     11  C   UNL     1      -5.287   2.679  25.181  0.00  0.00    +0.225 A 
ATOM     12  O   UNL     1      -4.772   2.452  24.577  0.00  0.00    -0.423 OA
BRANCH  11  13
ATOM     13  C   UNL     1      -5.795   2.180  25.597  0.00  0.00    +0.070 C 
ATOM     14  C   UNL     1      -6.303   1.681  26.012  0.00  0.00    +0.009 C 
ATOM     15  C   UNL     1      -6.049   1.846  24.886  0.00  0.00    +0.009 C 
ATOM     16  C   UNL     1      -5.542   2.514  26.307  0.00  0.00    +0.009 C 
ENDBRANCH  11  13
ENDBRANCH   7   8
ENDBRANCH   6   7
BRANCH  20  21
ATOM     21  C   UNL     1      -0.688   2.270  24.367  0.00  0.00    +0.093 C 
BRANCH  21  22
ATOM     22  N   UNL     1      -0.326   1.676  23.924  0.00  0.00    -0.213 NA
BRANCH  22  23
ATOM     23  C   UNL     1       0.390   1.353  24.176  0.00  0.00    +0.117 C 
BRANCH  23  24
ATOM     24  C   UNL     1       0.809   0.842  23.681  0.00  0.00    +0.014 A 
ATOM     25  C   UNL     1       0.468   0.130  23.440  0.00  0.00    +0.000 A 
ATOM     26  C   UNL     1       0.886  -0.380  22.945  0.00  0.00    +0.020 A 
ATOM     27  C   UNL     1       1.646  -0.179  22.691  0.00  0.00    +0.099 A 
ATOM     28  N   UNL     1       1.986   0.533  22.933  0.00  0.00    -0.243 NA
ATOM     29  C   UNL     1       1.567   1.043  23.427  0.00  0.00    +0.096 A 
ENDBRANCH  23  24
ENDBRANCH  22  23
ENDBRANCH  21  22
ENDBRANCH  20  21
TORSDOF 8
ENDMDL
MODEL 6
REMARK VINA RESULT:      -9.9      2.747      4.324
REMARK  Name = 
REMARK  8 active torsions:
REMARK  status: ('A' for Active; 'I' for Inactive)
REMARK    1  A    between atoms: C_2  and  C_4
REMARK    2  A    between atoms: C_6  and  C_7
REMARK    3  A    between atoms: C_7  and  C_8
REMARK    4  A    between atoms: C_11  and  C_13
REMARK    5  A    between atoms: C_20  and  C_21
REMARK    6  A    between atoms: C_21  and  N_22
REMARK    7  A    between atoms: N_22  and  C_23
REMARK    8  A    between atoms: C_23  and  C_24
REMARK                            x       y       z     vdW  Elec       q    Type
REMARK                         _______ _______ _______ _____ _____    ______ ____
ROOT
ATOM      4  C   UNL     1      -1.630   0.709  24.767  0.00  0.00    +0.006 C 
ATOM      5  C   UNL     1      -2.124   1.335  24.979  0.00  0.00    +0.005 C 
ATOM      6  C   UNL     1      -1.927   2.106  24.767  0.00  0.00    +0.027 C 
ATOM     17  C   UNL     1      -1.236   2.254  24.341  0.00  0.00    -0.048 C 
ATOM     18  C   UNL     1      -1.038   3.026  24.129  0.00  0.00    +0.026 C 
ATOM     19  C   UNL     1      -0.741   1.628  24.129  0.00  0.00    -0.033 C 
ATOM     20  C   UNL     1      -0.938   0.857  24.341  0.00  0.00    +0.039 C 
ENDROOT
BRANCH   4   2
ATOM      1  C   UNL     1      -1.554  -0.377  25.692  0.00  0.00    +0.000 C 
ATOM      2  C   UNL     1      -1.828  -0.063  24.979  0.00  0.00    +0.000 C 
ATOM      3  C   UNL     1      -2.298  -0.520  24.480  0.00  0.00    +0.000 C 
ENDBRANCH   4   2
BRANCH   6   7
ATOM      7  C   UNL     1      -2.422   2.733  24.979  0.00  0.00    +0.091 C 
BRANCH   7   8
ATOM      8  C   UNL     1      -3.228   2.698  24.809  0.00  0.00    +0.226 A 
ATOM      9  N   UNL     1      -3.576   2.850  24.076  0.00  0.00    -0.112 NA
ATOM     10  N   UNL     1      -4.391   2.751  24.156  0.00  0.00    -0.112 NA
ATOM     11  C   UNL     1      -4.547   2.537  24.937  0.00  0.00    +0.225 A 
ATOM     12  O   UNL     1      -3.828   2.504  25.341  0.00  0.00    -0.423 OA
BRANCH  11  13
ATOM     13  C   UNL     1      -5.291   2.383  25.258  0.00  0.00    +0.070 C 
ATOM     14  C   UNL     1      -6.034   2.229  25.579  0.00  0.00    +0.009 C 
ATOM     15  C   UNL     1      -5.338   1.688  24.816  0.00  0.00    +0.009 C 
ATOM     16  C   UNL     1      -5.244   3.078  25.700  0.00  0.00    +0.009 C 
ENDBRANCH  11  13
ENDBRANCH   7   8
ENDBRANCH   6   7
BRANCH  20  21
ATOM     21  C   UNL     1      -0.444   0.231  24.129  0.00  0.00    +0.093 C 
BRANCH  21  22
ATOM     22  N   UNL     1       0.206   0.366  23.640  0.00  0.00    -0.213 NA
BRANCH  22  23
ATOM     23  C   UNL     1       0.680  -0.265  23.402  0.00  0.00    +0.117 C 
BRANCH  23  24
ATOM     24  C   UNL     1       1.345  -0.128  22.931  0.00  0.00    +0.014 A 
ATOM     25  C   UNL     1       2.024   0.202  23.264  0.00  0.00    +0.000 A 
ATOM     26  C   UNL     1       2.688   0.340  22.793  0.00  0.00    +0.020 A 
ATOM     27  C   UNL     1       2.673   0.147  21.991  0.00  0.00    +0.099 A 
ATOM     28  N   UNL     1       1.993  -0.183  21.659  0.00  0.00    -0.243 NA
ATOM     29  C   UNL     1       1.329  -0.320  22.130  0.00  0.00    +0.096 A 
ENDBRANCH  23  24
ENDBRANCH  22  23
ENDBRANCH  21  22
ENDBRANCH  20  21
TORSDOF 8
ENDMDL
MODEL 7
REMARK VINA RESULT:      -9.8      2.268      4.717
REMARK  Name = 
REMARK  8 active torsions:
REMARK  status: ('A' for Active; 'I' for Inactive)
REMARK    1  A    between atoms: C_2  and  C_4
REMARK    2  A    between atoms: C_6  and  C_7
REMARK    3  A    between atoms: C_7  and  C_8
REMARK    4  A    between atoms: C_11  and  C_13
REMARK    5  A    between atoms: C_20  and  C_21
REMARK    6  A    between atoms: C_21  and  N_22
REMARK    7  A    between atoms: N_22  and  C_23
REMARK    8  A    between atoms: C_23  and  C_24
REMARK                            x       y       z     vdW  Elec       q    Type
REMARK                         _______ _______ _______ _____ _____    ______ ____
ROOT
ATOM      4  C   UNL     1      -2.183   1.893  23.559  0.00  0.00    +0.006 C 
ATOM      5  C   UNL     1      -1.468   1.491  23.648  0.00  0.00    +0.005 C 
ATOM      6  C   UNL     1      -1.049   1.548  24.356  0.00  0.00    +0.027 C 
ATOM     17  C   UNL     1      -1.344   2.006  24.975  0.00  0.00    -0.048 C 
ATOM     18  C   UNL     1      -0.924   2.063  25.683  0.00  0.00    +0.026 C 
ATOM     19  C   UNL     1      -2.059   2.408  24.886  0.00  0.00    -0.033 C 
ATOM     20  C   UNL     1      -2.478   2.351  24.179  0.00  0.00    +0.039 C 
ENDROOT
BRANCH   4   2
ATOM      1  C   UNL     1      -3.096   1.189  22.715  0.00  0.00    +0.000 C 
ATOM      2  C   UNL     1      -2.602   1.836  22.851  0.00  0.00    +0.000 C 
ATOM      3  C   UNL     1      -2.528   2.426  22.280  0.00  0.00    +0.000 C 
ENDBRANCH   4   2
BRANCH   6   7
ATOM      7  C   UNL     1      -0.333   1.146  24.445  0.00  0.00    +0.091 C 
BRANCH   7   8
ATOM      8  C   UNL     1      -0.306   0.326  24.354  0.00  0.00    +0.226 A 
ATOM      9  N   UNL     1       0.152  -0.086  23.806  0.00  0.00    -0.112 NA
ATOM     10  N   UNL     1       0.009  -0.893  23.909  0.00  0.00    -0.112 NA
ATOM     11  C   UNL     1      -0.538  -0.978  24.521  0.00  0.00    +0.225 A 
ATOM     12  O   UNL     1      -0.733  -0.225  24.796  0.00  0.00    -0.423 OA
BRANCH  11  13
ATOM     13  C   UNL     1      -0.838  -1.691  24.807  0.00  0.00    +0.070 C 
ATOM     14  C   UNL     1      -1.138  -2.404  25.092  0.00  0.00    +0.009 C 
ATOM     15  C   UNL     1      -1.302  -1.768  24.128  0.00  0.00    +0.009 C 
ATOM     16  C   UNL     1      -0.375  -1.614  25.485  0.00  0.00    +0.009 C 
ENDBRANCH  11  13
ENDBRANCH   7   8
ENDBRANCH   6   7
BRANCH  20  21
ATOM     21  C   UNL     1      -3.193   2.753  24.089  0.00  0.00    +0.093 C 
BRANCH  21  22
ATOM     22  N   UNL     1      -3.694   2.854  24.736  0.00  0.00    -0.213 NA
BRANCH  22  23
ATOM     23  C   UNL     1      -4.464   3.125  24.623  0.00  0.00    +0.117 C 
BRANCH  23  24
ATOM     24  C   UNL     1      -5.069   2.874  25.127  0.00  0.00    +0.014 A 
ATOM     25  C   UNL     1      -5.556   2.246  24.905  0.00  0.00    +0.000 A 
ATOM     26  C   UNL     1      -6.159   1.995  25.408  0.00  0.00    +0.020 A 
ATOM     27  C   UNL     1      -6.277   2.373  26.133  0.00  0.00    +0.099 A 
ATOM     28  N   UNL     1      -5.790   3.001  26.353  0.00  0.00    -0.243 NA
ATOM     29  C   UNL     1      -5.186   3.251  25.850  0.00  0.00    +0.096 A 
ENDBRANCH  23  24
ENDBRANCH  22  23
ENDBRANCH  21  22
ENDBRANCH  20  21
TORSDOF 8
ENDMDL
