MODEL 1
REMARK VINA RESULT:      -8.7      0.000      0.000
REMARK  Name = 
REMARK  8 active torsions:
REMARK  status: ('A' for Active; 'I' for Inactive)
REMARK    1  A    between atoms: O_2  and  C_3
REMARK    2  A    between atoms: C_6  and  N_7
REMARK    3  A    between atoms: C_8  and  O_10
REMARK    4  A    between atoms: O_10  and  C_11
REMARK    5  A    between atoms: C_15  and  N_19
REMARK    6  A    between atoms: N_19  and  S_20
REMARK    7  A    between atoms: S_20  and  C_23
REMARK    8  A    between atoms: C_23  and  C_24
REMARK                            x       y       z     vdW  Elec       q    Type
REMARK                         _______ _______ _______ _____ _____    ______ ____
ROOT
ATOM     11  C   UNL     1      -0.097   0.402  23.537  0.00  0.00    +0.229 C 
ATOM     12  C   UNL     1      -0.073   0.178  24.330  0.00  0.00    +0.188 C 
ATOM     13  O   UNL     1      -0.737   0.491  24.704  0.00  0.00    -0.348 OA
ATOM     14  C   UNL     1      -1.173   0.909  24.143  0.00  0.00    +0.166 C 
ATOM     15  C   UNL     1      -1.853   1.361  24.025  0.00  0.00    +0.156 C 
ATOM     16  C   UNL     1      -1.877   1.586  23.232  0.00  0.00    +0.164 C 
ATOM     17  O   UNL     1      -1.213   1.273  22.858  0.00  0.00    -0.348 OA
ATOM     18  C   UNL     1      -0.777   0.854  23.421  0.00  0.00    +0.186 C 
ENDROOT
BRANCH  11  10
ATOM     10  O   UNL     1       0.461   0.208  22.960  0.00  0.00    -0.432 OA
BRANCH  10   8
ATOM      7  N   UNL     1       1.829   0.015  22.597  0.00  0.00    -0.142 NA
ATOM      8  C   UNL     1       1.264   0.336  23.103  0.00  0.00    +0.425 C 
ATOM      9  O   UNL     1       1.500   0.785  23.754  0.00  0.00    -0.224 OA
BRANCH   7   6
ATOM      3  C   UNL     1       4.237   0.398  23.025  0.00  0.00    +0.139 A 
ATOM      4  C   UNL     1       3.777   0.996  22.690  0.00  0.00    +0.038 A 
ATOM      5  C   UNL     1       2.974   0.868  22.547  0.00  0.00    +0.020 A 
ATOM      6  C   UNL     1       2.632   0.142  22.740  0.00  0.00    +0.077 A 
ATOM     30  C   UNL     1       3.091  -0.455  23.074  0.00  0.00    +0.020 A 
ATOM     31  C   UNL     1       3.894  -0.327  23.217  0.00  0.00    +0.038 A 
BRANCH   3   2
ATOM      1  C   UNL     1       5.416   0.133  23.787  0.00  0.00    +0.252 C 
ATOM      2  O   UNL     1       5.039   0.527  23.168  0.00  0.00    -0.471 OA
ENDBRANCH   3   2
ENDBRANCH   7   6
ENDBRANCH  10   8
ENDBRANCH  11  10
BRANCH  15  19
ATOM     19  N   UNL     1      -2.411   1.555  24.602  0.00  0.00    -0.078 NA
BRANCH  19  20
ATOM     20  S   UNL     1      -3.117   1.922  24.385  0.00  0.00    +0.062 S 
ATOM     21  O   UNL     1      -3.456   1.183  24.241  0.00  0.00    -0.156 OA
ATOM     22  O   UNL     1      -2.779   2.660  24.530  0.00  0.00    -0.156 OA
BRANCH  20  23
ATOM     23  C   UNL     1      -3.824   2.288  24.168  0.00  0.00    +0.197 C 
BRANCH  23  24
ATOM     24  C   UNL     1      -4.420   2.399  24.728  0.00  0.00    +0.003 A 
ATOM     25  C   UNL     1      -4.441   3.090  25.178  0.00  0.00    -0.003 A 
ATOM     26  C   UNL     1      -5.037   3.200  25.738  0.00  0.00    -0.000 A 
ATOM     27  C   UNL     1      -5.612   2.619  25.848  0.00  0.00    -0.000 A 
ATOM     28  C   UNL     1      -5.591   1.927  25.398  0.00  0.00    -0.000 A 
ATOM     29  C   UNL     1      -4.996   1.818  24.839  0.00  0.00    -0.003 A 
ENDBRANCH  23  24
ENDBRANCH  20  23
ENDBRANCH  19  20
ENDBRANCH  15  19
TORSDOF 8
ENDMDL
MODEL 2
REMARK VINA RESULT:      -7.9      3.110      4.934
REMARK  Name = 
REMARK  8 active torsions:
REMARK  status: ('A' for Active; 'I' for Inactive)
REMARK    1  A    between atoms: O_2  and  C_3
REMARK    2  A    between atoms: C_6  and  N_7
REMARK    3  A    between atoms: C_8  and  O_10
REMARK    4  A    between atoms: O_10  and  C_11
REMARK    5  A    between atoms: C_15  and  N_19
REMARK    6  A    between atoms: N_19  and  S_20
REMARK    7  A    between atoms: S_20  and  C_23
REMARK    8  A    between atoms: C_23  and  C_24
REMARK                            x       y       z     vdW  Elec       q    Type
REMARK                         _______ _______ _______ _____ _____    ______ ____
ROOT
ATOM     11  C   UNL     1      -0.009   1.038  24.445  0.00  0.00    +0.229 C 
ATOM     12  C   UNL     1      -0.032   0.820  23.650  0.00  0.00    +0.188 C 
ATOM     13  O   UNL     1      -0.423   0.096  23.596  0.00  0.00    -0.348 OA
ATOM     14  C   UNL     1      -0.642  -0.134  24.356  0.00  0.00    +0.166 C 
ATOM     15  C   UNL     1      -1.018  -0.723  24.794  0.00  0.00    +0.156 C 
ATOM     16  C   UNL     1      -0.995  -0.505  25.590  0.00  0.00    +0.164 C 
ATOM     17  O   UNL     1      -0.604   0.219  25.643  0.00  0.00    -0.348 OA
ATOM     18  C   UNL     1      -0.386   0.449  24.881  0.00  0.00    +0.186 C 
ENDROOT
BRANCH  11  10
ATOM     10  O   UNL     1       0.331   1.726  24.749  0.00  0.00    -0.432 OA
BRANCH  10   8
ATOM      7  N   UNL     1      -0.216   2.902  25.348  0.00  0.00    -0.142 NA
ATOM      8  C   UNL     1      -0.062   2.448  24.678  0.00  0.00    +0.425 C 
ATOM      9  O   UNL     1      -0.301   2.714  23.934  0.00  0.00    -0.224 OA
BRANCH   7   6
ATOM      3  C   UNL     1      -1.393   5.069  25.132  0.00  0.00    +0.139 A 
ATOM      4  C   UNL     1      -0.625   4.986  24.842  0.00  0.00    +0.038 A 
ATOM      5  C   UNL     1      -0.233   4.263  24.914  0.00  0.00    +0.020 A 
ATOM      6  C   UNL     1      -0.609   3.624  25.276  0.00  0.00    +0.077 A 
ATOM     30  C   UNL     1      -1.376   3.707  25.566  0.00  0.00    +0.020 A 
ATOM     31  C   UNL     1      -1.769   4.429  25.495  0.00  0.00    +0.038 A 
BRANCH   3   2
ATOM      1  C   UNL     1      -2.601   5.831  25.180  0.00  0.00    +0.252 C 
ATOM      2  O   UNL     1      -1.785   5.791  25.060  0.00  0.00    -0.471 OA
ENDBRANCH   3   2
ENDBRANCH   7   6
ENDBRANCH  10   8
ENDBRANCH  11  10
BRANCH  15  19
ATOM     19  N   UNL     1      -1.359  -1.410  24.490  0.00  0.00    -0.078 NA
BRANCH  19  20
ATOM     20  S   UNL     1      -2.067  -1.694  24.804  0.00  0.00    +0.062 S 
ATOM     21  O   UNL     1      -2.460  -1.027  24.519  0.00  0.00    -0.156 OA
ATOM     22  O   UNL     1      -1.673  -2.361  25.088  0.00  0.00    -0.156 OA
BRANCH  20  23
ATOM     23  C   UNL     1      -2.775  -1.978  25.117  0.00  0.00    +0.197 C 
BRANCH  23  24
ATOM     24  C   UNL     1      -3.379  -2.227  24.613  0.00  0.00    +0.003 A 
ATOM     25  C   UNL     1      -3.936  -1.684  24.338  0.00  0.00    -0.003 A 
ATOM     26  C   UNL     1      -4.541  -1.933  23.834  0.00  0.00    -0.000 A 
ATOM     27  C   UNL     1      -4.587  -2.724  23.606  0.00  0.00    -0.000 A 
ATOM     28  C   UNL     1      -4.030  -3.267  23.881  0.00  0.00    -0.000 A 
ATOM     29  C   UNL     1      -3.427  -3.018  24.385  0.00  0.00    -0.003 A 
ENDBRANCH  23  24
ENDBRANCH  20  23
ENDBRANCH  19  20
ENDBRANCH  15  19
TORSDOF 8
ENDMDL
MODEL 3
REMARK VINA RESULT:      -7.7      1.461      7.056
REMARK  Name = 
REMARK  8 active torsions:
REMARK  status: ('A' for Active; 'I' for Inactive)
REMARK    1  A    between atoms: O_2  and  C_3
REMARK    2  A    between atoms: C_6  and  N_7
REMARK    3  A    between atoms: C_8  and  O_10
REMARK    4  A    between atoms: O_10  and  C_11
REMARK    5  A    between atoms: C_15  and  N_19
REMARK    6  A    between atoms: N_19  and  S_20
REMARK    7  A    between atoms: S_20  and  C_23
REMARK    8  A    between atoms: C_23  and  C_24
REMARK                            x       y       z     vdW  Elec       q    Type
REMARK                         _______ _______ _______ _____ _____    ______ ____
ROOT
ATOM     11  C   UNL     1      -0.655   0.728  23.911  0.00  0.00    +0.229 C 
ATOM     12  C   UNL     1      -0.403   1.293  24.457  0.00  0.00    +0.188 C 
ATOM     13  O   UNL     1       0.414   1.376  24.379  0.00  0.00    -0.348 OA
ATOM     14  C   UNL     1       0.667   0.864  23.785  0.00  0.00    +0.166 C 
ATOM     15  C   UNL     1       1.328   0.598  23.369  0.00  0.00    +0.156 C 
ATOM     16  C   UNL     1       1.076   0.033  22.823  0.00  0.00    +0.164 C 
ATOM     17  O   UNL     1       0.259  -0.050  22.901  0.00  0.00    -0.348 OA
ATOM     18  C   UNL     1       0.006   0.463  23.496  0.00  0.00    +0.186 C 
ENDROOT
BRANCH  11  10
ATOM     10  O   UNL     1      -1.432   0.474  23.800  0.00  0.00    -0.432 OA
BRANCH  10   8
ATOM      7  N   UNL     1      -2.725   1.060  23.642  0.00  0.00    -0.142 NA
ATOM      8  C   UNL     1      -2.059   0.915  24.105  0.00  0.00    +0.425 C 
ATOM      9  O   UNL     1      -2.018   1.212  24.874  0.00  0.00    -0.224 OA
BRANCH   7   6
ATOM      3  C   UNL     1      -4.605   2.387  24.556  0.00  0.00    +0.139 A 
ATOM      4  C   UNL     1      -4.036   2.750  24.080  0.00  0.00    +0.038 A 
ATOM      5  C   UNL     1      -3.410   2.307  23.776  0.00  0.00    +0.020 A 
ATOM      6  C   UNL     1      -3.352   1.502  23.947  0.00  0.00    +0.077 A 
ATOM     30  C   UNL     1      -3.920   1.140  24.422  0.00  0.00    +0.020 A 
ATOM     31  C   UNL     1      -4.547   1.582  24.726  0.00  0.00    +0.038 A 
BRANCH   3   2
ATOM      1  C   UNL     1      -5.147   3.221  25.581  0.00  0.00    +0.252 C 
ATOM      2  O   UNL     1      -5.231   2.829  24.860  0.00  0.00    -0.471 OA
ENDBRANCH   3   2
ENDBRANCH   7   6
ENDBRANCH  10   8
ENDBRANCH  11  10
BRANCH  15  19
ATOM     19  N   UNL     1       2.105   0.852  23.480  0.00  0.00    -0.078 NA
BRANCH  19  20
ATOM     20  S   UNL     1       2.724   0.471  23.089  0.00  0.00    +0.062 S 
ATOM     21  O   UNL     1       2.897   1.169  22.684  0.00  0.00    -0.156 OA
ATOM     22  O   UNL     1       2.550  -0.226  23.494  0.00  0.00    -0.156 OA
BRANCH  20  23
ATOM     23  C   UNL     1       3.342   0.090  22.698  0.00  0.00    +0.197 C 
BRANCH  23  24
ATOM     24  C   UNL     1       4.082   0.029  23.059  0.00  0.00    +0.003 A 
ATOM     25  C   UNL     1       4.309  -0.677  23.419  0.00  0.00    -0.003 A 
ATOM     26  C   UNL     1       5.049  -0.738  23.779  0.00  0.00    -0.000 A 
ATOM     27  C   UNL     1       5.562  -0.092  23.778  0.00  0.00    -0.000 A 
ATOM     28  C   UNL     1       5.336   0.614  23.418  0.00  0.00    -0.000 A 
ATOM     29  C   UNL     1       4.596   0.675  23.058  0.00  0.00    -0.003 A 
ENDBRANCH  23  24
ENDBRANCH  20  23
ENDBRANCH  19  20
ENDBRANCH  15  19
TORSDOF 8
ENDMDL
MODEL 4
REMARK VINA RESULT:      -7.4      3.124      5.140
REMARK  Name = 
REMARK  8 active torsions:
REMARK  status: ('A' for Active; 'I' for Inactive)
REMARK    1  A    between atoms: O_2  and  C_3
REMARK    2  A    between atoms: C_6  and  N_7
REMARK    3  A    between atoms: C_8  and  O_10
REMARK    4  A    between atoms: O_10  and  C_11
REMARK    5  A    between atoms: C_15  and  N_19
REMARK    6  A    between atoms: N_19  and  S_20
REMARK    7  A    between atoms: S_20  and  C_23
REMARK    8  A    between atoms: C_23  and  C_24
REMARK                            x       y       z     vdW  Elec       q    Type
REMARK                         _______ _______ _______ _____ _____    ______ ____
ROOT
ATOM     11  C   UNL     1      -0.433  -0.348  24.604  0.00  0.00    +0.229 C 
ATOM     12  C   UNL     1      -0.141  -0.088  23.878  0.00  0.00    +0.188 C 
ATOM     13  O   UNL     1      -0.078   0.734  23.909  0.00  0.00    -0.348 OA
ATOM     14  C   UNL     1      -0.330   0.982  24.653  0.00  0.00    +0.166 C 
ATOM     15  C   UNL     1      -0.448   1.642  25.133  0.00  0.00    +0.156 C 
ATOM     16  C   UNL     1      -0.739   1.382  25.860  0.00  0.00    +0.164 C 
ATOM     17  O   UNL     1      -0.803   0.561  25.829  0.00  0.00    -0.348 OA
ATOM     18  C   UNL     1      -0.550   0.313  25.083  0.00  0.00    +0.186 C 
ENDROOT
BRANCH  11  10
ATOM     10  O   UNL     1      -0.581  -1.132  24.814  0.00  0.00    -0.432 OA
BRANCH  10   8
ATOM      7  N   UNL     1      -1.906  -1.623  25.029  0.00  0.00    -0.142 NA
ATOM      8  C   UNL     1      -1.257  -1.514  24.533  0.00  0.00    +0.425 C 
ATOM      9  O   UNL     1      -1.281  -1.787  23.755  0.00  0.00    -0.224 OA
BRANCH   7   6
ATOM      3  C   UNL     1      -3.932  -2.768  24.186  0.00  0.00    +0.139 A 
ATOM      4  C   UNL     1      -3.910  -1.944  24.226  0.00  0.00    +0.038 A 
ATOM      5  C   UNL     1      -3.235  -1.563  24.507  0.00  0.00    +0.020 A 
ATOM      6  C   UNL     1      -2.581  -2.005  24.748  0.00  0.00    +0.077 A 
ATOM     30  C   UNL     1      -2.604  -2.828  24.708  0.00  0.00    +0.020 A 
ATOM     31  C   UNL     1      -3.279  -3.210  24.427  0.00  0.00    +0.038 A 
BRANCH   3   2
ATOM      1  C   UNL     1      -4.932  -2.930  23.178  0.00  0.00    +0.252 C 
ATOM      2  O   UNL     1      -4.608  -3.149  23.905  0.00  0.00    -0.471 OA
ENDBRANCH   3   2
ENDBRANCH   7   6
ENDBRANCH  10   8
ENDBRANCH  11  10
BRANCH  15  19
ATOM     19  N   UNL     1      -0.299   2.427  24.923  0.00  0.00    -0.078 NA
BRANCH  19  20
ATOM     20  S   UNL     1      -0.652   3.041  25.346  0.00  0.00    +0.062 S 
ATOM     21  O   UNL     1       0.040   3.136  25.785  0.00  0.00    -0.156 OA
ATOM     22  O   UNL     1      -1.344   2.946  24.907  0.00  0.00    -0.156 OA
BRANCH  20  23
ATOM     23  C   UNL     1      -1.005   3.655  25.769  0.00  0.00    +0.197 C 
BRANCH  23  24
ATOM     24  C   UNL     1      -1.153   4.378  25.399  0.00  0.00    +0.003 A 
ATOM     25  C   UNL     1      -0.551   4.760  24.983  0.00  0.00    -0.003 A 
ATOM     26  C   UNL     1      -0.700   5.483  24.614  0.00  0.00    -0.000 A 
ATOM     27  C   UNL     1      -1.449   5.824  24.661  0.00  0.00    -0.000 A 
ATOM     28  C   UNL     1      -2.051   5.442  25.078  0.00  0.00    -0.000 A 
ATOM     29  C   UNL     1      -1.902   4.720  25.446  0.00  0.00    -0.003 A 
ENDBRANCH  23  24
ENDBRANCH  20  23
ENDBRANCH  19  20
ENDBRANCH  15  19
TORSDOF 8
ENDMDL
MODEL 5
REMARK VINA RESULT:      -6.3     17.655     18.274
REMARK  Name = 
REMARK  8 active torsions:
REMARK  status: ('A' for Active; 'I' for Inactive)
REMARK    1  A    between atoms: O_2  and  C_3
REMARK    2  A    between atoms: C_6  and  N_7
REMARK    3  A    between atoms: C_8  and  O_10
REMARK    4  A    between atoms: O_10  and  C_11
REMARK    5  A    between atoms: C_15  and  N_19
REMARK    6  A    between atoms: N_19  and  S_20
REMARK    7  A    between atoms: S_20  and  C_23
REMARK    8  A    between atoms: C_23  and  C_24
REMARK                            x       y       z     vdW  Elec       q    Type
REMARK                         _______ _______ _______ _____ _____    ______ ____
ROOT
ATOM     11  C   UNL     1      -6.271  -9.790  10.132  0.00  0.00    +0.229 C 
ATOM     12  C   UNL     1      -6.535  -9.505  10.860  0.00  0.00    +0.188 C 
ATOM     13  O   UNL     1      -7.158  -8.984  10.717  0.00  0.00    -0.348 OA
ATOM     14  C   UNL     1      -7.280  -8.947   9.903  0.00  0.00    +0.166 C 
ATOM     15  C   UNL     1      -7.739  -8.603   9.310  0.00  0.00    +0.156 C 
ATOM     16  C   UNL     1      -7.475  -8.888   8.583  0.00  0.00    +0.164 C 
ATOM     17  O   UNL     1      -6.852  -9.409   8.726  0.00  0.00    -0.348 OA
ATOM     18  C   UNL     1      -6.731  -9.446   9.541  0.00  0.00    +0.186 C 
ENDROOT
BRANCH  11  10
ATOM     10  O   UNL     1      -5.655 -10.327  10.017  0.00  0.00    -0.432 OA
BRANCH  10   8
ATOM      7  N   UNL     1      -4.229 -10.232  10.003  0.00  0.00    -0.142 NA
ATOM      8  C   UNL     1      -4.941 -10.228  10.419  0.00  0.00    +0.425 C 
ATOM      9  O   UNL     1      -4.940 -10.126  11.238  0.00  0.00    -0.224 OA
BRANCH   7   6
ATOM      3  C   UNL     1      -2.088  -9.938  11.210  0.00  0.00    +0.139 A 
ATOM      4  C   UNL     1      -2.507 -10.645  11.280  0.00  0.00    +0.038 A 
ATOM      5  C   UNL     1      -3.221 -10.743  10.878  0.00  0.00    +0.020 A 
ATOM      6  C   UNL     1      -3.515 -10.134  10.405  0.00  0.00    +0.077 A 
ATOM     30  C   UNL     1      -3.096  -9.428  10.335  0.00  0.00    +0.020 A 
ATOM     31  C   UNL     1      -2.382  -9.329  10.737  0.00  0.00    +0.038 A 
BRANCH   3   2
ATOM      1  C   UNL     1      -0.861  -9.231  11.399  0.00  0.00    +0.252 C 
ATOM      2  O   UNL     1      -1.374  -9.841  11.612  0.00  0.00    -0.471 OA
ENDBRANCH   3   2
ENDBRANCH   7   6
ENDBRANCH  10   8
ENDBRANCH  11  10
BRANCH  15  19
ATOM     19  N   UNL     1      -8.355  -8.066   9.426  0.00  0.00    -0.078 NA
BRANCH  19  20
ATOM     20  S   UNL     1      -8.625  -7.606   8.797  0.00  0.00    +0.062 S 
ATOM     21  O   UNL     1      -8.010  -7.071   8.924  0.00  0.00    -0.156 OA
ATOM     22  O   UNL     1      -9.240  -8.141   8.669  0.00  0.00    -0.156 OA
BRANCH  20  23
ATOM     23  C   UNL     1      -8.895  -7.146   8.167  0.00  0.00    +0.197 C 
BRANCH  23  24
ATOM     24  C   UNL     1      -9.405  -6.512   8.308  0.00  0.00    +0.003 A 
ATOM     25  C   UNL     1     -10.210  -6.648   8.425  0.00  0.00    -0.003 A 
ATOM     26  C   UNL     1     -10.719  -6.014   8.566  0.00  0.00    -0.000 A 
ATOM     27  C   UNL     1     -10.423  -5.245   8.590  0.00  0.00    -0.000 A 
ATOM     28  C   UNL     1      -9.618  -5.109   8.473  0.00  0.00    -0.000 A 
ATOM     29  C   UNL     1      -9.109  -5.742   8.332  0.00  0.00    -0.003 A 
ENDBRANCH  23  24
ENDBRANCH  20  23
ENDBRANCH  19  20
ENDBRANCH  15  19
TORSDOF 8
ENDMDL
MODEL 6
REMARK VINA RESULT:      -6.1     15.517     16.139
REMARK  Name = 
REMARK  8 active torsions:
REMARK  status: ('A' for Active; 'I' for Inactive)
REMARK    1  A    between atoms: O_2  and  C_3
REMARK    2  A    between atoms: C_6  and  N_7
REMARK    3  A    between atoms: C_8  and  O_10
REMARK    4  A    between atoms: O_10  and  C_11
REMARK    5  A    between atoms: C_15  and  N_19
REMARK    6  A    between atoms: N_19  and  S_20
REMARK    7  A    between atoms: S_20  and  C_23
REMARK    8  A    between atoms: C_23  and  C_24
REMARK                            x       y       z     vdW  Elec       q    Type
REMARK                         _______ _______ _______ _____ _____    ______ ____
ROOT
ATOM     11  C   UNL     1      -5.683 -10.470  13.596  0.00  0.00    +0.229 C 
ATOM     12  C   UNL     1      -6.373 -10.781  13.269  0.00  0.00    +0.188 C 
ATOM     13  O   UNL     1      -6.973 -10.713  13.830  0.00  0.00    -0.348 OA
ATOM     14  C   UNL     1      -6.655 -10.360  14.504  0.00  0.00    +0.166 C 
ATOM     15  C   UNL     1      -6.828 -10.100  15.267  0.00  0.00    +0.156 C 
ATOM     16  C   UNL     1      -6.138  -9.788  15.594  0.00  0.00    +0.164 C 
ATOM     17  O   UNL     1      -5.537  -9.856  15.032  0.00  0.00    -0.348 OA
ATOM     18  C   UNL     1      -5.857 -10.209  14.359  0.00  0.00    +0.186 C 
ENDROOT
BRANCH  11  10
ATOM     10  O   UNL     1      -4.947 -10.426  13.224  0.00  0.00    -0.432 OA
BRANCH  10   8
ATOM      7  N   UNL     1      -4.396  -9.704  12.121  0.00  0.00    -0.142 NA
ATOM      8  C   UNL     1      -4.902 -10.286  12.412  0.00  0.00    +0.425 C 
ATOM      9  O   UNL     1      -5.364 -10.731  11.892  0.00  0.00    -0.224 OA
BRANCH   7   6
ATOM      3  C   UNL     1      -4.261  -9.286   9.685  0.00  0.00    +0.139 A 
ATOM      4  C   UNL     1      -3.794  -9.872  10.030  0.00  0.00    +0.038 A 
ATOM      5  C   UNL     1      -3.840 -10.011  10.842  0.00  0.00    +0.020 A 
ATOM      6  C   UNL     1      -4.352  -9.564  11.309  0.00  0.00    +0.077 A 
ATOM     30  C   UNL     1      -4.818  -8.978  10.964  0.00  0.00    +0.020 A 
ATOM     31  C   UNL     1      -4.773  -8.838  10.152  0.00  0.00    +0.038 A 
BRANCH   3   2
ATOM      1  C   UNL     1      -4.704  -9.565   8.355  0.00  0.00    +0.252 C 
ATOM      2  O   UNL     1      -4.216  -9.147   8.873  0.00  0.00    -0.471 OA
ENDBRANCH   3   2
ENDBRANCH   7   6
ENDBRANCH  10   8
ENDBRANCH  11  10
BRANCH  15  19
ATOM     19  N   UNL     1      -7.563 -10.143  15.639  0.00  0.00    -0.078 NA
BRANCH  19  20
ATOM     20  S   UNL     1      -7.708  -9.703  16.321  0.00  0.00    +0.062 S 
ATOM     21  O   UNL     1      -7.475 -10.344  16.784  0.00  0.00    -0.156 OA
ATOM     22  O   UNL     1      -7.941  -9.062  15.857  0.00  0.00    -0.156 OA
BRANCH  20  23
ATOM     23  C   UNL     1      -7.852  -9.262  17.003  0.00  0.00    +0.197 C 
BRANCH  23  24
ATOM     24  C   UNL     1      -8.621  -9.194  17.295  0.00  0.00    +0.003 A 
ATOM     25  C   UNL     1      -8.948  -9.806  17.742  0.00  0.00    -0.003 A 
ATOM     26  C   UNL     1      -9.717  -9.738  18.035  0.00  0.00    -0.000 A 
ATOM     27  C   UNL     1     -10.158  -9.059  17.880  0.00  0.00    -0.000 A 
ATOM     28  C   UNL     1      -9.831  -8.447  17.433  0.00  0.00    -0.000 A 
ATOM     29  C   UNL     1      -9.063  -8.515  17.141  0.00  0.00    -0.003 A 
ENDBRANCH  23  24
ENDBRANCH  20  23
ENDBRANCH  19  20
ENDBRANCH  15  19
TORSDOF 8
ENDMDL
MODEL 7
REMARK VINA RESULT:      -6.0     17.500     19.096
REMARK  Name = 
REMARK  8 active torsions:
REMARK  status: ('A' for Active; 'I' for Inactive)
REMARK    1  A    between atoms: O_2  and  C_3
REMARK    2  A    between atoms: C_6  and  N_7
REMARK    3  A    between atoms: C_8  and  O_10
REMARK    4  A    between atoms: O_10  and  C_11
REMARK    5  A    between atoms: C_15  and  N_19
REMARK    6  A    between atoms: N_19  and  S_20
REMARK    7  A    between atoms: S_20  and  C_23
REMARK    8  A    between atoms: C_23  and  C_24
REMARK                            x       y       z     vdW  Elec       q    Type
REMARK                         _______ _______ _______ _____ _____    ______ ____
ROOT
ATOM     11  C   UNL     1      -7.357  -8.445   9.026  0.00  0.00    +0.229 C 
ATOM     12  C   UNL     1      -7.729  -8.703   9.716  0.00  0.00    +0.188 C 
ATOM     13  O   UNL     1      -7.156  -9.042  10.202  0.00  0.00    -0.348 OA
ATOM     14  C   UNL     1      -6.430  -8.993   9.814  0.00  0.00    +0.166 C 
ATOM     15  C   UNL     1      -5.627  -9.173   9.874  0.00  0.00    +0.156 C 
ATOM     16  C   UNL     1      -5.255  -8.915   9.184  0.00  0.00    +0.164 C 
ATOM     17  O   UNL     1      -5.829  -8.576   8.698  0.00  0.00    -0.348 OA
ATOM     18  C   UNL     1      -6.555  -8.624   9.087  0.00  0.00    +0.186 C 
ENDROOT
BRANCH  11  10
ATOM     10  O   UNL     1      -7.724  -8.072   8.388  0.00  0.00    -0.432 OA
BRANCH  10   8
ATOM      7  N   UNL     1      -8.306  -6.794   8.124  0.00  0.00    -0.142 NA
ATOM      8  C   UNL     1      -8.320  -7.517   8.521  0.00  0.00    +0.425 C 
ATOM      9  O   UNL     1      -8.930  -7.686   9.051  0.00  0.00    -0.224 OA
BRANCH   7   6
ATOM      3  C   UNL     1     -10.094  -5.129   8.522  0.00  0.00    +0.139 A 
ATOM      4  C   UNL     1     -10.289  -5.893   8.279  0.00  0.00    +0.038 A 
ATOM      5  C   UNL     1      -9.692  -6.448   8.147  0.00  0.00    +0.020 A 
ATOM      6  C   UNL     1      -8.902  -6.239   8.257  0.00  0.00    +0.077 A 
ATOM     30  C   UNL     1      -8.708  -5.475   8.500  0.00  0.00    +0.020 A 
ATOM     31  C   UNL     1      -9.304  -4.920   8.632  0.00  0.00    +0.038 A 
BRANCH   3   2
ATOM      1  C   UNL     1     -10.599  -4.003   9.243  0.00  0.00    +0.252 C 
ATOM      2  O   UNL     1     -10.690  -4.575   8.654  0.00  0.00    -0.471 OA
ENDBRANCH   3   2
ENDBRANCH   7   6
ENDBRANCH  10   8
ENDBRANCH  11  10
BRANCH  15  19
ATOM     19  N   UNL     1      -5.260  -9.545  10.512  0.00  0.00    -0.078 NA
BRANCH  19  20
ATOM     20  S   UNL     1      -4.446  -9.468  10.623  0.00  0.00    +0.062 S 
ATOM     21  O   UNL     1      -4.575  -8.820  11.118  0.00  0.00    -0.156 OA
ATOM     22  O   UNL     1      -4.317 -10.115  10.128  0.00  0.00    -0.156 OA
BRANCH  20  23
ATOM     23  C   UNL     1      -3.633  -9.390  10.734  0.00  0.00    +0.197 C 
BRANCH  23  24
ATOM     24  C   UNL     1      -3.247  -9.854  11.297  0.00  0.00    +0.003 A 
ATOM     25  C   UNL     1      -3.628 -10.049  12.002  0.00  0.00    -0.003 A 
ATOM     26  C   UNL     1      -3.242 -10.512  12.565  0.00  0.00    -0.000 A 
ATOM     27  C   UNL     1      -2.475 -10.781  12.423  0.00  0.00    -0.000 A 
ATOM     28  C   UNL     1      -2.094 -10.586  11.717  0.00  0.00    -0.000 A 
ATOM     29  C   UNL     1      -2.480 -10.123  11.155  0.00  0.00    -0.003 A 
ENDBRANCH  23  24
ENDBRANCH  20  23
ENDBRANCH  19  20
ENDBRANCH  15  19
TORSDOF 8
ENDMDL
MODEL 8
REMARK VINA RESULT:      -5.9     15.653     17.264
REMARK  Name = 
REMARK  8 active torsions:
REMARK  status: ('A' for Active; 'I' for Inactive)
REMARK    1  A    between atoms: O_2  and  C_3
REMARK    2  A    between atoms: C_6  and  N_7
REMARK    3  A    between atoms: C_8  and  O_10
REMARK    4  A    between atoms: O_10  and  C_11
REMARK    5  A    between atoms: C_15  and  N_19
REMARK    6  A    between atoms: N_19  and  S_20
REMARK    7  A    between atoms: S_20  and  C_23
REMARK    8  A    between atoms: C_23  and  C_24
REMARK                            x       y       z     vdW  Elec       q    Type
REMARK                         _______ _______ _______ _____ _____    ______ ____
ROOT
ATOM     11  C   UNL     1      -6.743 -10.127  14.636  0.00  0.00    +0.229 C 
ATOM     12  C   UNL     1      -7.408 -10.086  14.150  0.00  0.00    +0.188 C 
ATOM     13  O   UNL     1      -7.149 -10.029  13.369  0.00  0.00    -0.348 OA
ATOM     14  C   UNL     1      -6.325 -10.034  13.372  0.00  0.00    +0.166 C 
ATOM     15  C   UNL     1      -5.654 -10.002  12.892  0.00  0.00    +0.156 C 
ATOM     16  C   UNL     1      -4.989 -10.043  13.379  0.00  0.00    +0.164 C 
ATOM     17  O   UNL     1      -5.248 -10.101  14.159  0.00  0.00    -0.348 OA
ATOM     18  C   UNL     1      -6.074 -10.095  14.156  0.00  0.00    +0.186 C 
ENDROOT
BRANCH  11  10
ATOM     10  O   UNL     1      -6.747 -10.189  15.459  0.00  0.00    -0.432 OA
BRANCH  10   8
ATOM      7  N   UNL     1      -7.464  -9.555  16.520  0.00  0.00    -0.142 NA
ATOM      8  C   UNL     1      -7.448 -10.073  15.878  0.00  0.00    +0.425 C 
ATOM      9  O   UNL     1      -8.134 -10.475  15.655  0.00  0.00    -0.224 OA
BRANCH   7   6
ATOM      3  C   UNL     1      -9.567  -9.206  17.778  0.00  0.00    +0.139 A 
ATOM      4  C   UNL     1      -9.092  -9.860  17.942  0.00  0.00    +0.038 A 
ATOM      5  C   UNL     1      -8.391  -9.976  17.522  0.00  0.00    +0.020 A 
ATOM      6  C   UNL     1      -8.165  -9.438  16.939  0.00  0.00    +0.077 A 
ATOM     30  C   UNL     1      -8.640  -8.784  16.775  0.00  0.00    +0.020 A 
ATOM     31  C   UNL     1      -9.341  -8.668  17.194  0.00  0.00    +0.038 A 
BRANCH   3   2
ATOM      1  C   UNL     1     -10.719  -9.739  18.434  0.00  0.00    +0.252 C 
ATOM      2  O   UNL     1     -10.268  -9.090  18.198  0.00  0.00    -0.471 OA
ENDBRANCH   3   2
ENDBRANCH   7   6
ENDBRANCH  10   8
ENDBRANCH  11  10
BRANCH  15  19
ATOM     19  N   UNL     1      -5.650  -9.940  12.069  0.00  0.00    -0.078 NA
BRANCH  19  20
ATOM     20  S   UNL     1      -4.935  -9.861  11.665  0.00  0.00    +0.062 S 
ATOM     21  O   UNL     1      -4.870 -10.683  11.621  0.00  0.00    -0.156 OA
ATOM     22  O   UNL     1      -5.000  -9.040  11.709  0.00  0.00    -0.156 OA
BRANCH  20  23
ATOM     23  C   UNL     1      -4.220  -9.783  11.261  0.00  0.00    +0.197 C 
BRANCH  23  24
ATOM     24  C   UNL     1      -4.219  -9.666  10.444  0.00  0.00    +0.003 A 
ATOM     25  C   UNL     1      -4.311 -10.308   9.935  0.00  0.00    -0.003 A 
ATOM     26  C   UNL     1      -4.309 -10.191   9.118  0.00  0.00    -0.000 A 
ATOM     27  C   UNL     1      -4.215  -9.431   8.811  0.00  0.00    -0.000 A 
ATOM     28  C   UNL     1      -4.123  -8.789   9.320  0.00  0.00    -0.000 A 
ATOM     29  C   UNL     1      -4.125  -8.906  10.136  0.00  0.00    -0.003 A 
ENDBRANCH  23  24
ENDBRANCH  20  23
ENDBRANCH  19  20
ENDBRANCH  15  19
TORSDOF 8
ENDMDL
MODEL 9
REMARK VINA RESULT:      -4.9     16.121     17.820
REMARK  Name = 
REMARK  8 active torsions:
REMARK  status: ('A' for Active; 'I' for Inactive)
REMARK    1  A    between atoms: O_2  and  C_3
REMARK    2  A    between atoms: C_6  and  N_7
REMARK    3  A    between atoms: C_8  and  O_10
REMARK    4  A    between atoms: O_10  and  C_11
REMARK    5  A    between atoms: C_15  and  N_19
REMARK    6  A    between atoms: N_19  and  S_20
REMARK    7  A    between atoms: S_20  and  C_23
REMARK    8  A    between atoms: C_23  and  C_24
REMARK                            x       y       z     vdW  Elec       q    Type
REMARK                         _______ _______ _______ _____ _____    ______ ____
ROOT
ATOM     11  C   UNL     1      -7.343  -9.720  12.516  0.00  0.00    +0.229 C 
ATOM     12  C   UNL     1      -7.156  -8.929  12.654  0.00  0.00    +0.188 C 
ATOM     13  O   UNL     1      -6.395  -8.793  12.366  0.00  0.00    -0.348 OA
ATOM     14  C   UNL     1      -6.112  -9.500  12.050  0.00  0.00    +0.166 C 
ATOM     15  C   UNL     1      -5.467  -9.854  11.676  0.00  0.00    +0.156 C 
ATOM     16  C   UNL     1      -5.654 -10.645  11.538  0.00  0.00    +0.164 C 
ATOM     17  O   UNL     1      -6.415 -10.781  11.826  0.00  0.00    -0.348 OA
ATOM     18  C   UNL     1      -6.698 -10.073  12.142  0.00  0.00    +0.186 C 
ENDROOT
BRANCH  11  10
ATOM     10  O   UNL     1      -8.052 -10.093  12.716  0.00  0.00    -0.432 OA
BRANCH  10   8
ATOM      7  N   UNL     1      -8.509 -10.523  13.999  0.00  0.00    -0.142 NA
ATOM      8  C   UNL     1      -8.416  -9.927  13.437  0.00  0.00    +0.425 C 
ATOM      9  O   UNL     1      -8.687  -9.164  13.596  0.00  0.00    -0.224 OA
BRANCH   7   6
ATOM      3  C   UNL     1      -9.602 -10.027  16.163  0.00  0.00    +0.139 A 
ATOM      4  C   UNL     1     -10.058 -10.246  15.511  0.00  0.00    +0.038 A 
ATOM      5  C   UNL     1      -9.693 -10.412  14.790  0.00  0.00    +0.020 A 
ATOM      6  C   UNL     1      -8.873 -10.358  14.721  0.00  0.00    +0.077 A 
ATOM     30  C   UNL     1      -8.418 -10.138  15.372  0.00  0.00    +0.020 A 
ATOM     31  C   UNL     1      -8.782  -9.972  16.094  0.00  0.00    +0.038 A 
BRANCH   3   2
ATOM      1  C   UNL     1      -9.576  -9.405  17.450  0.00  0.00    +0.252 C 
ATOM      2  O   UNL     1      -9.967  -9.861  16.884  0.00  0.00    -0.471 OA
ENDBRANCH   3   2
ENDBRANCH   7   6
ENDBRANCH  10   8
ENDBRANCH  11  10
BRANCH  15  19
ATOM     19  N   UNL     1      -4.759  -9.481  11.476  0.00  0.00    -0.078 NA
BRANCH  19  20
ATOM     20  S   UNL     1      -4.086  -9.932  11.319  0.00  0.00    +0.062 S 
ATOM     21  O   UNL     1      -4.226  -9.859  10.509  0.00  0.00    -0.156 OA
ATOM     22  O   UNL     1      -3.945 -10.004  12.128  0.00  0.00    -0.156 OA
BRANCH  20  23
ATOM     23  C   UNL     1      -3.413 -10.382  11.161  0.00  0.00    +0.197 C 
BRANCH  23  24
ATOM     24  C   UNL     1      -2.666 -10.031  11.187  0.00  0.00    +0.003 A 
ATOM     25  C   UNL     1      -2.111 -10.284  11.743  0.00  0.00    -0.003 A 
ATOM     26  C   UNL     1      -1.364  -9.933  11.768  0.00  0.00    -0.000 A 
ATOM     27  C   UNL     1      -1.173  -9.330  11.238  0.00  0.00    -0.000 A 
ATOM     28  C   UNL     1      -1.729  -9.078  10.683  0.00  0.00    -0.000 A 
ATOM     29  C   UNL     1      -2.475  -9.428  10.657  0.00  0.00    -0.003 A 
ENDBRANCH  23  24
ENDBRANCH  20  23
ENDBRANCH  19  20
ENDBRANCH  15  19
TORSDOF 8
ENDMDL
