MODEL 1
REMARK VINA RESULT:      -9.8      0.000      0.000
REMARK  Name = 
REMARK  6 active torsions:
REMARK  status: ('A' for Active; 'I' for Inactive)
REMARK    1  A    between atoms: S_2  and  N_4
REMARK    2  A    between atoms: S_2  and  C_21
REMARK    3  A    between atoms: N_4  and  C_5
REMARK    4  A    between atoms: C_5  and  C_6
REMARK    5  A    between atoms: C_13  and  C_14
REMARK    6  A    between atoms: C_14  and  N_15
REMARK                            x       y       z     vdW  Elec       q    Type
REMARK                         _______ _______ _______ _____ _____    ______ ____
ROOT
ATOM      6  C   UNL     1      -4.410   0.863  24.648  0.00  0.00    +0.077 C 
ATOM      7  C   UNL     1      -4.980   1.344  24.871  0.00  0.00    +0.018 C 
ATOM      8  C   UNL     1      -4.894   2.132  25.036  0.00  0.00    +0.005 C 
ATOM      9  C   UNL     1      -5.672   2.509  25.276  0.00  0.00    +0.017 C 
ATOM     10  C   UNL     1      -5.280   2.022  25.087  0.00  0.00    +0.072 C 
ATOM     11  N   UNL     1      -4.331   1.667  24.819  0.00  0.00    -0.272 NA
ATOM     12  C   UNL     1      -3.609   2.225  24.806  0.00  0.00    +0.073 C 
ATOM     13  C   UNL     1      -4.196   2.663  25.023  0.00  0.00    +0.032 C 
ENDROOT
BRANCH   6   5
ATOM      5  C   UNL     1      -4.116   0.127  24.420  0.00  0.00    +0.131 C 
BRANCH   5   4
ATOM      4  N   UNL     1      -4.310  -0.547  24.855  0.00  0.00    -0.076 NA
BRANCH   4   2
ATOM      1  O   UNL     1      -3.586  -1.207  25.488  0.00  0.00    -0.151 OA
ATOM      2  S   UNL     1      -3.901  -1.252  24.727  0.00  0.00    +0.083 S 
ATOM      3  O   UNL     1      -4.216  -1.297  23.965  0.00  0.00    -0.151 OA
BRANCH   2  21
ATOM     21  C   UNL     1      -3.491  -1.957  24.598  0.00  0.00    +0.153 A 
ATOM     22  C   UNL     1      -3.821  -2.671  24.350  0.00  0.00    +0.027 A 
ATOM     23  C   UNL     1      -3.213  -3.226  24.294  0.00  0.00    +0.009 A 
ATOM     24  C   UNL     1      -2.509  -2.855  24.508  0.00  0.00    +0.037 A 
ATOM     25  S   UNL     1      -2.680  -2.071  24.696  0.00  0.00    -0.067 S 
ENDBRANCH   2  21
ENDBRANCH   4   2
ENDBRANCH   5   4
ENDBRANCH   6   5
BRANCH  13  14
ATOM     14  C   UNL     1      -4.177   3.468  25.205  0.00  0.00    +0.074 C 
BRANCH  14  15
ATOM     15  N   UNL     1      -3.454   3.842  25.345  0.00  0.00    -0.268 NA
ATOM     16  C   UNL     1      -3.005   4.119  24.713  0.00  0.00    +0.105 C 
ATOM     17  C   UNL     1      -2.282   4.493  24.854  0.00  0.00    +0.159 C 
ATOM     18  O   UNL     1      -2.011   4.588  25.627  0.00  0.00    -0.351 OA
ATOM     19  C   UNL     1      -2.461   4.310  26.260  0.00  0.00    +0.159 C 
ATOM     20  C   UNL     1      -3.184   3.937  26.118  0.00  0.00    +0.105 C 
ENDBRANCH  14  15
ENDBRANCH  13  14
TORSDOF 6
ENDMDL
MODEL 2
REMARK VINA RESULT:      -9.5      1.878      5.204
REMARK  Name = 
REMARK  6 active torsions:
REMARK  status: ('A' for Active; 'I' for Inactive)
REMARK    1  A    between atoms: S_2  and  N_4
REMARK    2  A    between atoms: S_2  and  C_21
REMARK    3  A    between atoms: N_4  and  C_5
REMARK    4  A    between atoms: C_5  and  C_6
REMARK    5  A    between atoms: C_13  and  C_14
REMARK    6  A    between atoms: C_14  and  N_15
REMARK                            x       y       z     vdW  Elec       q    Type
REMARK                         _______ _______ _______ _____ _____    ______ ____
ROOT
ATOM      6  C   UNL     1      -3.583   1.916  24.811  0.00  0.00    +0.077 C 
ATOM      7  C   UNL     1      -4.323   1.716  24.946  0.00  0.00    +0.018 C 
ATOM      8  C   UNL     1      -4.619   0.962  24.927  0.00  0.00    +0.005 C 
ATOM      9  C   UNL     1      -5.497   0.944  25.110  0.00  0.00    +0.017 C 
ATOM     10  C   UNL     1      -4.914   1.224  25.017  0.00  0.00    +0.072 C 
ATOM     11  N   UNL     1      -3.892   1.150  24.794  0.00  0.00    -0.272 NA
ATOM     12  C   UNL     1      -3.507   0.340  24.626  0.00  0.00    +0.073 C 
ATOM     13  C   UNL     1      -4.242   0.186  24.764  0.00  0.00    +0.032 C 
ENDROOT
BRANCH   6   5
ATOM      5  C   UNL     1      -2.970   2.463  24.741  0.00  0.00    +0.131 C 
BRANCH   5   4
ATOM      4  N   UNL     1      -2.911   3.088  25.277  0.00  0.00    -0.076 NA
BRANCH   4   2
ATOM      1  O   UNL     1      -2.808   4.087  24.684  0.00  0.00    -0.151 OA
ATOM      2  S   UNL     1      -2.318   3.654  25.187  0.00  0.00    +0.083 S 
ATOM      3  O   UNL     1      -1.828   3.219  25.690  0.00  0.00    -0.151 OA
BRANCH   2  21
ATOM     21  C   UNL     1      -1.724   4.219  25.097  0.00  0.00    +0.153 A 
ATOM     22  C   UNL     1      -1.818   5.036  25.167  0.00  0.00    +0.027 A 
ATOM     23  C   UNL     1      -1.084   5.388  25.035  0.00  0.00    +0.009 A 
ATOM     24  C   UNL     1      -0.537   4.789  24.883  0.00  0.00    +0.037 A 
ATOM     25  S   UNL     1      -0.933   4.068  24.922  0.00  0.00    -0.067 S 
ENDBRANCH   2  21
ENDBRANCH   4   2
ENDBRANCH   5   4
ENDBRANCH   6   5
BRANCH  13  14
ATOM     14  C   UNL     1      -4.606  -0.554  24.761  0.00  0.00    +0.074 C 
BRANCH  14  15
ATOM     15  N   UNL     1      -4.150  -1.237  24.677  0.00  0.00    -0.268 NA
ATOM     16  C   UNL     1      -3.718  -1.525  25.316  0.00  0.00    +0.105 C 
ATOM     17  C   UNL     1      -3.261  -2.209  25.231  0.00  0.00    +0.159 C 
ATOM     18  O   UNL     1      -3.239  -2.602  24.507  0.00  0.00    -0.351 OA
ATOM     19  C   UNL     1      -3.673  -2.313  23.867  0.00  0.00    +0.159 C 
ATOM     20  C   UNL     1      -4.128  -1.630  23.952  0.00  0.00    +0.105 C 
ENDBRANCH  14  15
ENDBRANCH  13  14
TORSDOF 6
ENDMDL
MODEL 3
REMARK VINA RESULT:      -9.0      2.137      4.882
REMARK  Name = 
REMARK  6 active torsions:
REMARK  status: ('A' for Active; 'I' for Inactive)
REMARK    1  A    between atoms: S_2  and  N_4
REMARK    2  A    between atoms: S_2  and  C_21
REMARK    3  A    between atoms: N_4  and  C_5
REMARK    4  A    between atoms: C_5  and  C_6
REMARK    5  A    between atoms: C_13  and  C_14
REMARK    6  A    between atoms: C_14  and  N_15
REMARK                            x       y       z     vdW  Elec       q    Type
REMARK                         _______ _______ _______ _____ _____    ______ ____
ROOT
ATOM      6  C   UNL     1      -4.305  -0.115  24.882  0.00  0.00    +0.077 C 
ATOM      7  C   UNL     1      -4.357  -0.790  24.498  0.00  0.00    +0.018 C 
ATOM      8  C   UNL     1      -3.750  -1.311  24.376  0.00  0.00    +0.005 C 
ATOM      9  C   UNL     1      -4.015  -2.030  23.910  0.00  0.00    +0.017 C 
ATOM     10  C   UNL     1      -4.089  -1.453  24.207  0.00  0.00    +0.072 C 
ATOM     11  N   UNL     1      -3.691  -0.652  24.754  0.00  0.00    -0.272 NA
ATOM     12  C   UNL     1      -2.812  -0.642  24.997  0.00  0.00    +0.073 C 
ATOM     13  C   UNL     1      -2.905  -1.296  24.614  0.00  0.00    +0.032 C 
ENDROOT
BRANCH   6   5
ATOM      5  C   UNL     1      -4.618   0.587  25.181  0.00  0.00    +0.131 C 
BRANCH   5   4
ATOM      4  N   UNL     1      -4.927   1.154  24.667  0.00  0.00    -0.076 NA
BRANCH   4   2
ATOM      1  O   UNL     1      -5.432   1.688  25.572  0.00  0.00    -0.151 OA
ATOM      2  S   UNL     1      -5.002   1.937  24.914  0.00  0.00    +0.083 S 
ATOM      3  O   UNL     1      -4.570   2.186  24.255  0.00  0.00    -0.151 OA
BRANCH   2  21
ATOM     21  C   UNL     1      -5.076   2.721  25.161  0.00  0.00    +0.153 A 
ATOM     22  C   UNL     1      -5.719   3.044  25.563  0.00  0.00    +0.027 A 
ATOM     23  C   UNL     1      -5.561   3.842  25.699  0.00  0.00    +0.009 A 
ATOM     24  C   UNL     1      -4.819   4.011  25.380  0.00  0.00    +0.037 A 
ATOM     25  S   UNL     1      -4.520   3.319  25.048  0.00  0.00    -0.067 S 
ENDBRANCH   2  21
ENDBRANCH   4   2
ENDBRANCH   5   4
ENDBRANCH   6   5
BRANCH  13  14
ATOM     14  C   UNL     1      -2.331  -1.868  24.456  0.00  0.00    +0.074 C 
BRANCH  14  15
ATOM     15  N   UNL     1      -1.536  -1.705  24.603  0.00  0.00    -0.268 NA
ATOM     16  C   UNL     1      -1.097  -1.267  24.059  0.00  0.00    +0.105 C 
ATOM     17  C   UNL     1      -0.301  -1.104  24.207  0.00  0.00    +0.159 C 
ATOM     18  O   UNL     1       0.054  -1.380  24.898  0.00  0.00    -0.351 OA
ATOM     19  C   UNL     1      -0.385  -1.819  25.442  0.00  0.00    +0.159 C 
ATOM     20  C   UNL     1      -1.180  -1.981  25.294  0.00  0.00    +0.105 C 
ENDBRANCH  14  15
ENDBRANCH  13  14
TORSDOF 6
ENDMDL
MODEL 4
REMARK VINA RESULT:      -8.6      1.989      2.640
REMARK  Name = 
REMARK  6 active torsions:
REMARK  status: ('A' for Active; 'I' for Inactive)
REMARK    1  A    between atoms: S_2  and  N_4
REMARK    2  A    between atoms: S_2  and  C_21
REMARK    3  A    between atoms: N_4  and  C_5
REMARK    4  A    between atoms: C_5  and  C_6
REMARK    5  A    between atoms: C_13  and  C_14
REMARK    6  A    between atoms: C_14  and  N_15
REMARK                            x       y       z     vdW  Elec       q    Type
REMARK                         _______ _______ _______ _____ _____    ______ ____
ROOT
ATOM      6  C   UNL     1      -1.601   0.817  25.132  0.00  0.00    +0.077 C 
ATOM      7  C   UNL     1      -0.939   1.036  25.478  0.00  0.00    +0.018 C 
ATOM      8  C   UNL     1      -0.739   1.796  25.676  0.00  0.00    +0.005 C 
ATOM      9  C   UNL     1       0.068   1.837  26.066  0.00  0.00    +0.017 C 
ATOM     10  C   UNL     1      -0.442   1.542  25.783  0.00  0.00    +0.072 C 
ATOM     11  N   UNL     1      -1.390   1.589  25.338  0.00  0.00    -0.272 NA
ATOM     12  C   UNL     1      -1.822   2.386  25.240  0.00  0.00    +0.073 C 
ATOM     13  C   UNL     1      -1.160   2.559  25.579  0.00  0.00    +0.032 C 
ENDROOT
BRANCH   6   5
ATOM      5  C   UNL     1      -2.113   0.256  24.812  0.00  0.00    +0.131 C 
BRANCH   5   4
ATOM      4  N   UNL     1      -2.255  -0.450  25.216  0.00  0.00    -0.076 NA
BRANCH   4   2
ATOM      1  O   UNL     1      -3.353  -0.783  25.424  0.00  0.00    -0.151 OA
ATOM      2  S   UNL     1      -2.765  -1.013  24.894  0.00  0.00    +0.083 S 
ATOM      3  O   UNL     1      -2.175  -1.243  24.363  0.00  0.00    -0.151 OA
BRANCH   2  21
ATOM     21  C   UNL     1      -3.274  -1.577  24.572  0.00  0.00    +0.153 A 
ATOM     22  C   UNL     1      -3.928  -1.422  24.094  0.00  0.00    +0.027 A 
ATOM     23  C   UNL     1      -4.276  -2.144  23.898  0.00  0.00    +0.009 A 
ATOM     24  C   UNL     1      -3.837  -2.744  24.254  0.00  0.00    +0.037 A 
ATOM     25  S   UNL     1      -3.218  -2.394  24.671  0.00  0.00    -0.067 S 
ENDBRANCH   2  21
ENDBRANCH   4   2
ENDBRANCH   5   4
ENDBRANCH   6   5
BRANCH  13  14
ATOM     14  C   UNL     1      -0.897   3.308  25.806  0.00  0.00    +0.074 C 
BRANCH  14  15
ATOM     15  N   UNL     1      -1.293   3.982  25.542  0.00  0.00    -0.268 NA
ATOM     16  C   UNL     1      -2.053   4.146  25.815  0.00  0.00    +0.105 C 
ATOM     17  C   UNL     1      -2.449   4.821  25.550  0.00  0.00    +0.159 C 
ATOM     18  O   UNL     1      -2.083   5.329  25.014  0.00  0.00    -0.351 OA
ATOM     19  C   UNL     1      -1.322   5.164  24.741  0.00  0.00    +0.159 C 
ATOM     20  C   UNL     1      -0.927   4.490  25.005  0.00  0.00    +0.105 C 
ENDBRANCH  14  15
ENDBRANCH  13  14
TORSDOF 6
ENDMDL
MODEL 5
REMARK VINA RESULT:      -8.6      2.781      5.877
REMARK  Name = 
REMARK  6 active torsions:
REMARK  status: ('A' for Active; 'I' for Inactive)
REMARK    1  A    between atoms: S_2  and  N_4
REMARK    2  A    between atoms: S_2  and  C_21
REMARK    3  A    between atoms: N_4  and  C_5
REMARK    4  A    between atoms: C_5  and  C_6
REMARK    5  A    between atoms: C_13  and  C_14
REMARK    6  A    between atoms: C_14  and  N_15
REMARK                            x       y       z     vdW  Elec       q    Type
REMARK                         _______ _______ _______ _____ _____    ______ ____
ROOT
ATOM      6  C   UNL     1      -1.160   0.937  24.739  0.00  0.00    +0.077 C 
ATOM      7  C   UNL     1      -0.638   0.370  24.630  0.00  0.00    +0.018 C 
ATOM      8  C   UNL     1      -0.803  -0.422  24.590  0.00  0.00    +0.005 C 
ATOM      9  C   UNL     1      -0.063  -0.911  24.460  0.00  0.00    +0.017 C 
ATOM     10  C   UNL     1      -0.406  -0.361  24.545  0.00  0.00    +0.072 C 
ATOM     11  N   UNL     1      -1.320   0.128  24.697  0.00  0.00    -0.272 NA
ATOM     12  C   UNL     1      -2.099  -0.344  24.758  0.00  0.00    +0.073 C 
ATOM     13  C   UNL     1      -1.556  -0.869  24.650  0.00  0.00    +0.032 C 
ENDROOT
BRANCH   6   5
ATOM      5  C   UNL     1      -1.381   1.727  24.827  0.00  0.00    +0.131 C 
BRANCH   5   4
ATOM      4  N   UNL     1      -0.812   2.296  25.012  0.00  0.00    -0.076 NA
BRANCH   4   2
ATOM      1  O   UNL     1      -1.211   2.990  25.860  0.00  0.00    -0.151 OA
ATOM      2  S   UNL     1      -1.026   3.091  25.062  0.00  0.00    +0.083 S 
ATOM      3  O   UNL     1      -0.841   3.191  24.264  0.00  0.00    -0.151 OA
BRANCH   2  21
ATOM     21  C   UNL     1      -1.240   3.886  25.112  0.00  0.00    +0.153 A 
ATOM     22  C   UNL     1      -0.775   4.528  24.885  0.00  0.00    +0.027 A 
ATOM     23  C   UNL     1      -1.204   5.217  25.030  0.00  0.00    +0.009 A 
ATOM     24  C   UNL     1      -1.934   5.001  25.347  0.00  0.00    +0.037 A 
ATOM     25  S   UNL     1      -1.956   4.179  25.398  0.00  0.00    -0.067 S 
ENDBRANCH   2  21
ENDBRANCH   4   2
ENDBRANCH   5   4
ENDBRANCH   6   5
BRANCH  13  14
ATOM     14  C   UNL     1      -1.656  -1.687  24.600  0.00  0.00    +0.074 C 
BRANCH  14  15
ATOM     15  N   UNL     1      -2.409  -2.015  24.672  0.00  0.00    -0.268 NA
ATOM     16  C   UNL     1      -2.870  -2.142  24.001  0.00  0.00    +0.105 C 
ATOM     17  C   UNL     1      -3.625  -2.471  24.075  0.00  0.00    +0.159 C 
ATOM     18  O   UNL     1      -3.915  -2.671  24.820  0.00  0.00    -0.351 OA
ATOM     19  C   UNL     1      -3.454  -2.545  25.492  0.00  0.00    +0.159 C 
ATOM     20  C   UNL     1      -2.700  -2.216  25.417  0.00  0.00    +0.105 C 
ENDBRANCH  14  15
ENDBRANCH  13  14
TORSDOF 6
ENDMDL
