MODEL 1
REMARK VINA RESULT:     -11.8      0.000      0.000
REMARK  Name = 
REMARK  6 active torsions:
REMARK  status: ('A' for Active; 'I' for Inactive)
REMARK    1  A    between atoms: O_2  and  C_3
REMARK    2  A    between atoms: C_8  and  N_9
REMARK    3  A    between atoms: N_12  and  C_15
REMARK    4  A    between atoms: C_21  and  N_22
REMARK    5  A    between atoms: N_22  and  C_23
REMARK    6  A    between atoms: C_23  and  C_24
REMARK                            x       y       z     vdW  Elec       q    Type
REMARK                         _______ _______ _______ _____ _____    ______ ____
ROOT
ATOM     15  C   UNL     1      -3.395   1.972  24.595  0.00  0.00    +0.147 C 
ATOM     16  C   UNL     1      -4.321   1.694  24.685  0.00  0.00    +0.253 C 
ATOM     17  O   UNL     1      -4.623   0.866  24.641  0.00  0.00    -0.327 OA
ATOM     18  C   UNL     1      -4.134   1.403  24.632  0.00  0.00    +0.176 C 
ATOM     19  C   UNL     1      -4.023   2.170  24.694  0.00  0.00    +0.166 C 
ATOM     20  O   UNL     1      -4.677   2.430  24.802  0.00  0.00    -0.328 OA
ATOM     21  C   UNL     1      -3.140   2.449  24.610  0.00  0.00    +0.135 C 
ATOM     29  C   UNL     1      -2.786   1.710  24.492  0.00  0.00    +0.190 C 
ATOM     30  O   UNL     1      -2.198   1.146  24.362  0.00  0.00    -0.220 OA
ENDROOT
BRANCH  15  12
ATOM      9  N   UNL     1      -3.561  -0.488  24.374  0.00  0.00    -0.302 N 
ATOM     10  C   UNL     1      -3.483  -0.018  23.701  0.00  0.00    +0.108 C 
ATOM     11  C   UNL     1      -3.427   0.802  23.774  0.00  0.00    +0.094 C 
ATOM     12  N   UNL     1      -3.451   1.152  24.521  0.00  0.00    -0.265 NA
ATOM     13  C   UNL     1      -3.529   0.681  25.194  0.00  0.00    +0.094 C 
ATOM     14  C   UNL     1      -3.585  -0.139  25.121  0.00  0.00    +0.108 C 
BRANCH   9   8
ATOM      3  C   UNL     1      -2.978  -1.785  24.511  0.00  0.00    +0.152 A 
ATOM      4  C   UNL     1      -3.032  -2.605  24.437  0.00  0.00    +0.038 A 
ATOM      5  C   UNL     1      -3.726  -2.947  24.150  0.00  0.00    +0.003 A 
ATOM      6  C   UNL     1      -4.365  -2.470  23.937  0.00  0.00    +0.001 A 
ATOM      7  C   UNL     1      -4.310  -1.651  24.012  0.00  0.00    +0.018 A 
ATOM      8  C   UNL     1      -3.617  -1.308  24.299  0.00  0.00    +0.082 A 
BRANCH   3   2
ATOM      1  C   UNL     1      -1.617  -1.909  24.930  0.00  0.00    +0.253 C 
ATOM      2  O   UNL     1      -2.284  -1.443  24.799  0.00  0.00    -0.470 OA
ENDBRANCH   3   2
ENDBRANCH   9   8
ENDBRANCH  15  12
BRANCH  21  22
ATOM     22  N   UNL     1      -2.810   3.205  24.643  0.00  0.00    -0.206 NA
BRANCH  22  23
ATOM     23  C   UNL     1      -2.152   3.348  25.120  0.00  0.00    +0.153 C 
BRANCH  23  24
ATOM     24  C   UNL     1      -1.779   4.083  25.100  0.00  0.00    +0.141 A 
ATOM     25  C   UNL     1      -0.978   4.216  24.955  0.00  0.00    +0.038 A 
ATOM     26  C   UNL     1      -0.846   5.030  24.987  0.00  0.00    +0.043 A 
ATOM     27  C   UNL     1      -1.564   5.399  25.150  0.00  0.00    +0.179 A 
ATOM     28  O   UNL     1      -2.141   4.814  25.220  0.00  0.00    -0.453 OA
ENDBRANCH  23  24
ENDBRANCH  22  23
ENDBRANCH  21  22
TORSDOF 6
ENDMDL
MODEL 2
REMARK VINA RESULT:     -11.4      0.891      4.923
REMARK  Name = 
REMARK  6 active torsions:
REMARK  status: ('A' for Active; 'I' for Inactive)
REMARK    1  A    between atoms: O_2  and  C_3
REMARK    2  A    between atoms: C_8  and  N_9
REMARK    3  A    between atoms: N_12  and  C_15
REMARK    4  A    between atoms: C_21  and  N_22
REMARK    5  A    between atoms: N_22  and  C_23
REMARK    6  A    between atoms: C_23  and  C_24
REMARK                            x       y       z     vdW  Elec       q    Type
REMARK                         _______ _______ _______ _____ _____    ______ ____
ROOT
ATOM     15  C   UNL     1      -3.811   1.048  24.481  0.00  0.00    +0.147 C 
ATOM     16  C   UNL     1      -4.377   1.785  24.760  0.00  0.00    +0.253 C 
ATOM     17  O   UNL     1      -4.112   2.610  24.930  0.00  0.00    -0.327 OA
ATOM     18  C   UNL     1      -4.051   1.912  24.741  0.00  0.00    +0.176 C 
ATOM     19  C   UNL     1      -4.430   1.242  24.629  0.00  0.00    +0.166 C 
ATOM     20  O   UNL     1      -5.108   1.402  24.778  0.00  0.00    -0.328 OA
ATOM     21  C   UNL     1      -3.900   0.527  24.361  0.00  0.00    +0.135 C 
ATOM     29  C   UNL     1      -3.168   0.914  24.344  0.00  0.00    +0.190 C 
ATOM     30  O   UNL     1      -2.357   1.031  24.246  0.00  0.00    -0.220 OA
ENDROOT
BRANCH  15  12
ATOM      9  N   UNL     1      -2.443   3.087  24.788  0.00  0.00    -0.302 N 
ATOM     10  C   UNL     1      -2.552   2.565  25.417  0.00  0.00    +0.108 C 
ATOM     11  C   UNL     1      -3.008   1.885  25.315  0.00  0.00    +0.094 C 
ATOM     12  N   UNL     1      -3.355   1.728  24.583  0.00  0.00    -0.265 NA
ATOM     13  C   UNL     1      -3.246   2.250  23.954  0.00  0.00    +0.094 C 
ATOM     14  C   UNL     1      -2.790   2.930  24.056  0.00  0.00    +0.108 C 
BRANCH   9   8
ATOM      3  C   UNL     1      -1.178   3.749  24.731  0.00  0.00    +0.152 A 
ATOM      4  C   UNL     1      -0.721   4.428  24.834  0.00  0.00    +0.038 A 
ATOM      5  C   UNL     1      -1.073   5.125  25.097  0.00  0.00    +0.003 A 
ATOM      6  C   UNL     1      -1.882   5.144  25.258  0.00  0.00    +0.001 A 
ATOM      7  C   UNL     1      -2.339   4.465  25.155  0.00  0.00    +0.018 A 
ATOM      8  C   UNL     1      -1.987   3.767  24.891  0.00  0.00    +0.082 A 
BRANCH   3   2
ATOM      1  C   UNL     1      -0.011   3.023  24.336  0.00  0.00    +0.253 C 
ATOM      2  O   UNL     1      -0.824   3.050  24.467  0.00  0.00    -0.470 OA
ENDBRANCH   3   2
ENDBRANCH   9   8
ENDBRANCH  15  12
BRANCH  21  22
ATOM     22  N   UNL     1      -4.099  -0.256  24.191  0.00  0.00    -0.206 NA
BRANCH  22  23
ATOM     23  C   UNL     1      -3.837  -0.864  24.684  0.00  0.00    +0.153 C 
BRANCH  23  24
ATOM     24  C   UNL     1      -3.902  -1.649  24.439  0.00  0.00    +0.141 A 
ATOM     25  C   UNL     1      -3.497  -2.292  24.763  0.00  0.00    +0.038 A 
ATOM     26  C   UNL     1      -3.727  -2.970  24.352  0.00  0.00    +0.043 A 
ATOM     27  C   UNL     1      -4.273  -2.746  23.776  0.00  0.00    +0.179 A 
ATOM     28  O   UNL     1      -4.381  -1.930  23.830  0.00  0.00    -0.453 OA
ENDBRANCH  23  24
ENDBRANCH  22  23
ENDBRANCH  21  22
TORSDOF 6
ENDMDL
MODEL 3
REMARK VINA RESULT:     -11.2      1.408      5.333
REMARK  Name = 
REMARK  6 active torsions:
REMARK  status: ('A' for Active; 'I' for Inactive)
REMARK    1  A    between atoms: O_2  and  C_3
REMARK    2  A    between atoms: C_8  and  N_9
REMARK    3  A    between atoms: N_12  and  C_15
REMARK    4  A    between atoms: C_21  and  N_22
REMARK    5  A    between atoms: N_22  and  C_23
REMARK    6  A    between atoms: C_23  and  C_24
REMARK                            x       y       z     vdW  Elec       q    Type
REMARK                         _______ _______ _______ _____ _____    ______ ____
ROOT
ATOM     15  C   UNL     1      -1.537   0.354  24.670  0.00  0.00    +0.147 C 
ATOM     16  C   UNL     1      -0.638   0.650  24.453  0.00  0.00    +0.253 C 
ATOM     17  O   UNL     1      -0.350   1.484  24.458  0.00  0.00    -0.327 OA
ATOM     18  C   UNL     1      -0.822   0.938  24.533  0.00  0.00    +0.176 C 
ATOM     19  C   UNL     1      -0.926   0.168  24.483  0.00  0.00    +0.166 C 
ATOM     20  O   UNL     1      -0.289  -0.078  24.283  0.00  0.00    -0.328 OA
ATOM     21  C   UNL     1      -1.782  -0.129  24.688  0.00  0.00    +0.135 C 
ATOM     29  C   UNL     1      -2.131   0.603  24.858  0.00  0.00    +0.190 C 
ATOM     30  O   UNL     1      -2.706   1.155  25.072  0.00  0.00    -0.220 OA
ENDROOT
BRANCH  15  12
ATOM      9  N   UNL     1      -1.389   2.816  24.879  0.00  0.00    -0.302 N 
ATOM     10  C   UNL     1      -1.654   2.477  24.175  0.00  0.00    +0.108 C 
ATOM     11  C   UNL     1      -1.703   1.656  24.105  0.00  0.00    +0.094 C 
ATOM     12  N   UNL     1      -1.488   1.174  24.740  0.00  0.00    -0.265 NA
ATOM     13  C   UNL     1      -1.223   1.514  25.444  0.00  0.00    +0.094 C 
ATOM     14  C   UNL     1      -1.174   2.335  25.513  0.00  0.00    +0.108 C 
BRANCH   9   8
ATOM      3  C   UNL     1      -1.953   4.057  25.306  0.00  0.00    +0.152 A 
ATOM      4  C   UNL     1      -1.905   4.878  25.375  0.00  0.00    +0.038 A 
ATOM      5  C   UNL     1      -1.244   5.278  25.085  0.00  0.00    +0.003 A 
ATOM      6  C   UNL     1      -0.632   4.857  24.726  0.00  0.00    +0.001 A 
ATOM      7  C   UNL     1      -0.680   4.037  24.658  0.00  0.00    +0.018 A 
ATOM      8  C   UNL     1      -1.340   3.637  24.947  0.00  0.00    +0.082 A 
BRANCH   3   2
ATOM      1  C   UNL     1      -3.214   4.075  25.977  0.00  0.00    +0.253 C 
ATOM      2  O   UNL     1      -2.614   3.657  25.597  0.00  0.00    -0.470 OA
ENDBRANCH   3   2
ENDBRANCH   9   8
ENDBRANCH  15  12
BRANCH  21  22
ATOM     22  N   UNL     1      -2.099  -0.891  24.698  0.00  0.00    -0.206 NA
BRANCH  22  23
ATOM     23  C   UNL     1      -2.911  -1.002  24.600  0.00  0.00    +0.153 C 
BRANCH  23  24
ATOM     24  C   UNL     1      -3.219  -1.764  24.538  0.00  0.00    +0.141 A 
ATOM     25  C   UNL     1      -3.839  -1.998  24.046  0.00  0.00    +0.038 A 
ATOM     26  C   UNL     1      -3.964  -2.805  24.161  0.00  0.00    +0.043 A 
ATOM     27  C   UNL     1      -3.422  -3.070  24.724  0.00  0.00    +0.179 A 
ATOM     28  O   UNL     1      -2.962  -2.426  24.956  0.00  0.00    -0.453 OA
ENDBRANCH  23  24
ENDBRANCH  22  23
ENDBRANCH  21  22
TORSDOF 6
ENDMDL
MODEL 4
REMARK VINA RESULT:     -10.2      1.492      2.293
REMARK  Name = 
REMARK  6 active torsions:
REMARK  status: ('A' for Active; 'I' for Inactive)
REMARK    1  A    between atoms: O_2  and  C_3
REMARK    2  A    between atoms: C_8  and  N_9
REMARK    3  A    between atoms: N_12  and  C_15
REMARK    4  A    between atoms: C_21  and  N_22
REMARK    5  A    between atoms: N_22  and  C_23
REMARK    6  A    between atoms: C_23  and  C_24
REMARK                            x       y       z     vdW  Elec       q    Type
REMARK                         _______ _______ _______ _____ _____    ______ ____
ROOT
ATOM     15  C   UNL     1      -1.119   1.406  24.967  0.00  0.00    +0.147 C 
ATOM     16  C   UNL     1      -0.458   0.731  24.744  0.00  0.00    +0.253 C 
ATOM     17  O   UNL     1      -0.617  -0.126  24.605  0.00  0.00    -0.327 OA
ATOM     18  C   UNL     1      -0.768   0.567  24.758  0.00  0.00    +0.176 C 
ATOM     19  C   UNL     1      -0.476   1.282  24.851  0.00  0.00    +0.166 C 
ATOM     20  O   UNL     1       0.222   1.198  24.734  0.00  0.00    -0.328 OA
ATOM     21  C   UNL     1      -1.097   1.939  25.065  0.00  0.00    +0.135 C 
ATOM     29  C   UNL     1      -1.778   1.468  25.074  0.00  0.00    +0.190 C 
ATOM     30  O   UNL     1      -2.573   1.258  25.149  0.00  0.00    -0.220 OA
ENDROOT
BRANCH  15  12
ATOM      9  N   UNL     1      -2.222  -0.794  24.711  0.00  0.00    -0.302 N 
ATOM     10  C   UNL     1      -2.003  -0.528  25.460  0.00  0.00    +0.108 C 
ATOM     11  C   UNL     1      -1.635   0.206  25.545  0.00  0.00    +0.094 C 
ATOM     12  N   UNL     1      -1.486   0.673  24.882  0.00  0.00    -0.265 NA
ATOM     13  C   UNL     1      -1.706   0.406  24.132  0.00  0.00    +0.094 C 
ATOM     14  C   UNL     1      -2.073  -0.328  24.047  0.00  0.00    +0.108 C 
BRANCH   9   8
ATOM      3  C   UNL     1      -3.396  -1.568  24.455  0.00  0.00    +0.152 A 
ATOM      4  C   UNL     1      -3.764  -2.301  24.370  0.00  0.00    +0.038 A 
ATOM      5  C   UNL     1      -3.327  -2.994  24.456  0.00  0.00    +0.003 A 
ATOM      6  C   UNL     1      -2.520  -2.955  24.627  0.00  0.00    +0.001 A 
ATOM      7  C   UNL     1      -2.152  -2.222  24.712  0.00  0.00    +0.018 A 
ATOM      8  C   UNL     1      -2.590  -1.528  24.626  0.00  0.00    +0.082 A 
BRANCH   3   2
ATOM      1  C   UNL     1      -4.637  -0.913  24.187  0.00  0.00    +0.253 C 
ATOM      2  O   UNL     1      -3.835  -0.873  24.368  0.00  0.00    -0.470 OA
ENDBRANCH   3   2
ENDBRANCH   9   8
ENDBRANCH  15  12
BRANCH  21  22
ATOM     22  N   UNL     1      -0.999   2.747  25.204  0.00  0.00    -0.206 NA
BRANCH  22  23
ATOM     23  C   UNL     1      -1.494   3.292  24.831  0.00  0.00    +0.153 C 
BRANCH  23  24
ATOM     24  C   UNL     1      -1.356   4.100  24.917  0.00  0.00    +0.141 A 
ATOM     25  C   UNL     1      -1.886   4.653  25.226  0.00  0.00    +0.038 A 
ATOM     26  C   UNL     1      -1.520   5.392  25.208  0.00  0.00    +0.043 A 
ATOM     27  C   UNL     1      -0.766   5.297  24.889  0.00  0.00    +0.179 A 
ATOM     28  O   UNL     1      -0.664   4.499  24.709  0.00  0.00    -0.453 OA
ENDBRANCH  23  24
ENDBRANCH  22  23
ENDBRANCH  21  22
TORSDOF 6
ENDMDL
MODEL 5
REMARK VINA RESULT:      -9.6      2.524      4.122
REMARK  Name = 
REMARK  6 active torsions:
REMARK  status: ('A' for Active; 'I' for Inactive)
REMARK    1  A    between atoms: O_2  and  C_3
REMARK    2  A    between atoms: C_8  and  N_9
REMARK    3  A    between atoms: N_12  and  C_15
REMARK    4  A    between atoms: C_21  and  N_22
REMARK    5  A    between atoms: N_22  and  C_23
REMARK    6  A    between atoms: C_23  and  C_24
REMARK                            x       y       z     vdW  Elec       q    Type
REMARK                         _______ _______ _______ _____ _____    ______ ____
ROOT
ATOM     15  C   UNL     1      -0.877   0.443  24.385  0.00  0.00    +0.147 C 
ATOM     16  C   UNL     1      -1.325  -0.116  25.040  0.00  0.00    +0.253 C 
ATOM     17  O   UNL     1      -2.163  -0.036  25.307  0.00  0.00    -0.327 OA
ATOM     18  C   UNL     1      -1.561   0.120  24.933  0.00  0.00    +0.176 C 
ATOM     19  C   UNL     1      -0.819  -0.073  24.801  0.00  0.00    +0.166 C 
ATOM     20  O   UNL     1      -0.708  -0.629  25.232  0.00  0.00    -0.328 OA
ATOM     21  C   UNL     1      -0.378   0.454  24.176  0.00  0.00    +0.135 C 
ATOM     29  C   UNL     1      -0.999   0.968  23.985  0.00  0.00    +0.190 C 
ATOM     30  O   UNL     1      -1.408   1.586  23.622  0.00  0.00    -0.220 OA
ENDROOT
BRANCH  15  12
ATOM      9  N   UNL     1      -3.216   1.198  24.675  0.00  0.00    -0.302 N 
ATOM     10  C   UNL     1      -3.025   0.672  24.069  0.00  0.00    +0.108 C 
ATOM     11  C   UNL     1      -2.245   0.421  23.972  0.00  0.00    +0.094 C 
ATOM     12  N   UNL     1      -1.657   0.695  24.481  0.00  0.00    -0.265 NA
ATOM     13  C   UNL     1      -1.849   1.221  25.087  0.00  0.00    +0.094 C 
ATOM     14  C   UNL     1      -2.629   1.473  25.184  0.00  0.00    +0.108 C 
BRANCH   9   8
ATOM      3  C   UNL     1      -4.214   2.213  24.546  0.00  0.00    +0.152 A 
ATOM      4  C   UNL     1      -4.994   2.465  24.641  0.00  0.00    +0.038 A 
ATOM      5  C   UNL     1      -5.556   1.954  24.961  0.00  0.00    +0.003 A 
ATOM      6  C   UNL     1      -5.338   1.190  25.186  0.00  0.00    +0.001 A 
ATOM      7  C   UNL     1      -4.559   0.939  25.091  0.00  0.00    +0.018 A 
ATOM      8  C   UNL     1      -3.996   1.450  24.770  0.00  0.00    +0.082 A 
BRANCH   3   2
ATOM      1  C   UNL     1      -3.867   3.491  24.009  0.00  0.00    +0.253 C 
ATOM      2  O   UNL     1      -3.651   2.726  24.225  0.00  0.00    -0.470 OA
ENDBRANCH   3   2
ENDBRANCH   9   8
ENDBRANCH  15  12
BRANCH  21  22
ATOM     22  N   UNL     1       0.398   0.420  23.895  0.00  0.00    -0.206 NA
BRANCH  22  23
ATOM     23  C   UNL     1       0.548   0.154  23.129  0.00  0.00    +0.153 C 
BRANCH  23  24
ATOM     24  C   UNL     1       1.320   0.144  22.839  0.00  0.00    +0.141 A 
ATOM     25  C   UNL     1       1.589  -0.289  22.190  0.00  0.00    +0.038 A 
ATOM     26  C   UNL     1       2.394  -0.134  22.097  0.00  0.00    +0.043 A 
ATOM     27  C   UNL     1       2.622   0.393  22.688  0.00  0.00    +0.179 A 
ATOM     28  O   UNL     1       1.959   0.565  23.147  0.00  0.00    -0.453 OA
ENDBRANCH  23  24
ENDBRANCH  22  23
ENDBRANCH  21  22
TORSDOF 6
ENDMDL
