REMARK  Name = 
REMARK  5 active torsions:
REMARK  status: ('A' for Active; 'I' for Inactive)
REMARK    1  A    between atoms: N_4  and  C_5
REMARK    2  A    between atoms: C_5  and  C_6
REMARK    3  A    between atoms: C_6  and  N_7
REMARK    4  A    between atoms: N_21  and  C_22
REMARK    5  A    between atoms: C_22  and  C_23
REMARK                            x       y       z     vdW  Elec       q    Type
REMARK                         _______ _______ _______ _____ _____    ______ ____
ROOT
ATOM      7  N   UNL     1      -3.384   3.713   0.000  0.00  0.00    -0.278 N 
ATOM      8  C   UNL     1      -3.026   4.456   0.000  0.00  0.00    +0.094 C 
ATOM      9  C   UNL     1      -2.222   4.640   0.000  0.00  0.00    +0.023 C 
ATOM     10  C   UNL     1      -1.577   4.126   0.000  0.00  0.00    +0.022 C 
ATOM     11  C   UNL     1      -0.863   4.538   0.000  0.00  0.00    +0.095 C 
ATOM     12  N   UNL     1      -0.148   4.126   0.000  0.00  0.00    -0.263 N 
ATOM     13  C   UNL     1      -0.148   3.301   0.000  0.00  0.00    +0.095 C 
ATOM     14  C   UNL     1      -0.863   2.888   0.000  0.00  0.00    +0.022 C 
ATOM     15  C   UNL     1      -1.577   3.301   0.000  0.00  0.00    +0.012 C 
ATOM     16  C   UNL     1      -2.222   2.786   0.000  0.00  0.00    +0.085 C 
ATOM     17  C   UNL     1      -3.026   2.970   0.000  0.00  0.00    +0.226 C 
ATOM     18  O   UNL     1      -3.541   2.325   0.000  0.00  0.00    -0.275 OA
ATOM     19  C   UNL     1       0.567   4.538   0.000  0.00  0.00    +0.324 C 
ATOM     20  O   UNL     1       0.567   5.363   0.000  0.00  0.00    -0.251 OA
ATOM     21  N   UNL     1       1.281   4.126   0.000  0.00  0.00    -0.184 NA
ENDROOT
BRANCH   7   6
ATOM      6  C   UNL     1      -4.209   3.713   0.000  0.00  0.00    +0.117 C 
BRANCH   6   5
ATOM      5  C   UNL     1      -4.622   2.999   0.000  0.00  0.00    +0.137 C 
BRANCH   5   4
ATOM      1  C   UNL     1      -6.684   2.284   0.000  0.00  0.00    +0.096 C 
ATOM      2  C   UNL     1      -5.859   2.284   0.000  0.00  0.00    +0.242 C 
ATOM      3  O   UNL     1      -5.447   1.570   0.000  0.00  0.00    -0.273 OA
ATOM      4  N   UNL     1      -5.447   2.999   0.000  0.00  0.00    -0.204 NA
ENDBRANCH   5   4
ENDBRANCH   6   5
ENDBRANCH   7   6
BRANCH  21  22
ATOM     22  C   UNL     1       1.995   4.538   0.000  0.00  0.00    +0.143 C 
BRANCH  22  23
ATOM     23  C   UNL     1       2.710   4.126   0.000  0.00  0.00    -0.003 C 
ATOM     24  C   UNL     1       3.424   4.538   0.000  0.00  0.00    -0.003 C 
ENDBRANCH  22  23
ENDBRANCH  21  22
TORSDOF 5
