REMARK  Name = 
REMARK  4 active torsions:
REMARK  status: ('A' for Active; 'I' for Inactive)
REMARK    1  A    between atoms: N_2  and  C_4
REMARK    2  A    between atoms: C_9  and  C_10
REMARK    3  A    between atoms: C_10  and  N_11
REMARK    4  A    between atoms: C_14  and  C_16
REMARK                            x       y       z     vdW  Elec       q    Type
REMARK                         _______ _______ _______ _____ _____    ______ ____
ROOT
ATOM     11  N   UNL     1      -2.723  -1.110   0.000  0.00  0.00    -0.268 NA
ATOM     12  C   UNL     1      -2.723  -0.285   0.000  0.00  0.00    +0.073 C 
ATOM     13  C   UNL     1      -1.938  -0.030   0.000  0.00  0.00    +0.028 C 
ATOM     14  C   UNL     1      -1.453  -0.698   0.000  0.00  0.00    +0.094 C 
ATOM     15  C   UNL     1      -1.938  -1.365   0.000  0.00  0.00    +0.082 C 
ENDROOT
BRANCH  14  16
ATOM     16  C   UNL     1      -0.628  -0.698   0.000  0.00  0.00    +0.207 A 
ATOM     17  N   UNL     1      -0.143  -1.365   0.000  0.00  0.00    -0.212 NA
ATOM     18  C   UNL     1       0.641  -1.110   0.000  0.00  0.00    +0.119 A 
ATOM     19  C   UNL     1       0.641  -0.285   0.000  0.00  0.00    +0.164 A 
ATOM     20  O   UNL     1      -0.143  -0.030   0.000  0.00  0.00    -0.438 OA
ATOM     21  C   UNL     1       1.356   0.127   0.000  0.00  0.00    +0.039 A 
ATOM     22  C   UNL     1       2.070  -0.285   0.000  0.00  0.00    +0.003 A 
ATOM     23  C   UNL     1       2.070  -1.110   0.000  0.00  0.00    +0.002 A 
ATOM     24  C   UNL     1       1.356  -1.523   0.000  0.00  0.00    +0.022 A 
ENDBRANCH  14  16
BRANCH  11  10
ATOM     10  C   UNL     1      -3.390  -1.595   0.000  0.00  0.00    +0.101 C 
BRANCH  10   9
ATOM      4  C   UNL     1      -4.811  -1.745   0.000  0.00  0.00    +0.140 A 
ATOM      5  C   UNL     1      -5.565  -1.409   0.000  0.00  0.00    +0.024 A 
ATOM      6  C   UNL     1      -5.651  -0.589   0.000  0.00  0.00    +0.002 A 
ATOM      7  C   UNL     1      -4.984  -0.104   0.000  0.00  0.00    -0.000 A 
ATOM      8  C   UNL     1      -4.230  -0.439   0.000  0.00  0.00    -0.001 A 
ATOM      9  C   UNL     1      -4.144  -1.260   0.000  0.00  0.00    +0.016 A 
BRANCH   4   2
ATOM      1  O   UNL     1      -5.393  -3.050   0.000  0.00  0.00    -0.126 OA
ATOM      2  N   UNL     1      -4.725  -2.565   0.000  0.00  0.00    +0.057 N 
ATOM      3  O   UNL     1      -3.972  -2.901   0.000  0.00  0.00    -0.126 OA
ENDBRANCH   4   2
ENDBRANCH  10   9
ENDBRANCH  11  10
TORSDOF 4
