MODEL 1
REMARK VINA RESULT:     -11.7      0.000      0.000
REMARK  Name = 
REMARK  5 active torsions:
REMARK  status: ('A' for Active; 'I' for Inactive)
REMARK    1  A    between atoms: N_3  and  C_4
REMARK    2  A    between atoms: C_4  and  C_5
REMARK    3  A    between atoms: N_14  and  S_18
REMARK    4  A    between atoms: S_18  and  C_21
REMARK    5  A    between atoms: C_21  and  C_22
REMARK                            x       y       z     vdW  Elec       q    Type
REMARK                         _______ _______ _______ _____ _____    ______ ____
ROOT
ATOM      1  O   UNL     1       0.462   1.662  24.299  0.00  0.00    -0.252 OA
ATOM      2  C   UNL     1      -0.215   1.594  24.767  0.00  0.00    +0.308 C 
ATOM      3  N   UNL     1      -0.531   2.182  25.251  0.00  0.00    -0.258 N 
ATOM     11  C   UNL     1      -1.205   1.877  25.616  0.00  0.00    +0.117 C 
ATOM     12  C   UNL     1      -1.305   1.100  25.358  0.00  0.00    +0.114 C 
ATOM     13  C   UNL     1      -1.874   0.529  25.533  0.00  0.00    +0.117 C 
ATOM     14  N   UNL     1      -1.831  -0.217  25.184  0.00  0.00    -0.156 NA
ATOM     15  C   UNL     1      -1.219  -0.392  24.659  0.00  0.00    +0.117 C 
ATOM     16  C   UNL     1      -0.649   0.179  24.484  0.00  0.00    +0.114 C 
ATOM     17  N   UNL     1      -0.693   0.925  24.834  0.00  0.00    -0.261 N 
ENDROOT
BRANCH  14  18
ATOM     18  S   UNL     1      -2.400  -0.788  25.358  0.00  0.00    +0.048 S 
ATOM     19  O   UNL     1      -1.814  -1.368  25.373  0.00  0.00    -0.157 OA
ATOM     20  O   UNL     1      -2.987  -0.208  25.343  0.00  0.00    -0.157 OA
BRANCH  18  21
ATOM     21  C   UNL     1      -2.970  -1.359  25.533  0.00  0.00    +0.195 C 
BRANCH  21  22
ATOM     22  C   UNL     1      -3.372  -1.740  24.921  0.00  0.00    +0.003 A 
ATOM     23  C   UNL     1      -3.942  -1.333  24.486  0.00  0.00    -0.003 A 
ATOM     24  C   UNL     1      -4.345  -1.714  23.874  0.00  0.00    -0.000 A 
ATOM     25  C   UNL     1      -4.176  -2.502  23.698  0.00  0.00    -0.000 A 
ATOM     26  C   UNL     1      -3.604  -2.909  24.133  0.00  0.00    -0.000 A 
ATOM     27  C   UNL     1      -3.203  -2.528  24.744  0.00  0.00    -0.003 A 
ENDBRANCH  21  22
ENDBRANCH  18  21
ENDBRANCH  14  18
BRANCH   3   4
ATOM      4  C   UNL     1      -0.227   2.943  25.351  0.00  0.00    +0.123 C 
BRANCH   4   5
ATOM      5  C   UNL     1      -0.724   3.598  25.286  0.00  0.00    +0.017 A 
ATOM      6  C   UNL     1      -0.596   4.154  24.689  0.00  0.00    +0.001 A 
ATOM      7  C   UNL     1      -1.093   4.809  24.623  0.00  0.00    +0.020 A 
ATOM      8  C   UNL     1      -1.717   4.909  25.153  0.00  0.00    +0.099 A 
ATOM      9  N   UNL     1      -1.845   4.354  25.749  0.00  0.00    -0.243 NA
ATOM     10  C   UNL     1      -1.349   3.698  25.815  0.00  0.00    +0.096 A 
ENDBRANCH   4   5
ENDBRANCH   3   4
TORSDOF 5
ENDMDL
MODEL 2
REMARK VINA RESULT:     -11.6      1.880      2.572
REMARK  Name = 
REMARK  5 active torsions:
REMARK  status: ('A' for Active; 'I' for Inactive)
REMARK    1  A    between atoms: N_3  and  C_4
REMARK    2  A    between atoms: C_4  and  C_5
REMARK    3  A    between atoms: N_14  and  S_18
REMARK    4  A    between atoms: S_18  and  C_21
REMARK    5  A    between atoms: C_21  and  C_22
REMARK                            x       y       z     vdW  Elec       q    Type
REMARK                         _______ _______ _______ _____ _____    ______ ____
ROOT
ATOM      1  O   UNL     1      -4.595   3.673  25.777  0.00  0.00    -0.252 OA
ATOM      2  C   UNL     1      -4.011   3.142  25.533  0.00  0.00    +0.308 C 
ATOM      3  N   UNL     1      -3.197   3.261  25.582  0.00  0.00    -0.258 N 
ATOM     11  C   UNL     1      -2.822   2.591  25.277  0.00  0.00    +0.117 C 
ATOM     12  C   UNL     1      -3.406   2.059  25.042  0.00  0.00    +0.114 C 
ATOM     13  C   UNL     1      -3.364   1.307  24.703  0.00  0.00    +0.117 C 
ATOM     14  N   UNL     1      -4.055   0.897  24.523  0.00  0.00    -0.156 NA
ATOM     15  C   UNL     1      -4.790   1.237  24.681  0.00  0.00    +0.117 C 
ATOM     16  C   UNL     1      -4.833   1.987  25.019  0.00  0.00    +0.114 C 
ATOM     17  N   UNL     1      -4.141   2.399  25.200  0.00  0.00    -0.261 N 
ENDROOT
BRANCH  14  18
ATOM     18  S   UNL     1      -4.013   0.145  24.184  0.00  0.00    +0.048 S 
ATOM     19  O   UNL     1      -4.605  -0.118  24.694  0.00  0.00    -0.157 OA
ATOM     20  O   UNL     1      -3.420   0.409  23.674  0.00  0.00    -0.157 OA
BRANCH  18  21
ATOM     21  C   UNL     1      -3.970  -0.605  23.845  0.00  0.00    +0.195 C 
BRANCH  21  22
ATOM     22  C   UNL     1      -3.562  -1.210  24.232  0.00  0.00    +0.003 A 
ATOM     23  C   UNL     1      -2.739  -1.245  24.187  0.00  0.00    -0.003 A 
ATOM     24  C   UNL     1      -2.331  -1.850  24.573  0.00  0.00    -0.000 A 
ATOM     25  C   UNL     1      -2.746  -2.418  25.005  0.00  0.00    -0.000 A 
ATOM     26  C   UNL     1      -3.569  -2.381  25.049  0.00  0.00    -0.000 A 
ATOM     27  C   UNL     1      -3.977  -1.778  24.663  0.00  0.00    -0.003 A 
ENDBRANCH  21  22
ENDBRANCH  18  21
ENDBRANCH  14  18
BRANCH   3   4
ATOM      4  C   UNL     1      -2.822   3.932  25.881  0.00  0.00    +0.123 C 
BRANCH   4   5
ATOM      5  C   UNL     1      -2.099   4.176  25.568  0.00  0.00    +0.017 A 
ATOM      6  C   UNL     1      -2.057   4.863  25.112  0.00  0.00    +0.001 A 
ATOM      7  C   UNL     1      -1.334   5.106  24.799  0.00  0.00    +0.020 A 
ATOM      8  C   UNL     1      -0.653   4.664  24.941  0.00  0.00    +0.099 A 
ATOM      9  N   UNL     1      -0.694   3.978  25.397  0.00  0.00    -0.243 NA
ATOM     10  C   UNL     1      -1.417   3.733  25.710  0.00  0.00    +0.096 A 
ENDBRANCH   4   5
ENDBRANCH   3   4
TORSDOF 5
ENDMDL
MODEL 3
REMARK VINA RESULT:     -11.4      1.431      5.046
REMARK  Name = 
REMARK  5 active torsions:
REMARK  status: ('A' for Active; 'I' for Inactive)
REMARK    1  A    between atoms: N_3  and  C_4
REMARK    2  A    between atoms: C_4  and  C_5
REMARK    3  A    between atoms: N_14  and  S_18
REMARK    4  A    between atoms: S_18  and  C_21
REMARK    5  A    between atoms: C_21  and  C_22
REMARK                            x       y       z     vdW  Elec       q    Type
REMARK                         _______ _______ _______ _____ _____    ______ ____
ROOT
ATOM      1  O   UNL     1      -0.162  -1.055  23.690  0.00  0.00    -0.252 OA
ATOM      2  C   UNL     1      -0.550  -0.633  24.284  0.00  0.00    +0.308 C 
ATOM      3  N   UNL     1      -1.139  -0.927  24.782  0.00  0.00    -0.258 N 
ATOM     11  C   UNL     1      -1.370  -0.319  25.290  0.00  0.00    +0.117 C 
ATOM     12  C   UNL     1      -0.924   0.350  25.105  0.00  0.00    +0.114 C 
ATOM     13  C   UNL     1      -0.914   1.111  25.423  0.00  0.00    +0.117 C 
ATOM     14  N   UNL     1      -0.397   1.678  25.120  0.00  0.00    -0.156 NA
ATOM     15  C   UNL     1       0.109   1.484  24.498  0.00  0.00    +0.117 C 
ATOM     16  C   UNL     1       0.100   0.723  24.180  0.00  0.00    +0.114 C 
ATOM     17  N   UNL     1      -0.418   0.155  24.484  0.00  0.00    -0.261 N 
ENDROOT
BRANCH  14  18
ATOM     18  S   UNL     1      -0.387   2.439  25.437  0.00  0.00    +0.048 S 
ATOM     19  O   UNL     1      -0.191   2.746  24.697  0.00  0.00    -0.157 OA
ATOM     20  O   UNL     1      -0.583   2.132  26.178  0.00  0.00    -0.157 OA
BRANCH  18  21
ATOM     21  C   UNL     1      -0.376   3.200  25.756  0.00  0.00    +0.195 C 
BRANCH  21  22
ATOM     22  C   UNL     1      -0.991   3.725  25.589  0.00  0.00    +0.003 A 
ATOM     23  C   UNL     1      -0.865   4.356  25.073  0.00  0.00    -0.003 A 
ATOM     24  C   UNL     1      -1.480   4.881  24.905  0.00  0.00    -0.000 A 
ATOM     25  C   UNL     1      -2.220   4.775  25.254  0.00  0.00    -0.000 A 
ATOM     26  C   UNL     1      -2.345   4.143  25.771  0.00  0.00    -0.000 A 
ATOM     27  C   UNL     1      -1.731   3.619  25.938  0.00  0.00    -0.003 A 
ENDBRANCH  21  22
ENDBRANCH  18  21
ENDBRANCH  14  18
BRANCH   3   4
ATOM      4  C   UNL     1      -1.443  -1.694  24.773  0.00  0.00    +0.123 C 
BRANCH   4   5
ATOM      5  C   UNL     1      -2.259  -1.815  24.770  0.00  0.00    +0.017 A 
ATOM      6  C   UNL     1      -2.654  -1.975  25.477  0.00  0.00    +0.001 A 
ATOM      7  C   UNL     1      -3.470  -2.095  25.474  0.00  0.00    +0.020 A 
ATOM      8  C   UNL     1      -3.891  -2.056  24.766  0.00  0.00    +0.099 A 
ATOM      9  N   UNL     1      -3.496  -1.896  24.060  0.00  0.00    -0.243 NA
ATOM     10  C   UNL     1      -2.680  -1.775  24.062  0.00  0.00    +0.096 A 
ENDBRANCH   4   5
ENDBRANCH   3   4
TORSDOF 5
ENDMDL
MODEL 4
REMARK VINA RESULT:     -11.2      2.349      5.664
REMARK  Name = 
REMARK  5 active torsions:
REMARK  status: ('A' for Active; 'I' for Inactive)
REMARK    1  A    between atoms: N_3  and  C_4
REMARK    2  A    between atoms: C_4  and  C_5
REMARK    3  A    between atoms: N_14  and  S_18
REMARK    4  A    between atoms: S_18  and  C_21
REMARK    5  A    between atoms: C_21  and  C_22
REMARK                            x       y       z     vdW  Elec       q    Type
REMARK                         _______ _______ _______ _____ _____    ______ ____
ROOT
ATOM      1  O   UNL     1      -5.812   1.160  24.707  0.00  0.00    -0.252 OA
ATOM      2  C   UNL     1      -4.999   1.283  24.788  0.00  0.00    +0.308 C 
ATOM      3  N   UNL     1      -4.410   0.718  24.671  0.00  0.00    -0.258 N 
ATOM     11  C   UNL     1      -3.681   1.077  24.812  0.00  0.00    +0.117 C 
ATOM     12  C   UNL     1      -3.820   1.864  25.016  0.00  0.00    +0.114 C 
ATOM     13  C   UNL     1      -3.310   2.482  25.213  0.00  0.00    +0.117 C 
ATOM     14  N   UNL     1      -3.614   3.226  25.396  0.00  0.00    -0.156 NA
ATOM     15  C   UNL     1      -4.430   3.353  25.382  0.00  0.00    +0.117 C 
ATOM     16  C   UNL     1      -4.940   2.736  25.185  0.00  0.00    +0.114 C 
ATOM     17  N   UNL     1      -4.635   1.991  25.002  0.00  0.00    -0.261 N 
ENDROOT
BRANCH  14  18
ATOM     18  S   UNL     1      -3.105   3.844  25.594  0.00  0.00    +0.048 S 
ATOM     19  O   UNL     1      -3.269   4.210  24.874  0.00  0.00    -0.157 OA
ATOM     20  O   UNL     1      -2.940   3.477  26.315  0.00  0.00    -0.157 OA
BRANCH  18  21
ATOM     21  C   UNL     1      -2.595   4.461  25.792  0.00  0.00    +0.195 C 
BRANCH  21  22
ATOM     22  C   UNL     1      -1.846   4.505  25.446  0.00  0.00    +0.003 A 
ATOM     23  C   UNL     1      -1.302   3.897  25.565  0.00  0.00    -0.003 A 
ATOM     24  C   UNL     1      -0.553   3.940  25.220  0.00  0.00    -0.000 A 
ATOM     25  C   UNL     1      -0.350   4.592  24.756  0.00  0.00    -0.000 A 
ATOM     26  C   UNL     1      -0.895   5.200  24.638  0.00  0.00    -0.000 A 
ATOM     27  C   UNL     1      -1.643   5.156  24.983  0.00  0.00    -0.003 A 
ENDBRANCH  21  22
ENDBRANCH  18  21
ENDBRANCH  14  18
BRANCH   3   4
ATOM      4  C   UNL     1      -4.529  -0.069  24.452  0.00  0.00    +0.123 C 
BRANCH   4   5
ATOM      5  C   UNL     1      -3.964  -0.639  24.640  0.00  0.00    +0.017 A 
ATOM      6  C   UNL     1      -3.963  -0.987  25.389  0.00  0.00    +0.001 A 
ATOM      7  C   UNL     1      -3.398  -1.558  25.577  0.00  0.00    +0.020 A 
ATOM      8  C   UNL     1      -2.835  -1.782  25.017  0.00  0.00    +0.099 A 
ATOM      9  N   UNL     1      -2.836  -1.435  24.269  0.00  0.00    -0.243 NA
ATOM     10  C   UNL     1      -3.401  -0.863  24.080  0.00  0.00    +0.096 A 
ENDBRANCH   4   5
ENDBRANCH   3   4
TORSDOF 5
ENDMDL
