MODEL 1
REMARK VINA RESULT:     -13.5      0.000      0.000
REMARK  Name = 
REMARK  7 active torsions:
REMARK  status: ('A' for Active; 'I' for Inactive)
REMARK    1  A    between atoms: C_2  and  C_3
REMARK    2  A    between atoms: C_5  and  C_6
REMARK    3  A    between atoms: C_6  and  N_7
REMARK    4  A    between atoms: C_8  and  C_10
REMARK    5  A    between atoms: C_17  and  N_20
REMARK    6  A    between atoms: N_23  and  C_26
REMARK    7  A    between atoms: C_28  and  C_32
REMARK                            x       y       z     vdW  Elec       q    Type
REMARK                         _______ _______ _______ _____ _____    ______ ____
ROOT
ATOM      3  C   UNL     1      -5.325   3.024  25.315  0.00  0.00    +0.180 C 
ATOM      4  O   UNL     1      -4.527   3.223  25.373  0.00  0.00    -0.350 OA
ATOM      5  C   UNL     1      -4.083   2.542  25.228  0.00  0.00    +0.154 C 
ATOM     17  C   UNL     1      -4.608   1.923  25.079  0.00  0.00    +0.120 C 
ATOM     18  C   UNL     1      -5.376   2.221  25.133  0.00  0.00    +0.198 C 
ATOM     19  O   UNL     1      -6.072   1.790  25.024  0.00  0.00    -0.219 OA
ENDROOT
BRANCH  17  20
ATOM     20  N   UNL     1      -4.402   1.143  24.907  0.00  0.00    -0.267 NA
ATOM     21  C   UNL     1      -4.422   0.571  25.501  0.00  0.00    +0.094 C 
ATOM     22  C   UNL     1      -4.216  -0.210  25.330  0.00  0.00    +0.108 C 
ATOM     23  N   UNL     1      -3.989  -0.417  24.563  0.00  0.00    -0.305 N 
ATOM     24  C   UNL     1      -3.968   0.155  23.970  0.00  0.00    +0.108 C 
ATOM     25  C   UNL     1      -4.175   0.935  24.142  0.00  0.00    +0.094 C 
BRANCH  23  26
ATOM     26  C   UNL     1      -3.783  -1.198  24.392  0.00  0.00    +0.048 A 
ATOM     27  C   UNL     1      -3.039  -1.483  24.604  0.00  0.00    +0.018 A 
ATOM     28  C   UNL     1      -2.832  -2.264  24.432  0.00  0.00    +0.073 A 
ATOM     29  C   UNL     1      -3.370  -2.758  24.048  0.00  0.00    +0.004 A 
ATOM     30  C   UNL     1      -4.115  -2.472  23.837  0.00  0.00    +0.001 A 
ATOM     31  C   UNL     1      -4.320  -1.692  24.008  0.00  0.00    +0.015 A 
BRANCH  28  32
ATOM     32  C   UNL     1      -2.088  -2.551  24.644  0.00  0.00    +0.419 C 
ATOM     33  F   UNL     1      -1.345  -2.838  24.857  0.00  0.00    -0.166 F 
ATOM     34  F   UNL     1      -1.787  -2.309  23.916  0.00  0.00    -0.166 F 
ATOM     35  F   UNL     1      -2.390  -2.793  25.373  0.00  0.00    -0.166 F 
ENDBRANCH  28  32
ENDBRANCH  23  26
ENDBRANCH  17  20
BRANCH   3   2
ATOM      1  O   UNL     1      -5.844   4.273  25.778  0.00  0.00    -0.218 OA
ATOM      2  C   UNL     1      -5.961   3.538  25.420  0.00  0.00    +0.214 C 
ENDBRANCH   3   2
BRANCH   5   6
ATOM      6  C   UNL     1      -3.260   2.490  25.230  0.00  0.00    +0.146 C 
BRANCH   6   7
ATOM      7  N   UNL     1      -2.805   3.154  25.053  0.00  0.00    -0.199 NA
ATOM      8  C   UNL     1      -2.011   3.182  25.278  0.00  0.00    +0.266 C 
ATOM      9  O   UNL     1      -1.673   2.546  25.679  0.00  0.00    -0.268 OA
BRANCH   8  10
ATOM     10  C   UNL     1      -1.555   3.847  25.101  0.00  0.00    +0.066 A 
ATOM     11  C   UNL     1      -0.854   3.765  24.676  0.00  0.00    +0.062 A 
ATOM     12 CL   UNL     1      -0.606   3.018  24.427  0.00  0.00    -0.082 Cl
ATOM     13  C   UNL     1      -0.398   4.430  24.498  0.00  0.00    +0.012 A 
ATOM     14  C   UNL     1      -0.646   5.178  24.747  0.00  0.00    +0.001 A 
ATOM     15  C   UNL     1      -1.348   5.259  25.173  0.00  0.00    +0.000 A 
ATOM     16  C   UNL     1      -1.803   4.594  25.349  0.00  0.00    +0.005 A 
ENDBRANCH   8  10
ENDBRANCH   6   7
ENDBRANCH   5   6
TORSDOF 7
ENDMDL
MODEL 2
REMARK VINA RESULT:     -12.5      3.172      6.232
REMARK  Name = 
REMARK  7 active torsions:
REMARK  status: ('A' for Active; 'I' for Inactive)
REMARK    1  A    between atoms: C_2  and  C_3
REMARK    2  A    between atoms: C_5  and  C_6
REMARK    3  A    between atoms: C_6  and  N_7
REMARK    4  A    between atoms: C_8  and  C_10
REMARK    5  A    between atoms: C_17  and  N_20
REMARK    6  A    between atoms: N_23  and  C_26
REMARK    7  A    between atoms: C_28  and  C_32
REMARK                            x       y       z     vdW  Elec       q    Type
REMARK                         _______ _______ _______ _____ _____    ______ ____
ROOT
ATOM      3  C   UNL     1       0.523  -0.184  23.515  0.00  0.00    +0.180 C 
ATOM      4  O   UNL     1      -0.093  -0.591  23.882  0.00  0.00    -0.350 OA
ATOM      5  C   UNL     1      -0.588  -0.036  24.241  0.00  0.00    +0.154 C 
ATOM     17  C   UNL     1      -0.277   0.714  24.096  0.00  0.00    +0.120 C 
ATOM     18  C   UNL     1       0.410   0.623  23.647  0.00  0.00    +0.198 C 
ATOM     19  O   UNL     1       0.898   1.232  23.378  0.00  0.00    -0.219 OA
ENDROOT
BRANCH  17  20
ATOM     20  N   UNL     1      -0.596   1.429  24.354  0.00  0.00    -0.267 NA
ATOM     21  C   UNL     1      -1.111   1.851  23.865  0.00  0.00    +0.094 C 
ATOM     22  C   UNL     1      -1.431   2.567  24.123  0.00  0.00    +0.108 C 
ATOM     23  N   UNL     1      -1.235   2.861  24.869  0.00  0.00    -0.305 N 
ATOM     24  C   UNL     1      -0.720   2.440  25.356  0.00  0.00    +0.108 C 
ATOM     25  C   UNL     1      -0.400   1.724  25.098  0.00  0.00    +0.094 C 
BRANCH  23  26
ATOM     26  C   UNL     1      -1.554   3.577  25.126  0.00  0.00    +0.048 A 
ATOM     27  C   UNL     1      -2.278   3.587  25.521  0.00  0.00    +0.018 A 
ATOM     28  C   UNL     1      -2.598   4.303  25.779  0.00  0.00    +0.073 A 
ATOM     29  C   UNL     1      -2.193   5.009  25.641  0.00  0.00    +0.004 A 
ATOM     30  C   UNL     1      -1.469   4.998  25.246  0.00  0.00    +0.001 A 
ATOM     31  C   UNL     1      -1.150   4.282  24.989  0.00  0.00    +0.015 A 
BRANCH  28  32
ATOM     32  C   UNL     1      -3.322   4.314  26.174  0.00  0.00    +0.419 C 
ATOM     33  F   UNL     1      -4.045   4.325  26.570  0.00  0.00    -0.166 F 
ATOM     34  F   UNL     1      -3.717   4.319  25.451  0.00  0.00    -0.166 F 
ATOM     35  F   UNL     1      -2.926   4.310  26.898  0.00  0.00    -0.166 F 
ENDBRANCH  28  32
ENDBRANCH  23  26
ENDBRANCH  17  20
BRANCH   3   2
ATOM      1  O   UNL     1       1.064  -0.660  22.281  0.00  0.00    -0.218 OA
ATOM      2  C   UNL     1       1.143  -0.523  23.092  0.00  0.00    +0.214 C 
ENDBRANCH   3   2
BRANCH   5   6
ATOM      6  C   UNL     1      -1.273  -0.203  24.669  0.00  0.00    +0.146 C 
BRANCH   6   7
ATOM      7  N   UNL     1      -1.795  -0.783  24.403  0.00  0.00    -0.199 NA
ATOM      8  C   UNL     1      -2.458  -0.980  24.853  0.00  0.00    +0.266 C 
ATOM      9  O   UNL     1      -2.599  -0.596  25.569  0.00  0.00    -0.268 OA
BRANCH   8  10
ATOM     10  C   UNL     1      -2.980  -1.561  24.587  0.00  0.00    +0.066 A 
ATOM     11  C   UNL     1      -3.680  -1.345  24.209  0.00  0.00    +0.062 A 
ATOM     12 CL   UNL     1      -3.859  -0.547  24.097  0.00  0.00    -0.082 Cl
ATOM     13  C   UNL     1      -4.202  -1.926  23.942  0.00  0.00    +0.012 A 
ATOM     14  C   UNL     1      -4.022  -2.724  24.054  0.00  0.00    +0.001 A 
ATOM     15  C   UNL     1      -3.321  -2.940  24.432  0.00  0.00    +0.000 A 
ATOM     16  C   UNL     1      -2.800  -2.359  24.699  0.00  0.00    +0.005 A 
ENDBRANCH   8  10
ENDBRANCH   6   7
ENDBRANCH   5   6
TORSDOF 7
ENDMDL
MODEL 3
REMARK VINA RESULT:     -11.9      2.444      3.854
REMARK  Name = 
REMARK  7 active torsions:
REMARK  status: ('A' for Active; 'I' for Inactive)
REMARK    1  A    between atoms: C_2  and  C_3
REMARK    2  A    between atoms: C_5  and  C_6
REMARK    3  A    between atoms: C_6  and  N_7
REMARK    4  A    between atoms: C_8  and  C_10
REMARK    5  A    between atoms: C_17  and  N_20
REMARK    6  A    between atoms: N_23  and  C_26
REMARK    7  A    between atoms: C_28  and  C_32
REMARK                            x       y       z     vdW  Elec       q    Type
REMARK                         _______ _______ _______ _____ _____    ______ ____
ROOT
ATOM      3  C   UNL     1       1.190   1.088  23.555  0.00  0.00    +0.180 C 
ATOM      4  O   UNL     1       0.966   1.675  24.090  0.00  0.00    -0.350 OA
ATOM      5  C   UNL     1       0.265   1.436  24.453  0.00  0.00    +0.154 C 
ATOM     17  C   UNL     1       0.055   0.701  24.144  0.00  0.00    +0.120 C 
ATOM     18  C   UNL     1       0.627   0.485  23.589  0.00  0.00    +0.198 C 
ATOM     19  O   UNL     1       0.634  -0.211  23.145  0.00  0.00    -0.219 OA
ENDROOT
BRANCH  17  20
ATOM     20  N   UNL     1      -0.609   0.258  24.352  0.00  0.00    -0.267 NA
ATOM     21  C   UNL     1      -1.334   0.405  23.986  0.00  0.00    +0.094 C 
ATOM     22  C   UNL     1      -1.999  -0.037  24.194  0.00  0.00    +0.108 C 
ATOM     23  N   UNL     1      -1.937  -0.628  24.769  0.00  0.00    -0.305 N 
ATOM     24  C   UNL     1      -1.213  -0.774  25.134  0.00  0.00    +0.108 C 
ATOM     25  C   UNL     1      -0.548  -0.332  24.925  0.00  0.00    +0.094 C 
BRANCH  23  26
ATOM     26  C   UNL     1      -2.602  -1.070  24.977  0.00  0.00    +0.048 A 
ATOM     27  C   UNL     1      -2.990  -1.524  24.408  0.00  0.00    +0.018 A 
ATOM     28  C   UNL     1      -3.655  -1.966  24.616  0.00  0.00    +0.073 A 
ATOM     29  C   UNL     1      -3.931  -1.955  25.394  0.00  0.00    +0.004 A 
ATOM     30  C   UNL     1      -3.542  -1.501  25.962  0.00  0.00    +0.001 A 
ATOM     31  C   UNL     1      -2.878  -1.059  25.754  0.00  0.00    +0.015 A 
BRANCH  28  32
ATOM     32  C   UNL     1      -4.044  -2.421  24.047  0.00  0.00    +0.419 C 
ATOM     33  F   UNL     1      -4.433  -2.873  23.479  0.00  0.00    -0.166 F 
ATOM     34  F   UNL     1      -3.537  -3.051  24.204  0.00  0.00    -0.166 F 
ATOM     35  F   UNL     1      -4.551  -1.789  23.891  0.00  0.00    -0.166 F 
ENDBRANCH  28  32
ENDBRANCH  23  26
ENDBRANCH  17  20
BRANCH   3   2
ATOM      1  O   UNL     1       2.581   1.360  23.376  0.00  0.00    -0.218 OA
ATOM      2  C   UNL     1       1.858   1.101  23.073  0.00  0.00    +0.214 C 
ENDBRANCH   3   2
BRANCH   5   6
ATOM      6  C   UNL     1      -0.153   1.858  25.026  0.00  0.00    +0.146 C 
BRANCH   6   7
ATOM      7  N   UNL     1      -0.417   2.622  24.864  0.00  0.00    -0.199 NA
ATOM      8  C   UNL     1      -0.698   3.100  25.476  0.00  0.00    +0.266 C 
ATOM      9  O   UNL     1      -0.715   2.813  26.249  0.00  0.00    -0.268 OA
BRANCH   8  10
ATOM     10  C   UNL     1      -0.962   3.865  25.314  0.00  0.00    +0.066 A 
ATOM     11  C   UNL     1      -1.738   4.079  25.490  0.00  0.00    +0.062 A 
ATOM     12 CL   UNL     1      -2.252   3.530  25.829  0.00  0.00    -0.082 Cl
ATOM     13  C   UNL     1      -2.002   4.845  25.327  0.00  0.00    +0.012 A 
ATOM     14  C   UNL     1      -1.488   5.394  24.988  0.00  0.00    +0.001 A 
ATOM     15  C   UNL     1      -0.711   5.179  24.812  0.00  0.00    +0.000 A 
ATOM     16  C   UNL     1      -0.448   4.415  24.975  0.00  0.00    +0.005 A 
ENDBRANCH   8  10
ENDBRANCH   6   7
ENDBRANCH   5   6
TORSDOF 7
ENDMDL
MODEL 4
REMARK VINA RESULT:     -11.8      2.783      5.524
REMARK  Name = 
REMARK  7 active torsions:
REMARK  status: ('A' for Active; 'I' for Inactive)
REMARK    1  A    between atoms: C_2  and  C_3
REMARK    2  A    between atoms: C_5  and  C_6
REMARK    3  A    between atoms: C_6  and  N_7
REMARK    4  A    between atoms: C_8  and  C_10
REMARK    5  A    between atoms: C_17  and  N_20
REMARK    6  A    between atoms: N_23  and  C_26
REMARK    7  A    between atoms: C_28  and  C_32
REMARK                            x       y       z     vdW  Elec       q    Type
REMARK                         _______ _______ _______ _____ _____    ______ ____
ROOT
ATOM      3  C   UNL     1      -5.834   1.706  25.048  0.00  0.00    +0.180 C 
ATOM      4  O   UNL     1      -5.439   1.027  24.797  0.00  0.00    -0.350 OA
ATOM      5  C   UNL     1      -4.637   1.209  24.727  0.00  0.00    +0.154 C 
ATOM     17  C   UNL     1      -4.536   2.001  24.934  0.00  0.00    +0.120 C 
ATOM     18  C   UNL     1      -5.276   2.309  25.132  0.00  0.00    +0.198 C 
ATOM     19  O   UNL     1      -5.431   3.083  25.373  0.00  0.00    -0.219 OA
ENDROOT
BRANCH  17  20
ATOM     20  N   UNL     1      -3.822   2.414  24.941  0.00  0.00    -0.267 NA
ATOM     21  C   UNL     1      -3.544   2.769  24.250  0.00  0.00    +0.094 C 
ATOM     22  C   UNL     1      -2.830   3.182  24.257  0.00  0.00    +0.108 C 
ATOM     23  N   UNL     1      -2.393   3.239  24.956  0.00  0.00    -0.305 N 
ATOM     24  C   UNL     1      -2.671   2.884  25.645  0.00  0.00    +0.108 C 
ATOM     25  C   UNL     1      -3.386   2.471  25.639  0.00  0.00    +0.094 C 
BRANCH  23  26
ATOM     26  C   UNL     1      -1.679   3.652  24.962  0.00  0.00    +0.048 A 
ATOM     27  C   UNL     1      -1.679   4.477  24.939  0.00  0.00    +0.018 A 
ATOM     28  C   UNL     1      -0.964   4.890  24.946  0.00  0.00    +0.073 A 
ATOM     29  C   UNL     1      -0.250   4.477  24.976  0.00  0.00    +0.004 A 
ATOM     30  C   UNL     1      -0.251   3.653  25.000  0.00  0.00    +0.001 A 
ATOM     31  C   UNL     1      -0.965   3.241  24.993  0.00  0.00    +0.015 A 
BRANCH  28  32
ATOM     32  C   UNL     1      -0.963   5.714  24.923  0.00  0.00    +0.419 C 
ATOM     33  F   UNL     1      -0.961   6.539  24.898  0.00  0.00    -0.166 F 
ATOM     34  F   UNL     1      -1.576   5.731  25.474  0.00  0.00    -0.166 F 
ATOM     35  F   UNL     1      -0.350   5.697  24.371  0.00  0.00    -0.166 F 
ENDBRANCH  28  32
ENDBRANCH  23  26
ENDBRANCH  17  20
BRANCH   3   2
ATOM      1  O   UNL     1      -7.183   1.571  24.597  0.00  0.00    -0.218 OA
ATOM      2  C   UNL     1      -6.643   1.772  25.189  0.00  0.00    +0.214 C 
ENDBRANCH   3   2
BRANCH   5   6
ATOM      6  C   UNL     1      -4.041   0.690  24.491  0.00  0.00    +0.146 C 
BRANCH   6   7
ATOM      7  N   UNL     1      -4.167  -0.124  24.522  0.00  0.00    -0.199 NA
ATOM      8  C   UNL     1      -3.561  -0.644  24.311  0.00  0.00    +0.266 C 
ATOM      9  O   UNL     1      -2.830  -0.349  24.070  0.00  0.00    -0.268 OA
BRANCH   8  10
ATOM     10  C   UNL     1      -3.687  -1.459  24.343  0.00  0.00    +0.066 A 
ATOM     11  C   UNL     1      -3.327  -1.910  24.931  0.00  0.00    +0.062 A 
ATOM     12 CL   UNL     1      -2.838  -1.547  25.489  0.00  0.00    -0.082 Cl
ATOM     13  C   UNL     1      -3.453  -2.725  24.962  0.00  0.00    +0.012 A 
ATOM     14  C   UNL     1      -3.942  -3.088  24.404  0.00  0.00    +0.001 A 
ATOM     15  C   UNL     1      -4.303  -2.636  23.815  0.00  0.00    +0.000 A 
ATOM     16  C   UNL     1      -4.176  -1.822  23.785  0.00  0.00    +0.005 A 
ENDBRANCH   8  10
ENDBRANCH   6   7
ENDBRANCH   5   6
TORSDOF 7
ENDMDL
MODEL 5
REMARK VINA RESULT:     -11.7      1.694      3.485
REMARK  Name = 
REMARK  7 active torsions:
REMARK  status: ('A' for Active; 'I' for Inactive)
REMARK    1  A    between atoms: C_2  and  C_3
REMARK    2  A    between atoms: C_5  and  C_6
REMARK    3  A    between atoms: C_6  and  N_7
REMARK    4  A    between atoms: C_8  and  C_10
REMARK    5  A    between atoms: C_17  and  N_20
REMARK    6  A    between atoms: N_23  and  C_26
REMARK    7  A    between atoms: C_28  and  C_32
REMARK                            x       y       z     vdW  Elec       q    Type
REMARK                         _______ _______ _______ _____ _____    ______ ____
ROOT
ATOM      3  C   UNL     1      -0.805   3.329  24.848  0.00  0.00    +0.180 C 
ATOM      4  O   UNL     1      -1.578   3.419  24.576  0.00  0.00    -0.350 OA
ATOM      5  C   UNL     1      -1.906   2.666  24.487  0.00  0.00    +0.154 C 
ATOM     17  C   UNL     1      -1.335   2.112  24.703  0.00  0.00    +0.120 C 
ATOM     18  C   UNL     1      -0.654   2.521  24.926  0.00  0.00    +0.198 C 
ATOM     19  O   UNL     1       0.054   2.182  25.183  0.00  0.00    -0.219 OA
ENDROOT
BRANCH  17  20
ATOM     20  N   UNL     1      -1.428   1.292  24.697  0.00  0.00    -0.267 NA
ATOM     21  C   UNL     1      -1.612   0.894  25.396  0.00  0.00    +0.094 C 
ATOM     22  C   UNL     1      -1.705   0.074  25.391  0.00  0.00    +0.108 C 
ATOM     23  N   UNL     1      -1.613  -0.347  24.687  0.00  0.00    -0.305 N 
ATOM     24  C   UNL     1      -1.429   0.051  23.989  0.00  0.00    +0.108 C 
ATOM     25  C   UNL     1      -1.336   0.872  23.994  0.00  0.00    +0.094 C 
BRANCH  23  26
ATOM     26  C   UNL     1      -1.706  -1.167  24.681  0.00  0.00    +0.048 A 
ATOM     27  C   UNL     1      -2.462  -1.496  24.644  0.00  0.00    +0.018 A 
ATOM     28  C   UNL     1      -2.555  -2.316  24.639  0.00  0.00    +0.073 A 
ATOM     29  C   UNL     1      -1.892  -2.807  24.671  0.00  0.00    +0.004 A 
ATOM     30  C   UNL     1      -1.137  -2.477  24.709  0.00  0.00    +0.001 A 
ATOM     31  C   UNL     1      -1.044  -1.658  24.714  0.00  0.00    +0.015 A 
BRANCH  28  32
ATOM     32  C   UNL     1      -3.310  -2.646  24.602  0.00  0.00    +0.419 C 
ATOM     33  F   UNL     1      -4.065  -2.976  24.566  0.00  0.00    -0.166 F 
ATOM     34  F   UNL     1      -3.308  -2.560  23.782  0.00  0.00    -0.166 F 
ATOM     35  F   UNL     1      -3.312  -2.733  25.423  0.00  0.00    -0.166 F 
ENDBRANCH  28  32
ENDBRANCH  23  26
ENDBRANCH  17  20
BRANCH   3   2
ATOM      1  O   UNL     1      -0.529   4.724  24.990  0.00  0.00    -0.218 OA
ATOM      2  C   UNL     1      -0.275   3.939  25.012  0.00  0.00    +0.214 C 
ENDBRANCH   3   2
BRANCH   5   6
ATOM      6  C   UNL     1      -2.670   2.499  24.226  0.00  0.00    +0.146 C 
BRANCH   6   7
ATOM      7  N   UNL     1      -3.318   2.691  24.699  0.00  0.00    -0.199 NA
ATOM      8  C   UNL     1      -4.081   2.661  24.385  0.00  0.00    +0.266 C 
ATOM      9  O   UNL     1      -4.196   2.440  23.599  0.00  0.00    -0.268 OA
BRANCH   8  10
ATOM     10  C   UNL     1      -4.730   2.854  24.858  0.00  0.00    +0.066 A 
ATOM     11  C   UNL     1      -5.263   2.268  25.085  0.00  0.00    +0.062 A 
ATOM     12 CL   UNL     1      -5.150   1.488  24.839  0.00  0.00    -0.082 Cl
ATOM     13  C   UNL     1      -5.911   2.461  25.559  0.00  0.00    +0.012 A 
ATOM     14  C   UNL     1      -6.025   3.241  25.804  0.00  0.00    +0.001 A 
ATOM     15  C   UNL     1      -5.490   3.827  25.577  0.00  0.00    +0.000 A 
ATOM     16  C   UNL     1      -4.843   3.634  25.104  0.00  0.00    +0.005 A 
ENDBRANCH   8  10
ENDBRANCH   6   7
ENDBRANCH   5   6
TORSDOF 7
ENDMDL
