MODEL 1
REMARK VINA RESULT:      -9.5      0.000      0.000
REMARK  Name = 
REMARK  7 active torsions:
REMARK  status: ('A' for Active; 'I' for Inactive)
REMARK    1  A    between atoms: N_4  and  C_5
REMARK    2  A    between atoms: C_8  and  S_11
REMARK    3  A    between atoms: S_11  and  N_14
REMARK    4  A    between atoms: N_14  and  C_15
REMARK    5  A    between atoms: C_19  and  O_23
REMARK    6  A    between atoms: O_23  and  C_24
REMARK    7  A    between atoms: C_24  and  C_25
REMARK                            x       y       z     vdW  Elec       q    Type
REMARK                         _______ _______ _______ _____ _____    ______ ____
ROOT
ATOM     14  N   UNL     1      -4.643   1.532  24.737  0.00  0.00    -0.074 NA
ENDROOT
BRANCH  14  15
ATOM     15  C   UNL     1      -4.086   2.106  24.535  0.00  0.00    +0.157 C 
ATOM     16  C   UNL     1      -3.642   2.127  23.840  0.00  0.00    +0.164 C 
ATOM     17  O   UNL     1      -3.157   2.794  23.868  0.00  0.00    -0.350 OA
ATOM     18  C   UNL     1      -3.301   3.185  24.579  0.00  0.00    +0.173 C 
ATOM     19  C   UNL     1      -3.091   3.838  25.037  0.00  0.00    +0.175 C 
ATOM     20  C   UNL     1      -3.535   3.817  25.732  0.00  0.00    +0.174 C 
ATOM     21  O   UNL     1      -4.020   3.150  25.704  0.00  0.00    -0.349 OA
ATOM     22  C   UNL     1      -3.876   2.759  24.991  0.00  0.00    +0.165 C 
BRANCH  19  23
ATOM     23  O   UNL     1      -2.534   4.412  24.835  0.00  0.00    -0.342 OA
BRANCH  23  24
ATOM     24  C   UNL     1      -1.924   4.597  25.359  0.00  0.00    +0.230 C 
BRANCH  24  25
ATOM     25  C   UNL     1      -1.306   5.088  25.116  0.00  0.00    +0.291 C 
ATOM     26  N   UNL     1      -0.575   4.762  24.917  0.00  0.00    -0.086 NA
ATOM     27  O   UNL     1      -1.421   5.904  25.072  0.00  0.00    -0.269 OA
ENDBRANCH  24  25
ENDBRANCH  23  24
ENDBRANCH  19  23
ENDBRANCH  14  15
BRANCH  14  11
ATOM     11  S   UNL     1      -4.432   0.734  24.739  0.00  0.00    +0.077 S 
ATOM     12  O   UNL     1      -4.329   0.758  23.921  0.00  0.00    -0.152 OA
ATOM     13  O   UNL     1      -4.534   0.709  25.557  0.00  0.00    -0.152 OA
BRANCH  11   8
ATOM      5  C   UNL     1      -3.799  -1.658  24.747  0.00  0.00    +0.073 A 
ATOM      6  C   UNL     1      -3.642  -1.188  25.406  0.00  0.00    +0.018 A 
ATOM      7  C   UNL     1      -3.852  -0.390  25.404  0.00  0.00    +0.021 A 
ATOM      8  C   UNL     1      -4.221  -0.063  24.742  0.00  0.00    +0.124 A 
ATOM      9  C   UNL     1      -4.378  -0.534  24.082  0.00  0.00    +0.021 A 
ATOM     10  C   UNL     1      -4.167  -1.331  24.086  0.00  0.00    +0.018 A 
BRANCH   5   4
ATOM      1  C   UNL     1      -2.622  -3.482  24.512  0.00  0.00    +0.097 C 
ATOM      2  C   UNL     1      -2.833  -2.684  24.510  0.00  0.00    +0.246 C 
ATOM      3  O   UNL     1      -2.287  -2.115  24.269  0.00  0.00    -0.273 OA
ATOM      4  N   UNL     1      -3.588  -2.456  24.749  0.00  0.00    -0.179 NA
ENDBRANCH   5   4
ENDBRANCH  11   8
ENDBRANCH  14  11
TORSDOF 7
ENDMDL
MODEL 2
REMARK VINA RESULT:      -9.0      2.328      2.675
REMARK  Name = 
REMARK  7 active torsions:
REMARK  status: ('A' for Active; 'I' for Inactive)
REMARK    1  A    between atoms: N_4  and  C_5
REMARK    2  A    between atoms: C_8  and  S_11
REMARK    3  A    between atoms: S_11  and  N_14
REMARK    4  A    between atoms: N_14  and  C_15
REMARK    5  A    between atoms: C_19  and  O_23
REMARK    6  A    between atoms: O_23  and  C_24
REMARK    7  A    between atoms: C_24  and  C_25
REMARK                            x       y       z     vdW  Elec       q    Type
REMARK                         _______ _______ _______ _____ _____    ______ ____
ROOT
ATOM     14  N   UNL     1      -0.592   0.105  25.379  0.00  0.00    -0.074 NA
ENDROOT
BRANCH  14  15
ATOM     15  C   UNL     1      -0.667   0.857  25.046  0.00  0.00    +0.157 C 
ATOM     16  C   UNL     1      -0.897   1.022  24.271  0.00  0.00    +0.164 C 
ATOM     17  O   UNL     1      -0.898   1.841  24.176  0.00  0.00    -0.350 OA
ATOM     18  C   UNL     1      -0.670   2.182  24.891  0.00  0.00    +0.173 C 
ATOM     19  C   UNL     1      -0.530   2.899  25.276  0.00  0.00    +0.175 C 
ATOM     20  C   UNL     1      -0.301   2.733  26.050  0.00  0.00    +0.174 C 
ATOM     21  O   UNL     1      -0.299   1.914  26.145  0.00  0.00    -0.349 OA
ATOM     22  C   UNL     1      -0.528   1.573  25.429  0.00  0.00    +0.165 C 
BRANCH  19  23
ATOM     23  O   UNL     1      -0.606   3.650  24.943  0.00  0.00    -0.342 OA
BRANCH  23  24
ATOM     24  C   UNL     1      -0.904   4.273  25.394  0.00  0.00    +0.230 C 
BRANCH  24  25
ATOM     25  C   UNL     1      -1.071   4.998  25.037  0.00  0.00    +0.291 C 
ATOM     26  N   UNL     1      -1.822   5.331  25.113  0.00  0.00    -0.086 NA
ATOM     27  O   UNL     1      -0.488   5.389  24.604  0.00  0.00    -0.269 OA
ENDBRANCH  24  25
ENDBRANCH  23  24
ENDBRANCH  19  23
ENDBRANCH  14  15
BRANCH  14  11
ATOM     11  S   UNL     1      -1.154  -0.477  25.217  0.00  0.00    +0.077 S 
ATOM     12  O   UNL     1      -1.534  -0.309  25.930  0.00  0.00    -0.152 OA
ATOM     13  O   UNL     1      -0.774  -0.646  24.505  0.00  0.00    -0.152 OA
BRANCH  11   8
ATOM      5  C   UNL     1      -2.839  -2.223  24.730  0.00  0.00    +0.073 A 
ATOM      6  C   UNL     1      -2.088  -2.269  24.393  0.00  0.00    +0.018 A 
ATOM      7  C   UNL     1      -1.526  -1.687  24.555  0.00  0.00    +0.021 A 
ATOM      8  C   UNL     1      -1.715  -1.059  25.055  0.00  0.00    +0.124 A 
ATOM      9  C   UNL     1      -2.467  -1.012  25.393  0.00  0.00    +0.021 A 
ATOM     10  C   UNL     1      -3.028  -1.594  25.230  0.00  0.00    +0.018 A 
BRANCH   5   4
ATOM      1  C   UNL     1      -4.557  -3.244  23.852  0.00  0.00    +0.097 C 
ATOM      2  C   UNL     1      -3.995  -2.662  24.014  0.00  0.00    +0.246 C 
ATOM      3  O   UNL     1      -4.027  -1.937  23.622  0.00  0.00    -0.273 OA
ATOM      4  N   UNL     1      -3.401  -2.805  24.568  0.00  0.00    -0.179 NA
ENDBRANCH   5   4
ENDBRANCH  11   8
ENDBRANCH  14  11
TORSDOF 7
ENDMDL
MODEL 3
REMARK VINA RESULT:      -8.6      2.246      6.117
REMARK  Name = 
REMARK  7 active torsions:
REMARK  status: ('A' for Active; 'I' for Inactive)
REMARK    1  A    between atoms: N_4  and  C_5
REMARK    2  A    between atoms: C_8  and  S_11
REMARK    3  A    between atoms: S_11  and  N_14
REMARK    4  A    between atoms: N_14  and  C_15
REMARK    5  A    between atoms: C_19  and  O_23
REMARK    6  A    between atoms: O_23  and  C_24
REMARK    7  A    between atoms: C_24  and  C_25
REMARK                            x       y       z     vdW  Elec       q    Type
REMARK                         _______ _______ _______ _____ _____    ______ ____
ROOT
ATOM     14  N   UNL     1      -0.373   0.641  25.107  0.00  0.00    -0.074 NA
ENDROOT
BRANCH  14  15
ATOM     15  C   UNL     1      -1.047   0.170  25.176  0.00  0.00    +0.157 C 
ATOM     16  C   UNL     1      -1.773   0.405  25.488  0.00  0.00    +0.164 C 
ATOM     17  O   UNL     1      -2.288  -0.238  25.449  0.00  0.00    -0.350 OA
ATOM     18  C   UNL     1      -1.881  -0.871  25.112  0.00  0.00    +0.173 C 
ATOM     19  C   UNL     1      -1.946  -1.659  24.880  0.00  0.00    +0.175 C 
ATOM     20  C   UNL     1      -1.220  -1.895  24.567  0.00  0.00    +0.174 C 
ATOM     21  O   UNL     1      -0.706  -1.252  24.606  0.00  0.00    -0.349 OA
ATOM     22  C   UNL     1      -1.114  -0.618  24.943  0.00  0.00    +0.165 C 
BRANCH  19  23
ATOM     23  O   UNL     1      -2.621  -2.130  24.948  0.00  0.00    -0.342 OA
BRANCH  23  24
ATOM     24  C   UNL     1      -2.910  -2.535  24.290  0.00  0.00    +0.230 C 
BRANCH  24  25
ATOM     25  C   UNL     1      -3.666  -2.865  24.308  0.00  0.00    +0.291 C 
ATOM     26  N   UNL     1      -4.267  -2.545  23.842  0.00  0.00    -0.086 NA
ATOM     27  O   UNL     1      -3.820  -3.516  24.791  0.00  0.00    -0.269 OA
ENDBRANCH  24  25
ENDBRANCH  23  24
ENDBRANCH  19  23
ENDBRANCH  14  15
BRANCH  14  11
ATOM     11  S   UNL     1      -0.445   1.462  25.070  0.00  0.00    +0.077 S 
ATOM     12  O   UNL     1      -0.404   1.503  25.893  0.00  0.00    -0.152 OA
ATOM     13  O   UNL     1      -0.485   1.421  24.247  0.00  0.00    -0.152 OA
BRANCH  11   8
ATOM      5  C   UNL     1      -0.660   3.925  24.955  0.00  0.00    +0.073 A 
ATOM      6  C   UNL     1      -0.508   3.557  25.677  0.00  0.00    +0.018 A 
ATOM      7  C   UNL     1      -0.436   2.736  25.716  0.00  0.00    +0.021 A 
ATOM      8  C   UNL     1      -0.516   2.283  25.032  0.00  0.00    +0.124 A 
ATOM      9  C   UNL     1      -0.668   2.650  24.309  0.00  0.00    +0.021 A 
ATOM     10  C   UNL     1      -0.740   3.471  24.271  0.00  0.00    +0.018 A 
BRANCH   5   4
ATOM      1  C   UNL     1      -1.529   5.926  25.036  0.00  0.00    +0.097 C 
ATOM      2  C   UNL     1      -1.457   5.105  25.076  0.00  0.00    +0.246 C 
ATOM      3  O   UNL     1      -2.111   4.643  25.275  0.00  0.00    -0.273 OA
ATOM      4  N   UNL     1      -0.732   4.746  24.916  0.00  0.00    -0.179 NA
ENDBRANCH   5   4
ENDBRANCH  11   8
ENDBRANCH  14  11
TORSDOF 7
ENDMDL
MODEL 4
REMARK VINA RESULT:      -8.4      3.928      5.189
REMARK  Name = 
REMARK  7 active torsions:
REMARK  status: ('A' for Active; 'I' for Inactive)
REMARK    1  A    between atoms: N_4  and  C_5
REMARK    2  A    between atoms: C_8  and  S_11
REMARK    3  A    between atoms: S_11  and  N_14
REMARK    4  A    between atoms: N_14  and  C_15
REMARK    5  A    between atoms: C_19  and  O_23
REMARK    6  A    between atoms: O_23  and  C_24
REMARK    7  A    between atoms: C_24  and  C_25
REMARK                            x       y       z     vdW  Elec       q    Type
REMARK                         _______ _______ _______ _____ _____    ______ ____
ROOT
ATOM     14  N   UNL     1      -1.131   0.660  24.074  0.00  0.00    -0.074 NA
ENDROOT
BRANCH  14  15
ATOM     15  C   UNL     1      -0.356   0.923  23.969  0.00  0.00    +0.157 C 
ATOM     16  C   UNL     1      -0.043   1.635  24.246  0.00  0.00    +0.164 C 
ATOM     17  O   UNL     1       0.748   1.672  24.016  0.00  0.00    -0.350 OA
ATOM     18  C   UNL     1       0.925   0.984  23.597  0.00  0.00    +0.173 C 
ATOM     19  C   UNL     1       1.522   0.581  23.196  0.00  0.00    +0.175 C 
ATOM     20  C   UNL     1       1.210  -0.130  22.919  0.00  0.00    +0.174 C 
ATOM     21  O   UNL     1       0.419  -0.167  23.149  0.00  0.00    -0.349 OA
ATOM     22  C   UNL     1       0.242   0.521  23.568  0.00  0.00    +0.165 C 
BRANCH  19  23
ATOM     23  O   UNL     1       2.297   0.844  23.090  0.00  0.00    -0.342 OA
BRANCH  23  24
ATOM     24  C   UNL     1       2.877   0.322  22.821  0.00  0.00    +0.230 C 
BRANCH  24  25
ATOM     25  C   UNL     1       3.634   0.601  22.647  0.00  0.00    +0.291 C 
ATOM     26  N   UNL     1       4.183   0.710  23.254  0.00  0.00    -0.086 NA
ATOM     27  O   UNL     1       3.842   0.770  21.867  0.00  0.00    -0.269 OA
ENDBRANCH  24  25
ENDBRANCH  23  24
ENDBRANCH  19  23
ENDBRANCH  14  15
BRANCH  14  11
ATOM     11  S   UNL     1      -1.733   1.202  24.232  0.00  0.00    +0.077 S 
ATOM     12  O   UNL     1      -1.827   1.334  23.423  0.00  0.00    -0.152 OA
ATOM     13  O   UNL     1      -1.639   1.071  25.041  0.00  0.00    -0.152 OA
BRANCH  11   8
ATOM      5  C   UNL     1      -3.539   2.826  24.706  0.00  0.00    +0.073 A 
ATOM      6  C   UNL     1      -2.946   2.695  25.263  0.00  0.00    +0.018 A 
ATOM      7  C   UNL     1      -2.343   2.154  25.105  0.00  0.00    +0.021 A 
ATOM      8  C   UNL     1      -2.335   1.743  24.390  0.00  0.00    +0.124 A 
ATOM      9  C   UNL     1      -2.929   1.874  23.832  0.00  0.00    +0.021 A 
ATOM     10  C   UNL     1      -3.531   2.416  23.990  0.00  0.00    +0.018 A 
BRANCH   5   4
ATOM      1  C   UNL     1      -5.414   3.671  25.437  0.00  0.00    +0.097 C 
ATOM      2  C   UNL     1      -4.812   3.130  25.280  0.00  0.00    +0.246 C 
ATOM      3  O   UNL     1      -4.880   2.350  25.540  0.00  0.00    -0.273 OA
ATOM      4  N   UNL     1      -4.142   3.368  24.863  0.00  0.00    -0.179 NA
ENDBRANCH   5   4
ENDBRANCH  11   8
ENDBRANCH  14  11
TORSDOF 7
ENDMDL
MODEL 5
REMARK VINA RESULT:      -8.1      1.005      5.475
REMARK  Name = 
REMARK  7 active torsions:
REMARK  status: ('A' for Active; 'I' for Inactive)
REMARK    1  A    between atoms: N_4  and  C_5
REMARK    2  A    between atoms: C_8  and  S_11
REMARK    3  A    between atoms: S_11  and  N_14
REMARK    4  A    between atoms: N_14  and  C_15
REMARK    5  A    between atoms: C_19  and  O_23
REMARK    6  A    between atoms: O_23  and  C_24
REMARK    7  A    between atoms: C_24  and  C_25
REMARK                            x       y       z     vdW  Elec       q    Type
REMARK                         _______ _______ _______ _____ _____    ______ ____
ROOT
ATOM     14  N   UNL     1      -4.369   1.936  24.866  0.00  0.00    -0.074 NA
ENDROOT
BRANCH  14  15
ATOM     15  C   UNL     1      -4.119   1.227  24.527  0.00  0.00    +0.157 C 
ATOM     16  C   UNL     1      -3.766   1.142  23.786  0.00  0.00    +0.164 C 
ATOM     17  O   UNL     1      -3.607   0.341  23.670  0.00  0.00    -0.350 OA
ATOM     18  C   UNL     1      -3.861  -0.069  24.338  0.00  0.00    +0.173 C 
ATOM     19  C   UNL     1      -3.920  -0.818  24.681  0.00  0.00    +0.175 C 
ATOM     20  C   UNL     1      -4.272  -0.733  25.422  0.00  0.00    +0.174 C 
ATOM     21  O   UNL     1      -4.432   0.068  25.538  0.00  0.00    -0.349 OA
ATOM     22  C   UNL     1      -4.177   0.478  24.868  0.00  0.00    +0.165 C 
BRANCH  19  23
ATOM     23  O   UNL     1      -3.670  -1.527  24.341  0.00  0.00    -0.342 OA
BRANCH  23  24
ATOM     24  C   UNL     1      -3.442  -2.157  24.823  0.00  0.00    +0.230 C 
BRANCH  24  25
ATOM     25  C   UNL     1      -3.128  -2.842  24.485  0.00  0.00    +0.291 C 
ATOM     26  N   UNL     1      -2.314  -2.908  24.370  0.00  0.00    -0.086 NA
ATOM     27  O   UNL     1      -3.628  -3.459  24.263  0.00  0.00    -0.269 OA
ENDBRANCH  24  25
ENDBRANCH  23  24
ENDBRANCH  19  23
ENDBRANCH  14  15
BRANCH  14  11
ATOM     11  S   UNL     1      -3.844   2.569  24.934  0.00  0.00    +0.077 S 
ATOM     12  O   UNL     1      -3.974   2.763  24.143  0.00  0.00    -0.152 OA
ATOM     13  O   UNL     1      -3.714   2.376  25.726  0.00  0.00    -0.152 OA
BRANCH  11   8
ATOM      5  C   UNL     1      -2.269   4.467  25.141  0.00  0.00    +0.073 A 
ATOM      6  C   UNL     1      -2.833   4.463  24.540  0.00  0.00    +0.018 A 
ATOM      7  C   UNL     1      -3.359   3.831  24.470  0.00  0.00    +0.021 A 
ATOM      8  C   UNL     1      -3.319   3.202  25.003  0.00  0.00    +0.124 A 
ATOM      9  C   UNL     1      -2.755   3.205  25.605  0.00  0.00    +0.021 A 
ATOM     10  C   UNL     1      -2.230   3.838  25.674  0.00  0.00    +0.018 A 
BRANCH   5   4
ATOM      1  C   UNL     1      -0.466   5.682  24.947  0.00  0.00    +0.097 C 
ATOM      2  C   UNL     1      -0.992   5.050  24.877  0.00  0.00    +0.246 C 
ATOM      3  O   UNL     1      -0.764   4.367  24.474  0.00  0.00    -0.273 OA
ATOM      4  N   UNL     1      -1.744   5.099  25.211  0.00  0.00    -0.179 NA
ENDBRANCH   5   4
ENDBRANCH  11   8
ENDBRANCH  14  11
TORSDOF 7
ENDMDL
