MODEL 1
REMARK VINA RESULT:      -9.8      0.000      0.000
REMARK  Name = 
REMARK  6 active torsions:
REMARK  status: ('A' for Active; 'I' for Inactive)
REMARK    1  A    between atoms: C_7  and  N_10
REMARK    2  A    between atoms: N_10  and  C_11
REMARK    3  A    between atoms: C_14  and  C_15
REMARK    4  A    between atoms: C_15  and  N_16
REMARK    5  A    between atoms: N_16  and  S_17
REMARK    6  A    between atoms: S_17  and  C_20
REMARK                            x       y       z     vdW  Elec       q    Type
REMARK                         _______ _______ _______ _____ _____    ______ ____
ROOT
ATOM     11  C   UNL     1      -0.896  -0.233  24.938  0.00  0.00    +0.135 C 
ATOM     12  C   UNL     1      -1.075  -0.167  25.740  0.00  0.00    +0.162 C 
ATOM     13  O   UNL     1      -1.002   0.626  25.953  0.00  0.00    -0.350 OA
ATOM     14  C   UNL     1      -0.778   1.051  25.282  0.00  0.00    +0.166 C 
ATOM     26  C   UNL     1      -0.712   0.520  24.654  0.00  0.00    +0.199 C 
ATOM     27  O   UNL     1      -0.501   0.709  23.880  0.00  0.00    -0.219 OA
ENDROOT
BRANCH  11  10
ATOM     10  N   UNL     1      -0.900  -0.929  24.495  0.00  0.00    -0.216 NA
BRANCH  10   7
ATOM      1  C   UNL     1      -4.304  -2.495  23.989  0.00  0.00    +0.095 C 
ATOM      2  C   UNL     1      -3.626  -2.785  24.359  0.00  0.00    +0.226 C 
ATOM      3  O   UNL     1      -3.628  -3.539  24.694  0.00  0.00    -0.275 OA
ATOM      4  N   UNL     1      -2.944  -2.321  24.393  0.00  0.00    -0.279 N 
ATOM      5  C   UNL     1      -2.266  -2.610  24.762  0.00  0.00    +0.095 C 
ATOM      6  C   UNL     1      -1.585  -2.147  24.797  0.00  0.00    +0.039 C 
ATOM      7  C   UNL     1      -1.582  -1.393  24.461  0.00  0.00    +0.076 C 
ATOM      8  C   UNL     1      -2.259  -1.103  24.092  0.00  0.00    +0.039 C 
ATOM      9  C   UNL     1      -2.941  -1.568  24.057  0.00  0.00    +0.095 C 
ENDBRANCH  10   7
ENDBRANCH  11  10
BRANCH  14  15
ATOM     15  C   UNL     1      -0.643   1.864  25.246  0.00  0.00    +0.148 C 
BRANCH  15  16
ATOM     16  N   UNL     1      -1.055   2.374  25.747  0.00  0.00    -0.075 NA
BRANCH  16  17
ATOM     17  S   UNL     1      -1.139   3.170  25.548  0.00  0.00    +0.077 S 
ATOM     18  O   UNL     1      -0.339   3.294  25.708  0.00  0.00    -0.152 OA
ATOM     19  O   UNL     1      -1.939   3.045  25.388  0.00  0.00    -0.152 OA
BRANCH  17  20
ATOM     20  C   UNL     1      -1.222   3.966  25.349  0.00  0.00    +0.124 A 
ATOM     21  C   UNL     1      -0.619   4.354  24.940  0.00  0.00    +0.020 A 
ATOM     22  C   UNL     1      -0.702   5.151  24.740  0.00  0.00    +0.001 A 
ATOM     23  C   UNL     1      -1.389   5.558  24.949  0.00  0.00    +0.000 A 
ATOM     24  C   UNL     1      -1.991   5.170  25.357  0.00  0.00    +0.001 A 
ATOM     25  C   UNL     1      -1.908   4.374  25.557  0.00  0.00    +0.020 A 
ENDBRANCH  17  20
ENDBRANCH  16  17
ENDBRANCH  15  16
ENDBRANCH  14  15
TORSDOF 6
ENDMDL
MODEL 2
REMARK VINA RESULT:      -9.3      1.797      2.297
REMARK  Name = 
REMARK  6 active torsions:
REMARK  status: ('A' for Active; 'I' for Inactive)
REMARK    1  A    between atoms: C_7  and  N_10
REMARK    2  A    between atoms: N_10  and  C_11
REMARK    3  A    between atoms: C_14  and  C_15
REMARK    4  A    between atoms: C_15  and  N_16
REMARK    5  A    between atoms: N_16  and  S_17
REMARK    6  A    between atoms: S_17  and  C_20
REMARK                            x       y       z     vdW  Elec       q    Type
REMARK                         _______ _______ _______ _____ _____    ______ ____
ROOT
ATOM     11  C   UNL     1      -4.029   0.760  24.405  0.00  0.00    +0.135 C 
ATOM     12  C   UNL     1      -3.407   0.743  23.864  0.00  0.00    +0.162 C 
ATOM     13  O   UNL     1      -3.028   1.474  23.888  0.00  0.00    -0.350 OA
ATOM     14  C   UNL     1      -3.416   1.945  24.443  0.00  0.00    +0.166 C 
ATOM     26  C   UNL     1      -4.035   1.504  24.763  0.00  0.00    +0.199 C 
ATOM     27  O   UNL     1      -4.566   1.760  25.339  0.00  0.00    -0.219 OA
ENDROOT
BRANCH  11  10
ATOM     10  N   UNL     1      -4.554   0.143  24.561  0.00  0.00    -0.216 NA
BRANCH  10   7
ATOM      1  C   UNL     1      -3.072  -3.254  25.305  0.00  0.00    +0.095 C 
ATOM      2  C   UNL     1      -3.467  -2.972  24.638  0.00  0.00    +0.226 C 
ATOM      3  O   UNL     1      -3.591  -3.468  23.990  0.00  0.00    -0.275 OA
ATOM      4  N   UNL     1      -3.739  -2.193  24.618  0.00  0.00    -0.279 N 
ATOM      5  C   UNL     1      -4.134  -1.911  23.953  0.00  0.00    +0.095 C 
ATOM      6  C   UNL     1      -4.406  -1.132  23.933  0.00  0.00    +0.039 C 
ATOM      7  C   UNL     1      -4.282  -0.635  24.581  0.00  0.00    +0.076 C 
ATOM      8  C   UNL     1      -3.887  -0.917  25.246  0.00  0.00    +0.039 C 
ATOM      9  C   UNL     1      -3.615  -1.697  25.266  0.00  0.00    +0.095 C 
ENDBRANCH  10   7
ENDBRANCH  11  10
BRANCH  14  15
ATOM     15  C   UNL     1      -3.219   2.721  24.644  0.00  0.00    +0.148 C 
BRANCH  15  16
ATOM     16  N   UNL     1      -2.604   2.867  25.174  0.00  0.00    -0.075 NA
BRANCH  16  17
ATOM     17  S   UNL     1      -2.161   3.560  25.110  0.00  0.00    +0.077 S 
ATOM     18  O   UNL     1      -1.562   3.219  25.564  0.00  0.00    -0.152 OA
ATOM     19  O   UNL     1      -2.760   3.900  24.656  0.00  0.00    -0.152 OA
BRANCH  17  20
ATOM     20  C   UNL     1      -1.718   4.252  25.046  0.00  0.00    +0.124 A 
ATOM     21  C   UNL     1      -2.058   4.979  25.240  0.00  0.00    +0.020 A 
ATOM     22  C   UNL     1      -1.615   5.672  25.177  0.00  0.00    +0.001 A 
ATOM     23  C   UNL     1      -0.832   5.639  24.919  0.00  0.00    +0.000 A 
ATOM     24  C   UNL     1      -0.492   4.913  24.725  0.00  0.00    +0.001 A 
ATOM     25  C   UNL     1      -0.935   4.219  24.789  0.00  0.00    +0.020 A 
ENDBRANCH  17  20
ENDBRANCH  16  17
ENDBRANCH  15  16
ENDBRANCH  14  15
TORSDOF 6
ENDMDL
MODEL 3
REMARK VINA RESULT:      -9.3      2.276      6.211
REMARK  Name = 
REMARK  6 active torsions:
REMARK  status: ('A' for Active; 'I' for Inactive)
REMARK    1  A    between atoms: C_7  and  N_10
REMARK    2  A    between atoms: N_10  and  C_11
REMARK    3  A    between atoms: C_14  and  C_15
REMARK    4  A    between atoms: C_15  and  N_16
REMARK    5  A    between atoms: N_16  and  S_17
REMARK    6  A    between atoms: S_17  and  C_20
REMARK                            x       y       z     vdW  Elec       q    Type
REMARK                         _______ _______ _______ _____ _____    ______ ____
ROOT
ATOM     11  C   UNL     1      -3.921   2.529  24.733  0.00  0.00    +0.135 C 
ATOM     12  C   UNL     1      -3.799   2.466  23.920  0.00  0.00    +0.162 C 
ATOM     13  O   UNL     1      -3.925   1.681  23.704  0.00  0.00    -0.350 OA
ATOM     14  C   UNL     1      -4.125   1.258  24.383  0.00  0.00    +0.166 C 
ATOM     26  C   UNL     1      -4.123   1.782  25.020  0.00  0.00    +0.199 C 
ATOM     27  O   UNL     1      -4.292   1.593  25.804  0.00  0.00    -0.219 OA
ENDROOT
BRANCH  11  10
ATOM     10  N   UNL     1      -3.853   3.218  25.182  0.00  0.00    -0.216 NA
BRANCH  10   7
ATOM      1  C   UNL     1      -1.057   5.720  24.717  0.00  0.00    +0.095 C 
ATOM      2  C   UNL     1      -1.066   4.983  25.088  0.00  0.00    +0.226 C 
ATOM      3  O   UNL     1      -0.379   4.686  25.435  0.00  0.00    -0.275 OA
ATOM      4  N   UNL     1      -1.763   4.541  25.111  0.00  0.00    -0.279 N 
ATOM      5  C   UNL     1      -1.772   3.805  25.481  0.00  0.00    +0.095 C 
ATOM      6  C   UNL     1      -2.468   3.363  25.505  0.00  0.00    +0.039 C 
ATOM      7  C   UNL     1      -3.157   3.660  25.158  0.00  0.00    +0.076 C 
ATOM      8  C   UNL     1      -3.147   4.396  24.788  0.00  0.00    +0.039 C 
ATOM      9  C   UNL     1      -2.450   4.837  24.764  0.00  0.00    +0.095 C 
ENDBRANCH  10   7
ENDBRANCH  11  10
BRANCH  14  15
ATOM     15  C   UNL     1      -4.298   0.451  24.419  0.00  0.00    +0.148 C 
BRANCH  15  16
ATOM     16  N   UNL     1      -3.938  -0.072  23.892  0.00  0.00    -0.075 NA
BRANCH  16  17
ATOM     17  S   UNL     1      -3.855  -0.867  24.093  0.00  0.00    +0.077 S 
ATOM     18  O   UNL     1      -3.035  -0.795  24.040  0.00  0.00    -0.152 OA
ATOM     19  O   UNL     1      -4.675  -0.939  24.146  0.00  0.00    -0.152 OA
BRANCH  17  20
ATOM     20  C   UNL     1      -3.772  -1.663  24.294  0.00  0.00    +0.124 A 
ATOM     21  C   UNL     1      -3.401  -1.873  25.001  0.00  0.00    +0.020 A 
ATOM     22  C   UNL     1      -3.318  -2.669  25.203  0.00  0.00    +0.001 A 
ATOM     23  C   UNL     1      -3.606  -3.254  24.697  0.00  0.00    +0.000 A 
ATOM     24  C   UNL     1      -3.976  -3.044  23.992  0.00  0.00    +0.001 A 
ATOM     25  C   UNL     1      -4.059  -2.248  23.790  0.00  0.00    +0.020 A 
ENDBRANCH  17  20
ENDBRANCH  16  17
ENDBRANCH  15  16
ENDBRANCH  14  15
TORSDOF 6
ENDMDL
MODEL 4
REMARK VINA RESULT:      -9.1      1.465      5.685
REMARK  Name = 
REMARK  6 active torsions:
REMARK  status: ('A' for Active; 'I' for Inactive)
REMARK    1  A    between atoms: C_7  and  N_10
REMARK    2  A    between atoms: N_10  and  C_11
REMARK    3  A    between atoms: C_14  and  C_15
REMARK    4  A    between atoms: C_15  and  N_16
REMARK    5  A    between atoms: N_16  and  S_17
REMARK    6  A    between atoms: S_17  and  C_20
REMARK                            x       y       z     vdW  Elec       q    Type
REMARK                         _______ _______ _______ _____ _____    ______ ____
ROOT
ATOM     11  C   UNL     1      -0.410   1.353  25.139  0.00  0.00    +0.135 C 
ATOM     12  C   UNL     1      -0.644   1.175  25.910  0.00  0.00    +0.162 C 
ATOM     13  O   UNL     1      -1.060   0.464  25.892  0.00  0.00    -0.350 OA
ATOM     14  C   UNL     1      -1.084   0.201  25.110  0.00  0.00    +0.166 C 
ATOM     26  C   UNL     1      -0.682   0.751  24.645  0.00  0.00    +0.199 C 
ATOM     27  O   UNL     1      -0.571   0.706  23.829  0.00  0.00    -0.219 OA
ENDROOT
BRANCH  11  10
ATOM     10  N   UNL     1       0.020   2.017  24.904  0.00  0.00    -0.216 NA
BRANCH  10   7
ATOM      1  C   UNL     1      -1.313   5.520  24.408  0.00  0.00    +0.095 C 
ATOM      2  C   UNL     1      -1.352   5.014  25.059  0.00  0.00    +0.226 C 
ATOM      3  O   UNL     1      -1.733   5.257  25.749  0.00  0.00    -0.275 OA
ATOM      4  N   UNL     1      -1.009   4.264  25.020  0.00  0.00    -0.279 N 
ATOM      5  C   UNL     1      -1.047   3.759  25.670  0.00  0.00    +0.095 C 
ATOM      6  C   UNL     1      -0.705   3.010  25.632  0.00  0.00    +0.039 C 
ATOM      7  C   UNL     1      -0.323   2.766  24.942  0.00  0.00    +0.076 C 
ATOM      8  C   UNL     1      -0.284   3.271  24.292  0.00  0.00    +0.039 C 
ATOM      9  C   UNL     1      -0.627   4.021  24.331  0.00  0.00    +0.095 C 
ENDBRANCH  10   7
ENDBRANCH  11  10
BRANCH  14  15
ATOM     15  C   UNL     1      -1.445  -0.490  24.841  0.00  0.00    +0.148 C 
BRANCH  15  16
ATOM     16  N   UNL     1      -2.015  -0.866  25.306  0.00  0.00    -0.075 NA
BRANCH  16  17
ATOM     17  S   UNL     1      -2.586  -1.344  24.952  0.00  0.00    +0.077 S 
ATOM     18  O   UNL     1      -1.992  -1.843  24.670  0.00  0.00    -0.152 OA
ATOM     19  O   UNL     1      -3.179  -0.845  25.235  0.00  0.00    -0.152 OA
BRANCH  17  20
ATOM     20  C   UNL     1      -3.156  -1.823  24.598  0.00  0.00    +0.124 A 
ATOM     21  C   UNL     1      -3.752  -1.483  24.138  0.00  0.00    +0.020 A 
ATOM     22  C   UNL     1      -4.323  -1.962  23.783  0.00  0.00    +0.001 A 
ATOM     23  C   UNL     1      -4.298  -2.780  23.889  0.00  0.00    +0.000 A 
ATOM     24  C   UNL     1      -3.704  -3.119  24.348  0.00  0.00    +0.001 A 
ATOM     25  C   UNL     1      -3.132  -2.640  24.703  0.00  0.00    +0.020 A 
ENDBRANCH  17  20
ENDBRANCH  16  17
ENDBRANCH  15  16
ENDBRANCH  14  15
TORSDOF 6
ENDMDL
MODEL 5
REMARK VINA RESULT:      -8.6      2.857      4.243
REMARK  Name = 
REMARK  6 active torsions:
REMARK  status: ('A' for Active; 'I' for Inactive)
REMARK    1  A    between atoms: C_7  and  N_10
REMARK    2  A    between atoms: N_10  and  C_11
REMARK    3  A    between atoms: C_14  and  C_15
REMARK    4  A    between atoms: C_15  and  N_16
REMARK    5  A    between atoms: N_16  and  S_17
REMARK    6  A    between atoms: S_17  and  C_20
REMARK                            x       y       z     vdW  Elec       q    Type
REMARK                         _______ _______ _______ _____ _____    ______ ____
ROOT
ATOM     11  C   UNL     1      -0.746   0.431  23.915  0.00  0.00    +0.135 C 
ATOM     12  C   UNL     1      -0.725   1.140  23.495  0.00  0.00    +0.162 C 
ATOM     13  O   UNL     1      -1.413   1.560  23.667  0.00  0.00    -0.350 OA
ATOM     14  C   UNL     1      -1.861   1.110  24.194  0.00  0.00    +0.166 C 
ATOM     26  C   UNL     1      -1.449   0.412  24.347  0.00  0.00    +0.199 C 
ATOM     27  O   UNL     1      -1.696  -0.197  24.845  0.00  0.00    -0.219 OA
ENDROOT
BRANCH  11  10
ATOM     10  N   UNL     1      -0.168  -0.157  23.905  0.00  0.00    -0.216 NA
BRANCH  10   7
ATOM      1  C   UNL     1       3.266   0.841  22.677  0.00  0.00    +0.095 C 
ATOM      2  C   UNL     1       2.688   0.362  22.334  0.00  0.00    +0.226 C 
ATOM      3  O   UNL     1       2.823   0.014  21.599  0.00  0.00    -0.275 OA
ATOM      4  N   UNL     1       1.973   0.232  22.727  0.00  0.00    -0.279 N 
ATOM      5  C   UNL     1       1.396  -0.245  22.385  0.00  0.00    +0.095 C 
ATOM      6  C   UNL     1       0.682  -0.376  22.777  0.00  0.00    +0.039 C 
ATOM      7  C   UNL     1       0.546  -0.027  23.513  0.00  0.00    +0.076 C 
ATOM      8  C   UNL     1       1.124   0.451  23.855  0.00  0.00    +0.039 C 
ATOM      9  C   UNL     1       1.838   0.581  23.462  0.00  0.00    +0.095 C 
ENDBRANCH  10   7
ENDBRANCH  11  10
BRANCH  14  15
ATOM     15  C   UNL     1      -2.593   1.321  24.512  0.00  0.00    +0.148 C 
BRANCH  15  16
ATOM     16  N   UNL     1      -2.956   2.025  24.279  0.00  0.00    -0.075 NA
BRANCH  16  17
ATOM     17  S   UNL     1      -3.682   2.242  24.607  0.00  0.00    +0.077 S 
ATOM     18  O   UNL     1      -3.290   2.589  25.244  0.00  0.00    -0.152 OA
ATOM     19  O   UNL     1      -4.073   1.895  23.968  0.00  0.00    -0.152 OA
BRANCH  17  20
ATOM     20  C   UNL     1      -4.407   2.459  24.934  0.00  0.00    +0.124 A 
ATOM     21  C   UNL     1      -4.529   3.235  25.187  0.00  0.00    +0.020 A 
ATOM     22  C   UNL     1      -5.255   3.452  25.514  0.00  0.00    +0.001 A 
ATOM     23  C   UNL     1      -5.858   2.893  25.588  0.00  0.00    +0.000 A 
ATOM     24  C   UNL     1      -5.735   2.118  25.336  0.00  0.00    +0.001 A 
ATOM     25  C   UNL     1      -5.009   1.901  25.008  0.00  0.00    +0.020 A 
ENDBRANCH  17  20
ENDBRANCH  16  17
ENDBRANCH  15  16
ENDBRANCH  14  15
TORSDOF 6
ENDMDL
