MODEL 1
REMARK VINA RESULT:     -11.8      0.000      0.000
REMARK  Name = 
REMARK  6 active torsions:
REMARK  status: ('A' for Active; 'I' for Inactive)
REMARK    1  A    between atoms: O_2  and  C_3
REMARK    2  A    between atoms: C_6  and  C_9
REMARK    3  A    between atoms: C_12  and  C_14
REMARK    4  A    between atoms: C_19  and  C_21
REMARK    5  A    between atoms: C_24  and  O_25
REMARK    6  A    between atoms: C_27  and  O_28
REMARK                            x       y       z     vdW  Elec       q    Type
REMARK                         _______ _______ _______ _____ _____    ______ ____
ROOT
ATOM     14  C   UNL     1      -3.626   2.533  25.123  0.00  0.00    +0.100 C 
ATOM     15  C   UNL     1      -3.985   3.256  25.293  0.00  0.00    +0.033 C 
ATOM     16  C   UNL     1      -3.393   3.829  25.343  0.00  0.00    +0.094 C 
ATOM     17  N   UNL     1      -2.669   3.460  25.205  0.00  0.00    -0.276 N 
ATOM     18  C   UNL     1      -2.813   2.659  25.069  0.00  0.00    +0.103 C 
ATOM     19  C   UNL     1      -1.930   3.827  25.203  0.00  0.00    +0.249 C 
ATOM     20  O   UNL     1      -1.872   4.637  25.348  0.00  0.00    -0.270 OA
ENDROOT
BRANCH  19  21
ATOM     21  C   UNL     1      -1.249   3.385  25.055  0.00  0.00    +0.057 A 
ATOM     22  C   UNL     1      -1.048   3.182  24.281  0.00  0.00    +0.008 A 
ATOM     23  C   UNL     1      -0.368   2.740  24.133  0.00  0.00    +0.040 A 
ATOM     24  C   UNL     1       0.111   2.499  24.760  0.00  0.00    +0.172 A 
ATOM     27  C   UNL     1      -0.089   2.701  25.534  0.00  0.00    +0.173 A 
ATOM     30  C   UNL     1      -0.770   3.144  25.682  0.00  0.00    +0.045 A 
BRANCH  24  25
ATOM     25  O   UNL     1       0.791   2.056  24.613  0.00  0.00    -0.468 OA
ATOM     26  C   UNL     1       0.870   1.644  23.902  0.00  0.00    +0.253 C 
ENDBRANCH  24  25
BRANCH  27  28
ATOM     28  O   UNL     1       0.390   2.460  26.161  0.00  0.00    -0.468 OA
ATOM     29  C   UNL     1       0.088   2.443  26.929  0.00  0.00    +0.253 C 
ENDBRANCH  27  28
ENDBRANCH  19  21
BRANCH  14  12
ATOM      9  C   UNL     1      -4.243   0.508  24.847  0.00  0.00    +0.250 A 
ATOM     10  N   UNL     1      -4.971   0.891  24.904  0.00  0.00    -0.107 NA
ATOM     11  N   UNL     1      -4.830   1.696  25.014  0.00  0.00    -0.111 NA
ATOM     12  C   UNL     1      -4.013   1.811  25.026  0.00  0.00    +0.228 A 
ATOM     13  O   UNL     1      -3.650   1.077  24.922  0.00  0.00    -0.419 OA
BRANCH   9   6
ATOM      3  C   UNL     1      -3.896  -1.919  24.510  0.00  0.00    +0.139 A 
ATOM      4  C   UNL     1      -3.692  -1.569  25.229  0.00  0.00    +0.037 A 
ATOM      5  C   UNL     1      -3.808  -0.760  25.342  0.00  0.00    +0.008 A 
ATOM      6  C   UNL     1      -4.127  -0.301  24.735  0.00  0.00    +0.055 A 
ATOM      7  C   UNL     1      -4.331  -0.651  24.016  0.00  0.00    +0.008 A 
ATOM      8  C   UNL     1      -4.215  -1.460  23.904  0.00  0.00    +0.037 A 
BRANCH   3   2
ATOM      1  C   UNL     1      -3.070  -3.079  24.625  0.00  0.00    +0.252 C 
ATOM      2  O   UNL     1      -3.780  -2.728  24.397  0.00  0.00    -0.471 OA
ENDBRANCH   3   2
ENDBRANCH   9   6
ENDBRANCH  14  12
TORSDOF 6
ENDMDL
MODEL 2
REMARK VINA RESULT:     -11.3      1.745      3.248
REMARK  Name = 
REMARK  6 active torsions:
REMARK  status: ('A' for Active; 'I' for Inactive)
REMARK    1  A    between atoms: O_2  and  C_3
REMARK    2  A    between atoms: C_6  and  C_9
REMARK    3  A    between atoms: C_12  and  C_14
REMARK    4  A    between atoms: C_19  and  C_21
REMARK    5  A    between atoms: C_24  and  O_25
REMARK    6  A    between atoms: C_27  and  O_28
REMARK                            x       y       z     vdW  Elec       q    Type
REMARK                         _______ _______ _______ _____ _____    ______ ____
ROOT
ATOM     14  C   UNL     1      -1.030   1.539  25.542  0.00  0.00    +0.100 C 
ATOM     15  C   UNL     1      -0.293   1.911  25.563  0.00  0.00    +0.033 C 
ATOM     16  C   UNL     1      -0.416   2.724  25.487  0.00  0.00    +0.094 C 
ATOM     17  N   UNL     1      -1.228   2.853  25.418  0.00  0.00    -0.276 N 
ATOM     18  C   UNL     1      -1.607   2.121  25.452  0.00  0.00    +0.103 C 
ATOM     19  C   UNL     1      -1.596   3.587  25.331  0.00  0.00    +0.249 C 
ATOM     20  O   UNL     1      -1.142   4.275  25.306  0.00  0.00    -0.270 OA
ENDROOT
BRANCH  19  21
ATOM     21  C   UNL     1      -2.417   3.631  25.268  0.00  0.00    +0.057 A 
ATOM     22  C   UNL     1      -2.876   3.759  25.942  0.00  0.00    +0.008 A 
ATOM     23  C   UNL     1      -3.698   3.803  25.879  0.00  0.00    +0.040 A 
ATOM     24  C   UNL     1      -4.060   3.720  25.143  0.00  0.00    +0.172 A 
ATOM     27  C   UNL     1      -3.602   3.592  24.469  0.00  0.00    +0.173 A 
ATOM     30  C   UNL     1      -2.780   3.547  24.531  0.00  0.00    +0.045 A 
BRANCH  24  25
ATOM     25  O   UNL     1      -4.881   3.764  25.080  0.00  0.00    -0.468 OA
ATOM     26  C   UNL     1      -5.354   3.623  25.742  0.00  0.00    +0.253 C 
ENDBRANCH  24  25
BRANCH  27  28
ATOM     28  O   UNL     1      -3.964   3.508  23.733  0.00  0.00    -0.468 OA
ATOM     29  C   UNL     1      -3.604   3.055  23.145  0.00  0.00    +0.253 C 
ENDBRANCH  27  28
ENDBRANCH  19  21
BRANCH  14  12
ATOM      9  C   UNL     1      -1.707  -0.484  25.450  0.00  0.00    +0.250 A 
ATOM     10  N   UNL     1      -1.038  -0.560  25.926  0.00  0.00    -0.107 NA
ATOM     11  N   UNL     1      -0.702   0.187  26.019  0.00  0.00    -0.111 NA
ATOM     12  C   UNL     1      -1.164   0.727  25.600  0.00  0.00    +0.228 A 
ATOM     13  O   UNL     1      -1.785   0.312  25.248  0.00  0.00    -0.419 OA
BRANCH   9   6
ATOM      3  C   UNL     1      -3.214  -2.318  24.749  0.00  0.00    +0.139 A 
ATOM      4  C   UNL     1      -3.486  -1.734  25.265  0.00  0.00    +0.037 A 
ATOM      5  C   UNL     1      -2.984  -1.122  25.499  0.00  0.00    +0.008 A 
ATOM      6  C   UNL     1      -2.209  -1.095  25.216  0.00  0.00    +0.055 A 
ATOM      7  C   UNL     1      -1.937  -1.678  24.701  0.00  0.00    +0.008 A 
ATOM      8  C   UNL     1      -2.439  -2.290  24.468  0.00  0.00    +0.037 A 
BRANCH   3   2
ATOM      1  C   UNL     1      -4.235  -2.818  23.886  0.00  0.00    +0.252 C 
ATOM      2  O   UNL     1      -3.716  -2.929  24.516  0.00  0.00    -0.471 OA
ENDBRANCH   3   2
ENDBRANCH   9   6
ENDBRANCH  14  12
TORSDOF 6
ENDMDL
MODEL 3
REMARK VINA RESULT:     -10.0      1.921      4.007
REMARK  Name = 
REMARK  6 active torsions:
REMARK  status: ('A' for Active; 'I' for Inactive)
REMARK    1  A    between atoms: O_2  and  C_3
REMARK    2  A    between atoms: C_6  and  C_9
REMARK    3  A    between atoms: C_12  and  C_14
REMARK    4  A    between atoms: C_19  and  C_21
REMARK    5  A    between atoms: C_24  and  O_25
REMARK    6  A    between atoms: C_27  and  O_28
REMARK                            x       y       z     vdW  Elec       q    Type
REMARK                         _______ _______ _______ _____ _____    ______ ____
ROOT
ATOM     14  C   UNL     1      -3.054  -0.923  24.817  0.00  0.00    +0.100 C 
ATOM     15  C   UNL     1      -3.015  -1.729  24.993  0.00  0.00    +0.033 C 
ATOM     16  C   UNL     1      -2.219  -1.948  25.006  0.00  0.00    +0.094 C 
ATOM     17  N   UNL     1      -1.767  -1.278  24.838  0.00  0.00    -0.276 N 
ATOM     18  C   UNL     1      -2.284  -0.645  24.722  0.00  0.00    +0.103 C 
ATOM     19  C   UNL     1      -0.944  -1.247  24.795  0.00  0.00    +0.249 C 
ATOM     20  O   UNL     1      -0.498  -1.929  24.925  0.00  0.00    -0.270 OA
ENDROOT
BRANCH  19  21
ATOM     21  C   UNL     1      -0.567  -0.534  24.622  0.00  0.00    +0.057 A 
ATOM     22  C   UNL     1      -0.590   0.087  25.164  0.00  0.00    +0.008 A 
ATOM     23  C   UNL     1      -0.212   0.800  24.991  0.00  0.00    +0.040 A 
ATOM     24  C   UNL     1       0.188   0.891  24.275  0.00  0.00    +0.172 A 
ATOM     27  C   UNL     1       0.211   0.270  23.733  0.00  0.00    +0.173 A 
ATOM     30  C   UNL     1      -0.166  -0.443  23.906  0.00  0.00    +0.045 A 
BRANCH  24  25
ATOM     25  O   UNL     1       0.565   1.604  24.102  0.00  0.00    -0.468 OA
ATOM     26  C   UNL     1       0.375   2.286  24.526  0.00  0.00    +0.253 C 
ENDBRANCH  24  25
BRANCH  27  28
ATOM     28  O   UNL     1       0.612   0.361  23.017  0.00  0.00    -0.468 OA
ATOM     29  C   UNL     1       1.053  -0.264  22.709  0.00  0.00    +0.253 C 
ENDBRANCH  27  28
ENDBRANCH  19  21
BRANCH  14  12
ATOM      9  C   UNL     1      -4.617   0.531  24.832  0.00  0.00    +0.250 A 
ATOM     10  N   UNL     1      -4.991  -0.101  24.459  0.00  0.00    -0.107 NA
ATOM     11  N   UNL     1      -4.452  -0.724  24.407  0.00  0.00    -0.111 NA
ATOM     12  C   UNL     1      -3.744  -0.475  24.749  0.00  0.00    +0.228 A 
ATOM     13  O   UNL     1      -3.846   0.300  25.012  0.00  0.00    -0.419 OA
BRANCH   9   6
ATOM      3  C   UNL     1      -5.629   2.735  25.327  0.00  0.00    +0.139 A 
ATOM      4  C   UNL     1      -5.028   2.674  24.765  0.00  0.00    +0.037 A 
ATOM      5  C   UNL     1      -4.691   1.939  24.600  0.00  0.00    +0.008 A 
ATOM      6  C   UNL     1      -4.954   1.266  24.997  0.00  0.00    +0.055 A 
ATOM      7  C   UNL     1      -5.554   1.327  25.559  0.00  0.00    +0.008 A 
ATOM      8  C   UNL     1      -5.892   2.061  25.724  0.00  0.00    +0.037 A 
BRANCH   3   2
ATOM      1  C   UNL     1      -5.485   4.130  25.598  0.00  0.00    +0.252 C 
ATOM      2  O   UNL     1      -5.967   3.469  25.492  0.00  0.00    -0.471 OA
ENDBRANCH   3   2
ENDBRANCH   9   6
ENDBRANCH  14  12
TORSDOF 6
ENDMDL
MODEL 4
REMARK VINA RESULT:      -9.6      1.742      2.637
REMARK  Name = 
REMARK  6 active torsions:
REMARK  status: ('A' for Active; 'I' for Inactive)
REMARK    1  A    between atoms: O_2  and  C_3
REMARK    2  A    between atoms: C_6  and  C_9
REMARK    3  A    between atoms: C_12  and  C_14
REMARK    4  A    between atoms: C_19  and  C_21
REMARK    5  A    between atoms: C_24  and  O_25
REMARK    6  A    between atoms: C_27  and  O_28
REMARK                            x       y       z     vdW  Elec       q    Type
REMARK                         _______ _______ _______ _____ _____    ______ ____
ROOT
ATOM     14  C   UNL     1      -4.928   1.148  24.880  0.00  0.00    +0.100 C 
ATOM     15  C   UNL     1      -5.735   1.292  24.982  0.00  0.00    +0.033 C 
ATOM     16  C   UNL     1      -5.835   2.100  25.117  0.00  0.00    +0.094 C 
ATOM     17  N   UNL     1      -5.090   2.455  25.099  0.00  0.00    -0.276 N 
ATOM     18  C   UNL     1      -4.530   1.867  24.953  0.00  0.00    +0.103 C 
ATOM     19  C   UNL     1      -4.933   3.258  25.208  0.00  0.00    +0.249 C 
ATOM     20  O   UNL     1      -5.553   3.783  25.351  0.00  0.00    -0.270 OA
ENDROOT
BRANCH  19  21
ATOM     21  C   UNL     1      -4.157   3.535  25.175  0.00  0.00    +0.057 A 
ATOM     22  C   UNL     1      -3.800   3.675  24.445  0.00  0.00    +0.008 A 
ATOM     23  C   UNL     1      -3.023   3.951  24.411  0.00  0.00    +0.040 A 
ATOM     24  C   UNL     1      -2.604   4.088  25.109  0.00  0.00    +0.172 A 
ATOM     27  C   UNL     1      -2.961   3.948  25.839  0.00  0.00    +0.173 A 
ATOM     30  C   UNL     1      -3.738   3.671  25.873  0.00  0.00    +0.045 A 
BRANCH  24  25
ATOM     25  O   UNL     1      -1.828   4.365  25.076  0.00  0.00    -0.468 OA
ATOM     26  C   UNL     1      -1.328   4.121  24.466  0.00  0.00    +0.253 C 
ENDBRANCH  24  25
BRANCH  27  28
ATOM     28  O   UNL     1      -2.542   4.085  26.536  0.00  0.00    -0.468 OA
ATOM     29  C   UNL     1      -2.947   4.186  27.249  0.00  0.00    +0.253 C 
ENDBRANCH  27  28
ENDBRANCH  19  21
BRANCH  14  12
ATOM      9  C   UNL     1      -3.698  -0.585  24.680  0.00  0.00    +0.250 A 
ATOM     10  N   UNL     1      -4.398  -0.845  24.331  0.00  0.00    -0.107 NA
ATOM     11  N   UNL     1      -4.945  -0.228  24.363  0.00  0.00    -0.111 NA
ATOM     12  C   UNL     1      -4.582   0.414  24.733  0.00  0.00    +0.228 A 
ATOM     13  O   UNL     1      -3.811   0.194  24.929  0.00  0.00    -0.419 OA
BRANCH   9   6
ATOM      3  C   UNL     1      -1.621  -1.906  24.938  0.00  0.00    +0.139 A 
ATOM      4  C   UNL     1      -1.613  -1.092  25.078  0.00  0.00    +0.037 A 
ATOM      5  C   UNL     1      -2.305  -0.652  24.992  0.00  0.00    +0.008 A 
ATOM      6  C   UNL     1      -3.005  -1.025  24.766  0.00  0.00    +0.055 A 
ATOM      7  C   UNL     1      -3.014  -1.837  24.626  0.00  0.00    +0.008 A 
ATOM      8  C   UNL     1      -2.321  -2.278  24.712  0.00  0.00    +0.037 A 
BRANCH   3   2
ATOM      1  C   UNL     1      -0.227  -1.973  25.242  0.00  0.00    +0.252 C 
ATOM      2  O   UNL     1      -0.928  -2.346  25.024  0.00  0.00    -0.471 OA
ENDBRANCH   3   2
ENDBRANCH   9   6
ENDBRANCH  14  12
TORSDOF 6
ENDMDL
