MODEL 1
REMARK VINA RESULT:     -12.2      0.000      0.000
REMARK  Name = 
REMARK  6 active torsions:
REMARK  status: ('A' for Active; 'I' for Inactive)
REMARK    1  A    between atoms: C_3  and  C_8
REMARK    2  A    between atoms: C_11  and  C_13
REMARK    3  A    between atoms: N_17  and  C_18
REMARK    4  A    between atoms: C_18  and  C_19
REMARK    5  A    between atoms: C_19  and  C_20
REMARK    6  A    between atoms: C_20  and  C_21
REMARK                            x       y       z     vdW  Elec       q    Type
REMARK                         _______ _______ _______ _____ _____    ______ ____
ROOT
ATOM     13  C   UNL     1      -4.760   2.248  25.044  0.00  0.00    +0.138 C 
ATOM     14  C   UNL     1      -5.406   2.505  25.489  0.00  0.00    +0.027 C 
ATOM     15  C   UNL     1      -5.862   1.845  25.680  0.00  0.00    +0.019 C 
ATOM     16  C   UNL     1      -5.498   1.180  25.353  0.00  0.00    +0.073 C 
ATOM     17  N   UNL     1      -4.817   1.430  24.960  0.00  0.00    -0.266 NA
ENDROOT
BRANCH  13  11
ATOM      8  C   UNL     1      -3.040   3.441  24.625  0.00  0.00    +0.208 A 
ATOM      9  N   UNL     1      -3.442   3.482  23.905  0.00  0.00    -0.056 NA
ATOM     10  O   UNL     1      -4.135   3.040  23.975  0.00  0.00    -0.336 OA
ATOM     11  C   UNL     1      -4.161   2.726  24.737  0.00  0.00    +0.251 A 
ATOM     12  N   UNL     1      -3.485   2.974  25.139  0.00  0.00    -0.189 NA
BRANCH   8   3
ATOM      1  N   UNL     1      -1.625   2.729  24.164  0.00  0.00    -0.107 NA
ATOM      2  C   UNL     1      -1.612   3.448  24.569  0.00  0.00    +0.176 A 
ATOM      3  C   UNL     1      -2.320   3.804  24.799  0.00  0.00    +0.093 A 
ATOM      4  C   UNL     1      -2.307   4.522  25.204  0.00  0.00    +0.107 A 
ATOM      5  N   UNL     1      -1.587   4.885  25.379  0.00  0.00    -0.222 NA
ATOM      6  C   UNL     1      -0.880   4.530  25.148  0.00  0.00    +0.200 A 
ATOM      7  N   UNL     1      -0.892   3.811  24.743  0.00  0.00    -0.206 NA
ENDBRANCH   8   3
ENDBRANCH  13  11
BRANCH  17  18
ATOM     18  C   UNL     1      -4.286   0.945  24.555  0.00  0.00    +0.073 C 
BRANCH  18  19
ATOM     19  C   UNL     1      -4.345   0.124  24.620  0.00  0.00    +0.022 C 
BRANCH  19  20
ATOM     20  C   UNL     1      -3.899  -0.361  24.124  0.00  0.00    +0.028 C 
BRANCH  20  21
ATOM     21  C   UNL     1      -3.813  -1.162  24.300  0.00  0.00    -0.022 A 
ATOM     22  C   UNL     1      -3.340  -1.396  24.935  0.00  0.00    -0.004 A 
ATOM     23  C   UNL     1      -3.254  -2.198  25.111  0.00  0.00    -0.000 A 
ATOM     24  C   UNL     1      -3.640  -2.765  24.653  0.00  0.00    -0.000 A 
ATOM     25  C   UNL     1      -4.112  -2.531  24.018  0.00  0.00    -0.000 A 
ATOM     26  C   UNL     1      -4.199  -1.729  23.842  0.00  0.00    -0.004 A 
ENDBRANCH  20  21
ENDBRANCH  19  20
ENDBRANCH  18  19
ENDBRANCH  17  18
TORSDOF 6
ENDMDL
MODEL 2
REMARK VINA RESULT:     -11.4      1.483      4.949
REMARK  Name = 
REMARK  6 active torsions:
REMARK  status: ('A' for Active; 'I' for Inactive)
REMARK    1  A    between atoms: C_3  and  C_8
REMARK    2  A    between atoms: C_11  and  C_13
REMARK    3  A    between atoms: N_17  and  C_18
REMARK    4  A    between atoms: C_18  and  C_19
REMARK    5  A    between atoms: C_19  and  C_20
REMARK    6  A    between atoms: C_20  and  C_21
REMARK                            x       y       z     vdW  Elec       q    Type
REMARK                         _______ _______ _______ _____ _____    ______ ____
ROOT
ATOM     13  C   UNL     1      -4.704   1.766  24.854  0.00  0.00    +0.138 C 
ATOM     14  C   UNL     1      -5.521   1.883  24.875  0.00  0.00    +0.027 C 
ATOM     15  C   UNL     1      -5.664   2.612  25.232  0.00  0.00    +0.019 C 
ATOM     16  C   UNL     1      -4.936   2.946  25.431  0.00  0.00    +0.073 C 
ATOM     17  N   UNL     1      -4.343   2.423  25.197  0.00  0.00    -0.266 NA
ENDROOT
BRANCH  13  11
ATOM      8  C   UNL     1      -3.889  -0.144  24.358  0.00  0.00    +0.208 A 
ATOM      9  N   UNL     1      -3.553   0.330  23.771  0.00  0.00    -0.056 NA
ATOM     10  O   UNL     1      -3.818   1.103  23.886  0.00  0.00    -0.336 OA
ATOM     11  C   UNL     1      -4.317   1.107  24.543  0.00  0.00    +0.251 A 
ATOM     12  N   UNL     1      -4.361   0.337  24.834  0.00  0.00    -0.189 NA
BRANCH   8   3
ATOM      1  N   UNL     1      -2.714  -0.698  25.375  0.00  0.00    -0.107 NA
ATOM      2  C   UNL     1      -3.185  -1.233  24.960  0.00  0.00    +0.176 A 
ATOM      3  C   UNL     1      -3.774  -0.955  24.451  0.00  0.00    +0.093 A 
ATOM      4  C   UNL     1      -4.245  -1.490  24.036  0.00  0.00    +0.107 A 
ATOM      5  N   UNL     1      -4.129  -2.301  24.129  0.00  0.00    -0.222 NA
ATOM      6  C   UNL     1      -3.542  -2.578  24.637  0.00  0.00    +0.200 A 
ATOM      7  N   UNL     1      -3.070  -2.044  25.053  0.00  0.00    -0.206 NA
ENDBRANCH   8   3
ENDBRANCH  13  11
BRANCH  17  18
ATOM     18  C   UNL     1      -3.531   2.537  25.290  0.00  0.00    +0.073 C 
BRANCH  18  19
ATOM     19  C   UNL     1      -3.229   3.299  25.380  0.00  0.00    +0.022 C 
BRANCH  19  20
ATOM     20  C   UNL     1      -2.509   3.414  25.765  0.00  0.00    +0.028 C 
BRANCH  20  21
ATOM     21  C   UNL     1      -1.963   3.954  25.464  0.00  0.00    -0.022 A 
ATOM     22  C   UNL     1      -2.134   4.761  25.468  0.00  0.00    -0.004 A 
ATOM     23  C   UNL     1      -1.588   5.301  25.167  0.00  0.00    -0.000 A 
ATOM     24  C   UNL     1      -0.870   5.034  24.861  0.00  0.00    -0.000 A 
ATOM     25  C   UNL     1      -0.698   4.226  24.856  0.00  0.00    -0.000 A 
ATOM     26  C   UNL     1      -1.245   3.687  25.157  0.00  0.00    -0.004 A 
ENDBRANCH  20  21
ENDBRANCH  19  20
ENDBRANCH  18  19
ENDBRANCH  17  18
TORSDOF 6
ENDMDL
MODEL 3
REMARK VINA RESULT:     -11.1      2.006      3.105
REMARK  Name = 
REMARK  6 active torsions:
REMARK  status: ('A' for Active; 'I' for Inactive)
REMARK    1  A    between atoms: C_3  and  C_8
REMARK    2  A    between atoms: C_11  and  C_13
REMARK    3  A    between atoms: N_17  and  C_18
REMARK    4  A    between atoms: C_18  and  C_19
REMARK    5  A    between atoms: C_19  and  C_20
REMARK    6  A    between atoms: C_20  and  C_21
REMARK                            x       y       z     vdW  Elec       q    Type
REMARK                         _______ _______ _______ _____ _____    ______ ____
ROOT
ATOM     13  C   UNL     1      -0.333   0.950  24.476  0.00  0.00    +0.138 C 
ATOM     14  C   UNL     1       0.335   0.863  23.999  0.00  0.00    +0.027 C 
ATOM     15  C   UNL     1       0.299   0.121  23.643  0.00  0.00    +0.019 C 
ATOM     16  C   UNL     1      -0.391  -0.252  23.899  0.00  0.00    +0.073 C 
ATOM     17  N   UNL     1      -0.781   0.261  24.414  0.00  0.00    -0.266 NA
ENDROOT
BRANCH  13  11
ATOM      8  C   UNL     1      -0.903   2.836  25.297  0.00  0.00    +0.208 A 
ATOM      9  N   UNL     1      -0.708   2.416  25.981  0.00  0.00    -0.056 NA
ATOM     10  O   UNL     1      -0.471   1.659  25.756  0.00  0.00    -0.336 OA
ATOM     11  C   UNL     1      -0.519   1.611  24.934  0.00  0.00    +0.251 A 
ATOM     12  N   UNL     1      -0.786   2.338  24.651  0.00  0.00    -0.189 NA
BRANCH   8   3
ATOM      1  N   UNL     1      -2.457   3.197  25.717  0.00  0.00    -0.107 NA
ATOM      2  C   UNL     1      -1.945   3.797  25.476  0.00  0.00    +0.176 A 
ATOM      3  C   UNL     1      -1.167   3.617  25.266  0.00  0.00    +0.093 A 
ATOM      4  C   UNL     1      -0.656   4.217  25.026  0.00  0.00    +0.107 A 
ATOM      5  N   UNL     1      -0.921   4.998  24.995  0.00  0.00    -0.222 NA
ATOM      6  C   UNL     1      -1.697   5.178  25.205  0.00  0.00    +0.200 A 
ATOM      7  N   UNL     1      -2.210   4.578  25.446  0.00  0.00    -0.206 NA
ENDBRANCH   8   3
ENDBRANCH  13  11
BRANCH  17  18
ATOM     18  C   UNL     1      -1.495   0.110  24.799  0.00  0.00    +0.073 C 
BRANCH  18  19
ATOM     19  C   UNL     1      -1.936  -0.559  24.605  0.00  0.00    +0.022 C 
BRANCH  19  20
ATOM     20  C   UNL     1      -2.668  -0.689  24.961  0.00  0.00    +0.028 C 
BRANCH  20  21
ATOM     21  C   UNL     1      -3.155  -1.298  24.693  0.00  0.00    -0.022 A 
ATOM     22  C   UNL     1      -3.773  -1.133  24.171  0.00  0.00    -0.004 A 
ATOM     23  C   UNL     1      -4.260  -1.742  23.903  0.00  0.00    -0.000 A 
ATOM     24  C   UNL     1      -4.130  -2.517  24.156  0.00  0.00    -0.000 A 
ATOM     25  C   UNL     1      -3.512  -2.682  24.678  0.00  0.00    -0.000 A 
ATOM     26  C   UNL     1      -3.025  -2.072  24.946  0.00  0.00    -0.004 A 
ENDBRANCH  20  21
ENDBRANCH  19  20
ENDBRANCH  18  19
ENDBRANCH  17  18
TORSDOF 6
ENDMDL
MODEL 4
REMARK VINA RESULT:     -10.5      1.511      2.821
REMARK  Name = 
REMARK  6 active torsions:
REMARK  status: ('A' for Active; 'I' for Inactive)
REMARK    1  A    between atoms: C_3  and  C_8
REMARK    2  A    between atoms: C_11  and  C_13
REMARK    3  A    between atoms: N_17  and  C_18
REMARK    4  A    between atoms: C_18  and  C_19
REMARK    5  A    between atoms: C_19  and  C_20
REMARK    6  A    between atoms: C_20  and  C_21
REMARK                            x       y       z     vdW  Elec       q    Type
REMARK                         _______ _______ _______ _____ _____    ______ ____
ROOT
ATOM     13  C   UNL     1      -1.787   1.371  24.547  0.00  0.00    +0.138 C 
ATOM     14  C   UNL     1      -1.015   1.612  24.380  0.00  0.00    +0.027 C 
ATOM     15  C   UNL     1      -0.503   1.014  24.625  0.00  0.00    +0.019 C 
ATOM     16  C   UNL     1      -0.958   0.404  24.944  0.00  0.00    +0.073 C 
ATOM     17  N   UNL     1      -1.751   0.625  24.895  0.00  0.00    -0.266 NA
ENDROOT
BRANCH  13  11
ATOM      8  C   UNL     1      -3.581   2.527  24.557  0.00  0.00    +0.208 A 
ATOM      9  N   UNL     1      -3.477   2.403  23.748  0.00  0.00    -0.056 NA
ATOM     10  O   UNL     1      -2.792   1.955  23.646  0.00  0.00    -0.336 OA
ATOM     11  C   UNL     1      -2.473   1.802  24.392  0.00  0.00    +0.251 A 
ATOM     12  N   UNL     1      -2.961   2.156  24.954  0.00  0.00    -0.189 NA
BRANCH   8   3
ATOM      1  N   UNL     1      -5.094   1.872  24.626  0.00  0.00    -0.107 NA
ATOM      2  C   UNL     1      -4.955   2.621  24.942  0.00  0.00    +0.176 A 
ATOM      3  C   UNL     1      -4.198   2.949  24.907  0.00  0.00    +0.093 A 
ATOM      4  C   UNL     1      -4.059   3.698  25.223  0.00  0.00    +0.107 A 
ATOM      5  N   UNL     1      -4.676   4.120  25.572  0.00  0.00    -0.222 NA
ATOM      6  C   UNL     1      -5.431   3.793  25.607  0.00  0.00    +0.200 A 
ATOM      7  N   UNL     1      -5.572   3.043  25.292  0.00  0.00    -0.206 NA
ENDBRANCH   8   3
ENDBRANCH  13  11
BRANCH  17  18
ATOM     18  C   UNL     1      -2.396   0.177  25.150  0.00  0.00    +0.073 C 
BRANCH  18  19
ATOM     19  C   UNL     1      -2.411  -0.637  25.019  0.00  0.00    +0.022 C 
BRANCH  19  20
ATOM     20  C   UNL     1      -3.025  -1.093  25.326  0.00  0.00    +0.028 C 
BRANCH  20  21
ATOM     21  C   UNL     1      -3.351  -1.702  24.876  0.00  0.00    -0.022 A 
ATOM     22  C   UNL     1      -3.071  -2.474  24.962  0.00  0.00    -0.004 A 
ATOM     23  C   UNL     1      -3.396  -3.084  24.512  0.00  0.00    -0.000 A 
ATOM     24  C   UNL     1      -4.002  -2.923  23.975  0.00  0.00    -0.000 A 
ATOM     25  C   UNL     1      -4.281  -2.151  23.888  0.00  0.00    -0.000 A 
ATOM     26  C   UNL     1      -3.956  -1.542  24.338  0.00  0.00    -0.004 A 
ENDBRANCH  20  21
ENDBRANCH  19  20
ENDBRANCH  18  19
ENDBRANCH  17  18
TORSDOF 6
ENDMDL
