MODEL 1
REMARK VINA RESULT:     -11.2      0.000      0.000
REMARK  Name = 
REMARK  10 active torsions:
REMARK  status: ('A' for Active; 'I' for Inactive)
REMARK    1  A    between atoms: O_2  and  C_3
REMARK    2  A    between atoms: C_6  and  C_7
REMARK    3  A    between atoms: C_7  and  N_8
REMARK    4  A    between atoms: C_9  and  C_11
REMARK    5  A    between atoms: C_11  and  C_12
REMARK    6  A    between atoms: C_12  and  C_13
REMARK    7  A    between atoms: C_20  and  N_23
REMARK    8  A    between atoms: N_23  and  C_24
REMARK    9  A    between atoms: C_24  and  C_25
REMARK   10  A    between atoms: C_28  and  N_31
REMARK                            x       y       z     vdW  Elec       q    Type
REMARK                         _______ _______ _______ _____ _____    ______ ____
ROOT
ATOM     13  C   UNL     1      -4.222   3.603  25.284  0.00  0.00    +0.080 C 
ATOM     14  C   UNL     1      -4.718   4.186  25.592  0.00  0.00    +0.131 C 
ATOM     15  N   UNL     1      -5.492   3.998  25.806  0.00  0.00    -0.203 NA
ATOM     16  C   UNL     1      -5.770   3.226  25.712  0.00  0.00    +0.256 C 
ATOM     17  O   UNL     1      -6.545   3.038  25.926  0.00  0.00    -0.272 OA
ATOM     18  C   UNL     1      -5.274   2.644  25.403  0.00  0.00    +0.138 C 
ATOM     19  C   UNL     1      -5.393   1.842  25.248  0.00  0.00    +0.044 C 
ATOM     20  C   UNL     1      -4.693   1.536  24.938  0.00  0.00    +0.091 C 
ATOM     21  C   UNL     1      -4.141   2.148  24.902  0.00  0.00    +0.090 C 
ATOM     22  N   UNL     1      -4.500   2.833  25.190  0.00  0.00    -0.265 NA
ENDROOT
BRANCH  13  12
ATOM     12  C   UNL     1      -3.448   3.793  25.070  0.00  0.00    +0.027 C 
BRANCH  12  11
ATOM     11  C   UNL     1      -2.947   4.158  25.614  0.00  0.00    +0.088 C 
BRANCH  11   9
ATOM      8  N   UNL     1      -1.718   3.445  25.458  0.00  0.00    -0.201 NA
ATOM      9  C   UNL     1      -2.132   4.158  25.488  0.00  0.00    +0.242 C 
ATOM     10  O   UNL     1      -1.731   4.873  25.392  0.00  0.00    -0.273 OA
BRANCH   8   7
ATOM      7  C   UNL     1      -0.902   3.446  25.332  0.00  0.00    +0.141 C 
BRANCH   7   6
ATOM      3  C   UNL     1       0.219   1.417  24.466  0.00  0.00    +0.139 A 
ATOM      4  C   UNL     1      -0.167   1.396  25.196  0.00  0.00    +0.037 A 
ATOM      5  C   UNL     1      -0.540   2.073  25.484  0.00  0.00    +0.001 A 
ATOM      6  C   UNL     1      -0.529   2.770  25.044  0.00  0.00    -0.000 A 
ATOM     34  C   UNL     1      -0.143   2.791  24.315  0.00  0.00    +0.001 A 
ATOM     35  C   UNL     1       0.231   2.115  24.026  0.00  0.00    +0.037 A 
BRANCH   3   2
ATOM      1  C   UNL     1       0.229   0.287  23.592  0.00  0.00    +0.252 C 
ATOM      2  O   UNL     1       0.593   0.741  24.178  0.00  0.00    -0.471 OA
ENDBRANCH   3   2
ENDBRANCH   7   6
ENDBRANCH   8   7
ENDBRANCH  11   9
ENDBRANCH  12  11
ENDBRANCH  13  12
BRANCH  20  23
ATOM     23  N   UNL     1      -4.567   0.754  24.706  0.00  0.00    -0.213 NA
BRANCH  23  24
ATOM     24  C   UNL     1      -4.406   0.176  25.272  0.00  0.00    +0.115 C 
BRANCH  24  25
ATOM     25  C   UNL     1      -4.000  -0.510  25.056  0.00  0.00    -0.005 A 
ATOM     26  C   UNL     1      -3.349  -0.759  25.497  0.00  0.00    -0.002 A 
ATOM     27  C   UNL     1      -2.943  -1.444  25.282  0.00  0.00    +0.014 A 
ATOM     28  C   UNL     1      -3.189  -1.881  24.626  0.00  0.00    +0.048 A 
ATOM     29  C   UNL     1      -3.840  -1.631  24.185  0.00  0.00    +0.014 A 
ATOM     30  C   UNL     1      -4.246  -0.946  24.401  0.00  0.00    -0.002 A 
BRANCH  28  31
ATOM     31  N   UNL     1      -2.783  -2.566  24.411  0.00  0.00    -0.304 N 
ATOM     32  C   UNL     1      -3.200  -3.257  24.243  0.00  0.00    +0.112 C 
ATOM     33  C   UNL     1      -1.959  -2.559  24.365  0.00  0.00    +0.112 C 
ENDBRANCH  28  31
ENDBRANCH  24  25
ENDBRANCH  23  24
ENDBRANCH  20  23
TORSDOF 10
ENDMDL
MODEL 2
REMARK VINA RESULT:     -11.2      1.368      4.624
REMARK  Name = 
REMARK  10 active torsions:
REMARK  status: ('A' for Active; 'I' for Inactive)
REMARK    1  A    between atoms: O_2  and  C_3
REMARK    2  A    between atoms: C_6  and  C_7
REMARK    3  A    between atoms: C_7  and  N_8
REMARK    4  A    between atoms: C_9  and  C_11
REMARK    5  A    between atoms: C_11  and  C_12
REMARK    6  A    between atoms: C_12  and  C_13
REMARK    7  A    between atoms: C_20  and  N_23
REMARK    8  A    between atoms: N_23  and  C_24
REMARK    9  A    between atoms: C_24  and  C_25
REMARK   10  A    between atoms: C_28  and  N_31
REMARK                            x       y       z     vdW  Elec       q    Type
REMARK                         _______ _______ _______ _____ _____    ______ ____
ROOT
ATOM     13  C   UNL     1      -1.852  -1.506  24.699  0.00  0.00    +0.080 C 
ATOM     14  C   UNL     1      -1.688  -2.289  24.497  0.00  0.00    +0.131 C 
ATOM     15  N   UNL     1      -2.306  -2.827  24.394  0.00  0.00    -0.203 NA
ATOM     16  C   UNL     1      -3.087  -2.580  24.493  0.00  0.00    +0.256 C 
ATOM     17  O   UNL     1      -3.705  -3.118  24.391  0.00  0.00    -0.272 OA
ATOM     18  C   UNL     1      -3.251  -1.797  24.695  0.00  0.00    +0.138 C 
ATOM     19  C   UNL     1      -3.960  -1.398  24.829  0.00  0.00    +0.044 C 
ATOM     20  C   UNL     1      -3.781  -0.614  25.014  0.00  0.00    +0.091 C 
ATOM     21  C   UNL     1      -2.961  -0.530  24.995  0.00  0.00    +0.090 C 
ATOM     22  N   UNL     1      -2.632  -1.261  24.798  0.00  0.00    -0.265 NA
ENDROOT
BRANCH  13  12
ATOM     12  C   UNL     1      -1.233  -0.970  24.801  0.00  0.00    +0.027 C 
BRANCH  12  11
ATOM     11  C   UNL     1      -0.773  -0.741  24.156  0.00  0.00    +0.088 C 
BRANCH  11   9
ATOM      8  N   UNL     1      -0.522   0.641  24.414  0.00  0.00    -0.201 NA
ATOM      9  C   UNL     1      -0.245  -0.113  24.228  0.00  0.00    +0.242 C 
ATOM     10  O   UNL     1       0.563  -0.238  24.114  0.00  0.00    -0.273 OA
BRANCH   8   7
ATOM      7  C   UNL     1       0.006   1.271  24.486  0.00  0.00    +0.141 C 
BRANCH   7   6
ATOM      3  C   UNL     1      -0.814   3.508  25.155  0.00  0.00    +0.139 A 
ATOM      4  C   UNL     1      -0.850   3.274  24.364  0.00  0.00    +0.037 A 
ATOM      5  C   UNL     1      -0.576   2.529  24.142  0.00  0.00    +0.001 A 
ATOM      6  C   UNL     1      -0.267   2.016  24.709  0.00  0.00    -0.000 A 
ATOM     34  C   UNL     1      -0.231   2.249  25.499  0.00  0.00    +0.001 A 
ATOM     35  C   UNL     1      -0.504   2.995  25.723  0.00  0.00    +0.037 A 
BRANCH   3   2
ATOM      1  C   UNL     1      -0.886   4.917  24.929  0.00  0.00    +0.252 C 
ATOM      2  O   UNL     1      -1.087   4.253  25.378  0.00  0.00    -0.471 OA
ENDBRANCH   3   2
ENDBRANCH   7   6
ENDBRANCH   8   7
ENDBRANCH  11   9
ENDBRANCH  12  11
ENDBRANCH  13  12
BRANCH  20  23
ATOM     23  N   UNL     1      -4.326  -0.020  25.187  0.00  0.00    -0.213 NA
BRANCH  23  24
ATOM     24  C   UNL     1      -4.547   0.521  24.605  0.00  0.00    +0.115 C 
BRANCH  24  25
ATOM     25  C   UNL     1      -4.700   1.306  24.809  0.00  0.00    -0.005 A 
ATOM     26  C   UNL     1      -5.270   1.479  25.380  0.00  0.00    -0.002 A 
ATOM     27  C   UNL     1      -5.424   2.264  25.584  0.00  0.00    +0.014 A 
ATOM     28  C   UNL     1      -5.007   2.875  25.217  0.00  0.00    +0.048 A 
ATOM     29  C   UNL     1      -4.438   2.701  24.646  0.00  0.00    +0.014 A 
ATOM     30  C   UNL     1      -4.285   1.916  24.442  0.00  0.00    -0.002 A 
BRANCH  28  31
ATOM     31  N   UNL     1      -5.161   3.659  25.421  0.00  0.00    -0.304 N 
ATOM     32  C   UNL     1      -4.566   4.227  25.358  0.00  0.00    +0.112 C 
ATOM     33  C   UNL     1      -5.911   3.875  25.690  0.00  0.00    +0.112 C 
ENDBRANCH  28  31
ENDBRANCH  24  25
ENDBRANCH  23  24
ENDBRANCH  20  23
TORSDOF 10
ENDMDL
MODEL 3
REMARK VINA RESULT:     -10.9      1.527      5.850
REMARK  Name = 
REMARK  10 active torsions:
REMARK  status: ('A' for Active; 'I' for Inactive)
REMARK    1  A    between atoms: O_2  and  C_3
REMARK    2  A    between atoms: C_6  and  C_7
REMARK    3  A    between atoms: C_7  and  N_8
REMARK    4  A    between atoms: C_9  and  C_11
REMARK    5  A    between atoms: C_11  and  C_12
REMARK    6  A    between atoms: C_12  and  C_13
REMARK    7  A    between atoms: C_20  and  N_23
REMARK    8  A    between atoms: N_23  and  C_24
REMARK    9  A    between atoms: C_24  and  C_25
REMARK   10  A    between atoms: C_28  and  N_31
REMARK                            x       y       z     vdW  Elec       q    Type
REMARK                         _______ _______ _______ _____ _____    ______ ____
ROOT
ATOM     13  C   UNL     1      -2.215  -1.327  24.563  0.00  0.00    +0.080 C 
ATOM     14  C   UNL     1      -2.098  -2.126  24.732  0.00  0.00    +0.131 C 
ATOM     15  N   UNL     1      -1.371  -2.384  25.023  0.00  0.00    -0.203 NA
ATOM     16  C   UNL     1      -0.760  -1.842  25.146  0.00  0.00    +0.256 C 
ATOM     17  O   UNL     1      -0.033  -2.100  25.437  0.00  0.00    -0.272 OA
ATOM     18  C   UNL     1      -0.877  -1.043  24.977  0.00  0.00    +0.138 C 
ATOM     19  C   UNL     1      -0.382  -0.387  25.041  0.00  0.00    +0.044 C 
ATOM     20  C   UNL     1      -0.804   0.276  24.789  0.00  0.00    +0.091 C 
ATOM     21  C   UNL     1      -1.559   0.029  24.570  0.00  0.00    +0.090 C 
ATOM     22  N   UNL     1      -1.606  -0.787  24.685  0.00  0.00    -0.265 NA
ENDROOT
BRANCH  13  12
ATOM     12  C   UNL     1      -2.943  -1.071  24.271  0.00  0.00    +0.027 C 
BRANCH  12  11
ATOM     11  C   UNL     1      -3.609  -1.077  24.758  0.00  0.00    +0.088 C 
BRANCH  11   9
ATOM      8  N   UNL     1      -4.348   0.140  24.885  0.00  0.00    -0.201 NA
ATOM      9  C   UNL     1      -4.265  -0.617  24.565  0.00  0.00    +0.242 C 
ATOM     10  O   UNL     1      -4.840  -0.913  24.053  0.00  0.00    -0.273 OA
BRANCH   8   7
ATOM      7  C   UNL     1      -5.005   0.600  24.692  0.00  0.00    +0.141 C 
BRANCH   7   6
ATOM      3  C   UNL     1      -5.097   2.976  25.377  0.00  0.00    +0.139 A 
ATOM      4  C   UNL     1      -4.659   2.755  24.713  0.00  0.00    +0.037 A 
ATOM      5  C   UNL     1      -4.629   1.963  24.485  0.00  0.00    +0.001 A 
ATOM      6  C   UNL     1      -5.036   1.392  24.920  0.00  0.00    -0.000 A 
ATOM     34  C   UNL     1      -5.472   1.613  25.584  0.00  0.00    +0.001 A 
ATOM     35  C   UNL     1      -5.503   2.405  25.813  0.00  0.00    +0.037 A 
BRANCH   3   2
ATOM      1  C   UNL     1      -5.816   4.206  25.484  0.00  0.00    +0.252 C 
ATOM      2  O   UNL     1      -5.127   3.768  25.605  0.00  0.00    -0.471 OA
ENDBRANCH   3   2
ENDBRANCH   7   6
ENDBRANCH   8   7
ENDBRANCH  11   9
ENDBRANCH  12  11
ENDBRANCH  13  12
BRANCH  20  23
ATOM     23  N   UNL     1      -0.519   1.050  24.763  0.00  0.00    -0.213 NA
BRANCH  23  24
ATOM     24  C   UNL     1      -0.585   1.538  25.425  0.00  0.00    +0.115 C 
BRANCH  24  25
ATOM     25  C   UNL     1      -0.731   2.344  25.329  0.00  0.00    -0.005 A 
ATOM     26  C   UNL     1      -0.398   2.751  24.693  0.00  0.00    -0.002 A 
ATOM     27  C   UNL     1      -0.544   3.557  24.597  0.00  0.00    +0.014 A 
ATOM     28  C   UNL     1      -1.023   3.957  25.137  0.00  0.00    +0.048 A 
ATOM     29  C   UNL     1      -1.357   3.550  25.773  0.00  0.00    +0.014 A 
ATOM     30  C   UNL     1      -1.210   2.744  25.869  0.00  0.00    -0.002 A 
BRANCH  28  31
ATOM     31  N   UNL     1      -1.169   4.763  25.041  0.00  0.00    -0.304 N 
ATOM     32  C   UNL     1      -0.615   5.240  24.658  0.00  0.00    +0.112 C 
ATOM     33  C   UNL     1      -1.870   5.093  25.328  0.00  0.00    +0.112 C 
ENDBRANCH  28  31
ENDBRANCH  24  25
ENDBRANCH  23  24
ENDBRANCH  20  23
TORSDOF 10
ENDMDL
MODEL 4
REMARK VINA RESULT:     -10.9      1.599      4.303
REMARK  Name = 
REMARK  10 active torsions:
REMARK  status: ('A' for Active; 'I' for Inactive)
REMARK    1  A    between atoms: O_2  and  C_3
REMARK    2  A    between atoms: C_6  and  C_7
REMARK    3  A    between atoms: C_7  and  N_8
REMARK    4  A    between atoms: C_9  and  C_11
REMARK    5  A    between atoms: C_11  and  C_12
REMARK    6  A    between atoms: C_12  and  C_13
REMARK    7  A    between atoms: C_20  and  N_23
REMARK    8  A    between atoms: N_23  and  C_24
REMARK    9  A    between atoms: C_24  and  C_25
REMARK   10  A    between atoms: C_28  and  N_31
REMARK                            x       y       z     vdW  Elec       q    Type
REMARK                         _______ _______ _______ _____ _____    ______ ____
ROOT
ATOM     13  C   UNL     1      -3.507   3.090  25.075  0.00  0.00    +0.080 C 
ATOM     14  C   UNL     1      -3.845   3.697  25.520  0.00  0.00    +0.131 C 
ATOM     15  N   UNL     1      -3.369   4.293  25.833  0.00  0.00    -0.203 NA
ATOM     16  C   UNL     1      -2.554   4.282  25.702  0.00  0.00    +0.256 C 
ATOM     17  O   UNL     1      -2.077   4.878  26.015  0.00  0.00    -0.272 OA
ATOM     18  C   UNL     1      -2.216   3.674  25.257  0.00  0.00    +0.138 C 
ATOM     19  C   UNL     1      -1.436   3.519  25.038  0.00  0.00    +0.044 C 
ATOM     20  C   UNL     1      -1.431   2.826  24.588  0.00  0.00    +0.091 C 
ATOM     21  C   UNL     1      -2.207   2.555  24.531  0.00  0.00    +0.090 C 
ATOM     22  N   UNL     1      -2.693   3.079  24.944  0.00  0.00    -0.265 NA
ENDROOT
BRANCH  13  12
ATOM     12  C   UNL     1      -3.984   2.494  24.762  0.00  0.00    +0.027 C 
BRANCH  12  11
ATOM     11  C   UNL     1      -4.517   2.093  25.247  0.00  0.00    +0.088 C 
BRANCH  11   9
ATOM      8  N   UNL     1      -4.391   0.682  25.060  0.00  0.00    -0.201 NA
ATOM      9  C   UNL     1      -4.837   1.374  25.003  0.00  0.00    +0.242 C 
ATOM     10  O   UNL     1      -5.605   1.346  24.701  0.00  0.00    -0.273 OA
BRANCH   8   7
ATOM      7  C   UNL     1      -4.712  -0.038  24.815  0.00  0.00    +0.141 C 
BRANCH   7   6
ATOM      3  C   UNL     1      -3.268  -2.039  24.632  0.00  0.00    +0.139 A 
ATOM      4  C   UNL     1      -3.237  -1.568  25.310  0.00  0.00    +0.037 A 
ATOM      5  C   UNL     1      -3.719  -0.901  25.370  0.00  0.00    +0.001 A 
ATOM      6  C   UNL     1      -4.231  -0.704  24.754  0.00  0.00    -0.000 A 
ATOM     34  C   UNL     1      -4.261  -1.174  24.077  0.00  0.00    +0.001 A 
ATOM     35  C   UNL     1      -3.780  -1.842  24.016  0.00  0.00    +0.037 A 
BRANCH   3   2
ATOM      1  C   UNL     1      -1.971  -2.618  24.478  0.00  0.00    +0.252 C 
ATOM      2  O   UNL     1      -2.786  -2.706  24.571  0.00  0.00    -0.471 OA
ENDBRANCH   3   2
ENDBRANCH   7   6
ENDBRANCH   8   7
ENDBRANCH  11   9
ENDBRANCH  12  11
ENDBRANCH  13  12
BRANCH  20  23
ATOM     23  N   UNL     1      -0.766   2.470  24.256  0.00  0.00    -0.213 NA
BRANCH  23  24
ATOM     24  C   UNL     1      -0.553   1.704  24.478  0.00  0.00    +0.115 C 
BRANCH  24  25
ATOM     25  C   UNL     1       0.011   1.290  24.040  0.00  0.00    -0.005 A 
ATOM     26  C   UNL     1      -0.187   0.570  23.690  0.00  0.00    -0.002 A 
ATOM     27  C   UNL     1       0.375   0.155  23.252  0.00  0.00    +0.014 A 
ATOM     28  C   UNL     1       1.137   0.461  23.165  0.00  0.00    +0.048 A 
ATOM     29  C   UNL     1       1.336   1.181  23.516  0.00  0.00    +0.014 A 
ATOM     30  C   UNL     1       0.772   1.595  23.953  0.00  0.00    -0.002 A 
BRANCH  28  31
ATOM     31  N   UNL     1       1.700   0.045  22.727  0.00  0.00    -0.304 N 
ATOM     32  C   UNL     1       1.460  -0.475  22.134  0.00  0.00    +0.112 C 
ATOM     33  C   UNL     1       2.504   0.151  22.884  0.00  0.00    +0.112 C 
ENDBRANCH  28  31
ENDBRANCH  24  25
ENDBRANCH  23  24
ENDBRANCH  20  23
TORSDOF 10
ENDMDL
MODEL 5
REMARK VINA RESULT:     -10.4      1.137      4.085
REMARK  Name = 
REMARK  10 active torsions:
REMARK  status: ('A' for Active; 'I' for Inactive)
REMARK    1  A    between atoms: O_2  and  C_3
REMARK    2  A    between atoms: C_6  and  C_7
REMARK    3  A    between atoms: C_7  and  N_8
REMARK    4  A    between atoms: C_9  and  C_11
REMARK    5  A    between atoms: C_11  and  C_12
REMARK    6  A    between atoms: C_12  and  C_13
REMARK    7  A    between atoms: C_20  and  N_23
REMARK    8  A    between atoms: N_23  and  C_24
REMARK    9  A    between atoms: C_24  and  C_25
REMARK   10  A    between atoms: C_28  and  N_31
REMARK                            x       y       z     vdW  Elec       q    Type
REMARK                         _______ _______ _______ _____ _____    ______ ____
ROOT
ATOM     13  C   UNL     1      -0.576   2.832  25.195  0.00  0.00    +0.080 C 
ATOM     14  C   UNL     1       0.079   3.224  24.883  0.00  0.00    +0.131 C 
ATOM     15  N   UNL     1       0.660   2.801  24.479  0.00  0.00    -0.203 NA
ATOM     16  C   UNL     1       0.586   1.984  24.386  0.00  0.00    +0.256 C 
ATOM     17  O   UNL     1       1.167   1.561  23.982  0.00  0.00    -0.272 OA
ATOM     18  C   UNL     1      -0.069   1.591  24.698  0.00  0.00    +0.138 C 
ATOM     19  C   UNL     1      -0.290   0.797  24.693  0.00  0.00    +0.044 C 
ATOM     20  C   UNL     1      -1.008   0.729  25.095  0.00  0.00    +0.091 C 
ATOM     21  C   UNL     1      -1.230   1.482  25.347  0.00  0.00    +0.090 C 
ATOM     22  N   UNL     1      -0.650   2.016  25.102  0.00  0.00    -0.265 NA
ENDROOT
BRANCH  13  12
ATOM     12  C   UNL     1      -1.157   3.256  25.599  0.00  0.00    +0.027 C 
BRANCH  12  11
ATOM     11  C   UNL     1      -1.481   3.936  25.263  0.00  0.00    +0.088 C 
BRANCH  11   9
ATOM      8  N   UNL     1      -2.897   3.758  25.196  0.00  0.00    -0.201 NA
ATOM      9  C   UNL     1      -2.241   4.177  25.471  0.00  0.00    +0.242 C 
ATOM     10  O   UNL     1      -2.347   4.837  25.955  0.00  0.00    -0.273 OA
BRANCH   8   7
ATOM      7  C   UNL     1      -3.659   3.999  25.404  0.00  0.00    +0.141 C 
BRANCH   7   6
ATOM      3  C   UNL     1      -5.574   2.466  25.084  0.00  0.00    +0.139 A 
ATOM      4  C   UNL     1      -5.036   2.589  24.469  0.00  0.00    +0.037 A 
ATOM      5  C   UNL     1      -4.398   3.100  24.577  0.00  0.00    +0.001 A 
ATOM      6  C   UNL     1      -4.297   3.488  25.298  0.00  0.00    -0.000 A 
ATOM     34  C   UNL     1      -4.834   3.366  25.911  0.00  0.00    +0.001 A 
ATOM     35  C   UNL     1      -5.473   2.855  25.805  0.00  0.00    +0.037 A 
BRANCH   3   2
ATOM      1  C   UNL     1      -6.195   1.199  25.308  0.00  0.00    +0.252 C 
ATOM      2  O   UNL     1      -6.212   1.955  24.976  0.00  0.00    -0.471 OA
ENDBRANCH   3   2
ENDBRANCH   7   6
ENDBRANCH   8   7
ENDBRANCH  11   9
ENDBRANCH  12  11
ENDBRANCH  13  12
BRANCH  20  23
ATOM     23  N   UNL     1      -1.428   0.031  25.221  0.00  0.00    -0.213 NA
BRANCH  23  24
ATOM     24  C   UNL     1      -2.253   0.042  25.234  0.00  0.00    +0.115 C 
BRANCH  24  25
ATOM     25  C   UNL     1      -2.678  -0.620  24.986  0.00  0.00    -0.005 A 
ATOM     26  C   UNL     1      -3.181  -0.566  24.334  0.00  0.00    -0.002 A 
ATOM     27  C   UNL     1      -3.607  -1.227  24.084  0.00  0.00    +0.014 A 
ATOM     28  C   UNL     1      -3.528  -1.944  24.487  0.00  0.00    +0.048 A 
ATOM     29  C   UNL     1      -3.025  -1.998  25.139  0.00  0.00    +0.014 A 
ATOM     30  C   UNL     1      -2.600  -1.336  25.387  0.00  0.00    -0.002 A 
BRANCH  28  31
ATOM     31  N   UNL     1      -3.954  -2.605  24.237  0.00  0.00    -0.304 N 
ATOM     32  C   UNL     1      -3.705  -3.361  24.453  0.00  0.00    +0.112 C 
ATOM     33  C   UNL     1      -4.628  -2.509  23.771  0.00  0.00    +0.112 C 
ENDBRANCH  28  31
ENDBRANCH  24  25
ENDBRANCH  23  24
ENDBRANCH  20  23
TORSDOF 10
ENDMDL
MODEL 6
REMARK VINA RESULT:     -10.2      1.452      3.845
REMARK  Name = 
REMARK  10 active torsions:
REMARK  status: ('A' for Active; 'I' for Inactive)
REMARK    1  A    between atoms: O_2  and  C_3
REMARK    2  A    between atoms: C_6  and  C_7
REMARK    3  A    between atoms: C_7  and  N_8
REMARK    4  A    between atoms: C_9  and  C_11
REMARK    5  A    between atoms: C_11  and  C_12
REMARK    6  A    between atoms: C_12  and  C_13
REMARK    7  A    between atoms: C_20  and  N_23
REMARK    8  A    between atoms: N_23  and  C_24
REMARK    9  A    between atoms: C_24  and  C_25
REMARK   10  A    between atoms: C_28  and  N_31
REMARK                            x       y       z     vdW  Elec       q    Type
REMARK                         _______ _______ _______ _____ _____    ______ ____
ROOT
ATOM     13  C   UNL     1      -2.392   4.122  25.518  0.00  0.00    +0.080 C 
ATOM     14  C   UNL     1      -2.340   4.938  25.408  0.00  0.00    +0.131 C 
ATOM     15  N   UNL     1      -1.629   5.278  25.164  0.00  0.00    -0.203 NA
ATOM     16  C   UNL     1      -0.969   4.800  25.030  0.00  0.00    +0.256 C 
ATOM     17  O   UNL     1      -0.258   5.140  24.786  0.00  0.00    -0.272 OA
ATOM     18  C   UNL     1      -1.021   3.984  25.139  0.00  0.00    +0.138 C 
ATOM     19  C   UNL     1      -0.468   3.379  25.051  0.00  0.00    +0.044 C 
ATOM     20  C   UNL     1      -0.837   2.666  25.240  0.00  0.00    +0.091 C 
ATOM     21  C   UNL     1      -1.619   2.831  25.445  0.00  0.00    +0.090 C 
ATOM     22  N   UNL     1      -1.733   3.646  25.383  0.00  0.00    -0.265 NA
ENDROOT
BRANCH  13  12
ATOM     12  C   UNL     1      -3.104   3.784  25.761  0.00  0.00    +0.027 C 
BRANCH  12  11
ATOM     11  C   UNL     1      -3.756   3.786  25.257  0.00  0.00    +0.088 C 
BRANCH  11   9
ATOM      8  N   UNL     1      -4.245   2.476  24.960  0.00  0.00    -0.201 NA
ATOM      9  C   UNL     1      -4.338   3.206  25.333  0.00  0.00    +0.242 C 
ATOM     10  O   UNL     1      -5.014   3.356  25.781  0.00  0.00    -0.273 OA
BRANCH   8   7
ATOM      7  C   UNL     1      -4.826   1.896  25.035  0.00  0.00    +0.141 C 
BRANCH   7   6
ATOM      3  C   UNL     1      -4.271  -0.479  24.616  0.00  0.00    +0.139 A 
ATOM      4  C   UNL     1      -4.517  -0.239  25.367  0.00  0.00    +0.037 A 
ATOM      5  C   UNL     1      -4.702   0.553  25.506  0.00  0.00    +0.001 A 
ATOM      6  C   UNL     1      -4.641   1.105  24.896  0.00  0.00    -0.000 A 
ATOM     34  C   UNL     1      -4.395   0.865  24.146  0.00  0.00    +0.001 A 
ATOM     35  C   UNL     1      -4.210   0.073  24.006  0.00  0.00    +0.037 A 
BRANCH   3   2
ATOM      1  C   UNL     1      -4.340  -1.637  23.783  0.00  0.00    +0.252 C 
ATOM      2  O   UNL     1      -4.085  -1.270  24.477  0.00  0.00    -0.471 OA
ENDBRANCH   3   2
ENDBRANCH   7   6
ENDBRANCH   8   7
ENDBRANCH  11   9
ENDBRANCH  12  11
ENDBRANCH  13  12
BRANCH  20  23
ATOM     23  N   UNL     1      -0.486   1.920  25.225  0.00  0.00    -0.213 NA
BRANCH  23  24
ATOM     24  C   UNL     1      -0.621   1.412  24.590  0.00  0.00    +0.115 C 
BRANCH  24  25
ATOM     25  C   UNL     1      -0.606   0.595  24.705  0.00  0.00    -0.005 A 
ATOM     26  C   UNL     1      -0.816   0.278  25.437  0.00  0.00    -0.002 A 
ATOM     27  C   UNL     1      -0.801  -0.539  25.553  0.00  0.00    +0.014 A 
ATOM     28  C   UNL     1      -0.575  -1.039  24.936  0.00  0.00    +0.048 A 
ATOM     29  C   UNL     1      -0.364  -0.722  24.204  0.00  0.00    +0.014 A 
ATOM     30  C   UNL     1      -0.380   0.095  24.089  0.00  0.00    -0.002 A 
BRANCH  28  31
ATOM     31  N   UNL     1      -0.559  -1.855  25.052  0.00  0.00    -0.304 N 
ATOM     32  C   UNL     1      -1.108  -2.338  24.669  0.00  0.00    +0.112 C 
ATOM     33  C   UNL     1       0.006  -2.190  25.553  0.00  0.00    +0.112 C 
ENDBRANCH  28  31
ENDBRANCH  24  25
ENDBRANCH  23  24
ENDBRANCH  20  23
TORSDOF 10
ENDMDL
MODEL 7
REMARK VINA RESULT:      -9.8      1.878      4.782
REMARK  Name = 
REMARK  10 active torsions:
REMARK  status: ('A' for Active; 'I' for Inactive)
REMARK    1  A    between atoms: O_2  and  C_3
REMARK    2  A    between atoms: C_6  and  C_7
REMARK    3  A    between atoms: C_7  and  N_8
REMARK    4  A    between atoms: C_9  and  C_11
REMARK    5  A    between atoms: C_11  and  C_12
REMARK    6  A    between atoms: C_12  and  C_13
REMARK    7  A    between atoms: C_20  and  N_23
REMARK    8  A    between atoms: N_23  and  C_24
REMARK    9  A    between atoms: C_24  and  C_25
REMARK   10  A    between atoms: C_28  and  N_31
REMARK                            x       y       z     vdW  Elec       q    Type
REMARK                         _______ _______ _______ _____ _____    ______ ____
ROOT
ATOM     13  C   UNL     1      -3.575  -0.548  24.600  0.00  0.00    +0.080 C 
ATOM     14  C   UNL     1      -4.146  -1.118  24.774  0.00  0.00    +0.131 C 
ATOM     15  N   UNL     1      -3.922  -1.902  24.899  0.00  0.00    -0.203 NA
ATOM     16  C   UNL     1      -3.126  -2.116  24.851  0.00  0.00    +0.256 C 
ATOM     17  O   UNL     1      -2.903  -2.900  24.977  0.00  0.00    -0.272 OA
ATOM     18  C   UNL     1      -2.555  -1.547  24.678  0.00  0.00    +0.138 C 
ATOM     19  C   UNL     1      -1.736  -1.594  24.595  0.00  0.00    +0.044 C 
ATOM     20  C   UNL     1      -1.454  -0.838  24.419  0.00  0.00    +0.091 C 
ATOM     21  C   UNL     1      -2.099  -0.326  24.392  0.00  0.00    +0.090 C 
ATOM     22  N   UNL     1      -2.780  -0.763  24.552  0.00  0.00    -0.265 NA
ENDROOT
BRANCH  13  12
ATOM     12  C   UNL     1      -3.799   0.236  24.475  0.00  0.00    +0.027 C 
BRANCH  12  11
ATOM     11  C   UNL     1      -4.367   0.585  24.960  0.00  0.00    +0.088 C 
BRANCH  11   9
ATOM      8  N   UNL     1      -3.935   1.939  25.105  0.00  0.00    -0.201 NA
ATOM      9  C   UNL     1      -4.519   1.393  24.901  0.00  0.00    +0.242 C 
ATOM     10  O   UNL     1      -5.255   1.657  24.638  0.00  0.00    -0.273 OA
BRANCH   8   7
ATOM      7  C   UNL     1      -4.086   2.748  25.047  0.00  0.00    +0.141 C 
BRANCH   7   6
ATOM      3  C   UNL     1      -2.280   4.382  25.485  0.00  0.00    +0.139 A 
ATOM      4  C   UNL     1      -2.909   4.311  26.014  0.00  0.00    +0.037 A 
ATOM      5  C   UNL     1      -3.511   3.766  25.868  0.00  0.00    +0.001 A 
ATOM      6  C   UNL     1      -3.484   3.293  25.193  0.00  0.00    -0.000 A 
ATOM     34  C   UNL     1      -2.856   3.364  24.664  0.00  0.00    +0.001 A 
ATOM     35  C   UNL     1      -2.253   3.909  24.810  0.00  0.00    +0.037 A 
BRANCH   3   2
ATOM      1  C   UNL     1      -1.181   5.167  25.017  0.00  0.00    +0.252 C 
ATOM      2  O   UNL     1      -1.678   4.927  25.631  0.00  0.00    -0.471 OA
ENDBRANCH   3   2
ENDBRANCH   7   6
ENDBRANCH   8   7
ENDBRANCH  11   9
ENDBRANCH  12  11
ENDBRANCH  13  12
BRANCH  20  23
ATOM     23  N   UNL     1      -0.665  -0.634  24.291  0.00  0.00    -0.213 NA
BRANCH  23  24
ATOM     24  C   UNL     1      -0.478   0.037  23.849  0.00  0.00    +0.115 C 
BRANCH  24  25
ATOM     25  C   UNL     1       0.284   0.133  23.547  0.00  0.00    -0.005 A 
ATOM     26  C   UNL     1       0.740   0.781  23.778  0.00  0.00    -0.002 A 
ATOM     27  C   UNL     1       1.502   0.878  23.477  0.00  0.00    +0.014 A 
ATOM     28  C   UNL     1       1.808   0.326  22.944  0.00  0.00    +0.048 A 
ATOM     29  C   UNL     1       1.351  -0.321  22.713  0.00  0.00    +0.014 A 
ATOM     30  C   UNL     1       0.589  -0.417  23.015  0.00  0.00    -0.002 A 
BRANCH  28  31
ATOM     31  N   UNL     1       2.569   0.423  22.643  0.00  0.00    -0.304 N 
ATOM     32  C   UNL     1       2.791   0.037  21.949  0.00  0.00    +0.112 C 
ATOM     33  C   UNL     1       3.110   0.907  23.037  0.00  0.00    +0.112 C 
ENDBRANCH  28  31
ENDBRANCH  24  25
ENDBRANCH  23  24
ENDBRANCH  20  23
TORSDOF 10
ENDMDL
MODEL 8
REMARK VINA RESULT:      -9.3      2.197      4.991
REMARK  Name = 
REMARK  10 active torsions:
REMARK  status: ('A' for Active; 'I' for Inactive)
REMARK    1  A    between atoms: O_2  and  C_3
REMARK    2  A    between atoms: C_6  and  C_7
REMARK    3  A    between atoms: C_7  and  N_8
REMARK    4  A    between atoms: C_9  and  C_11
REMARK    5  A    between atoms: C_11  and  C_12
REMARK    6  A    between atoms: C_12  and  C_13
REMARK    7  A    between atoms: C_20  and  N_23
REMARK    8  A    between atoms: N_23  and  C_24
REMARK    9  A    between atoms: C_24  and  C_25
REMARK   10  A    between atoms: C_28  and  N_31
REMARK                            x       y       z     vdW  Elec       q    Type
REMARK                         _______ _______ _______ _____ _____    ______ ____
ROOT
ATOM     13  C   UNL     1      -1.399  -1.226  24.490  0.00  0.00    +0.080 C 
ATOM     14  C   UNL     1      -1.184  -2.017  24.398  0.00  0.00    +0.131 C 
ATOM     15  N   UNL     1      -1.741  -2.613  24.517  0.00  0.00    -0.203 NA
ATOM     16  C   UNL     1      -2.515  -2.417  24.728  0.00  0.00    +0.256 C 
ATOM     17  O   UNL     1      -3.073  -3.013  24.847  0.00  0.00    -0.272 OA
ATOM     18  C   UNL     1      -2.730  -1.626  24.820  0.00  0.00    +0.138 C 
ATOM     19  C   UNL     1      -3.445  -1.268  25.023  0.00  0.00    +0.044 C 
ATOM     20  C   UNL     1      -3.329  -0.451  25.029  0.00  0.00    +0.091 C 
ATOM     21  C   UNL     1      -2.542  -0.305  24.830  0.00  0.00    +0.090 C 
ATOM     22  N   UNL     1      -2.172  -1.031  24.701  0.00  0.00    -0.265 NA
ENDROOT
BRANCH  13  12
ATOM     12  C   UNL     1      -0.840  -0.631  24.371  0.00  0.00    +0.027 C 
BRANCH  12  11
ATOM     11  C   UNL     1      -0.181  -0.772  23.895  0.00  0.00    +0.088 C 
BRANCH  11   9
ATOM      8  N   UNL     1       1.008  -0.218  23.329  0.00  0.00    -0.201 NA
ATOM      9  C   UNL     1       0.214  -0.142  23.540  0.00  0.00    +0.242 C 
ATOM     10  O   UNL     1      -0.185   0.566  23.395  0.00  0.00    -0.273 OA
BRANCH   8   7
ATOM      7  C   UNL     1       1.404   0.413  22.973  0.00  0.00    +0.141 C 
BRANCH   7   6
ATOM      3  C   UNL     1       3.871   0.382  22.789  0.00  0.00    +0.139 A 
ATOM      4  C   UNL     1       3.442  -0.319  22.703  0.00  0.00    +0.037 A 
ATOM      5  C   UNL     1       2.619  -0.307  22.765  0.00  0.00    +0.001 A 
ATOM      6  C   UNL     1       2.226   0.403  22.912  0.00  0.00    -0.000 A 
ATOM     34  C   UNL     1       2.655   1.101  22.997  0.00  0.00    +0.001 A 
ATOM     35  C   UNL     1       3.477   1.092  22.936  0.00  0.00    +0.037 A 
BRANCH   3   2
ATOM      1  C   UNL     1       5.153   0.153  23.378  0.00  0.00    +0.252 C 
ATOM      2  O   UNL     1       4.693   0.370  22.727  0.00  0.00    -0.471 OA
ENDBRANCH   3   2
ENDBRANCH   7   6
ENDBRANCH   8   7
ENDBRANCH  11   9
ENDBRANCH  12  11
ENDBRANCH  13  12
BRANCH  20  23
ATOM     23  N   UNL     1      -3.900   0.118  25.203  0.00  0.00    -0.213 NA
BRANCH  23  24
ATOM     24  C   UNL     1      -4.169   0.628  24.613  0.00  0.00    +0.115 C 
BRANCH  24  25
ATOM     25  C   UNL     1      -4.446   1.379  24.813  0.00  0.00    -0.005 A 
ATOM     26  C   UNL     1      -4.105   2.048  24.471  0.00  0.00    -0.002 A 
ATOM     27  C   UNL     1      -4.381   2.800  24.669  0.00  0.00    +0.014 A 
ATOM     28  C   UNL     1      -4.999   2.882  25.211  0.00  0.00    +0.048 A 
ATOM     29  C   UNL     1      -5.340   2.213  25.553  0.00  0.00    +0.014 A 
ATOM     30  C   UNL     1      -5.063   1.462  25.353  0.00  0.00    -0.002 A 
BRANCH  28  31
ATOM     31  N   UNL     1      -5.274   3.634  25.409  0.00  0.00    -0.304 N 
ATOM     32  C   UNL     1      -4.755   4.274  25.422  0.00  0.00    +0.112 C 
ATOM     33  C   UNL     1      -6.071   3.744  25.596  0.00  0.00    +0.112 C 
ENDBRANCH  28  31
ENDBRANCH  24  25
ENDBRANCH  23  24
ENDBRANCH  20  23
TORSDOF 10
ENDMDL
MODEL 9
REMARK VINA RESULT:      -9.2      1.618      4.918
REMARK  Name = 
REMARK  10 active torsions:
REMARK  status: ('A' for Active; 'I' for Inactive)
REMARK    1  A    between atoms: O_2  and  C_3
REMARK    2  A    between atoms: C_6  and  C_7
REMARK    3  A    between atoms: C_7  and  N_8
REMARK    4  A    between atoms: C_9  and  C_11
REMARK    5  A    between atoms: C_11  and  C_12
REMARK    6  A    between atoms: C_12  and  C_13
REMARK    7  A    between atoms: C_20  and  N_23
REMARK    8  A    between atoms: N_23  and  C_24
REMARK    9  A    between atoms: C_24  and  C_25
REMARK   10  A    between atoms: C_28  and  N_31
REMARK                            x       y       z     vdW  Elec       q    Type
REMARK                         _______ _______ _______ _____ _____    ______ ____
ROOT
ATOM     13  C   UNL     1      -0.501   1.913  25.173  0.00  0.00    +0.080 C 
ATOM     14  C   UNL     1       0.242   1.987  24.823  0.00  0.00    +0.131 C 
ATOM     15  N   UNL     1       0.433   2.668  24.398  0.00  0.00    -0.203 NA
ATOM     16  C   UNL     1      -0.121   3.276  24.324  0.00  0.00    +0.256 C 
ATOM     17  O   UNL     1       0.070   3.958  23.900  0.00  0.00    -0.272 OA
ATOM     18  C   UNL     1      -0.864   3.202  24.675  0.00  0.00    +0.138 C 
ATOM     19  C   UNL     1      -1.517   3.706  24.695  0.00  0.00    +0.044 C 
ATOM     20  C   UNL     1      -2.111   3.335  25.132  0.00  0.00    +0.091 C 
ATOM     21  C   UNL     1      -1.824   2.603  25.381  0.00  0.00    +0.090 C 
ATOM     22  N   UNL     1      -1.054   2.520  25.099  0.00  0.00    -0.265 NA
ENDROOT
BRANCH  13  12
ATOM     12  C   UNL     1      -0.691   1.231  25.597  0.00  0.00    +0.027 C 
BRANCH  12  11
ATOM     11  C   UNL     1      -0.612   0.490  25.244  0.00  0.00    +0.088 C 
BRANCH  11   9
ATOM      8  N   UNL     1      -1.675  -0.458  25.130  0.00  0.00    -0.201 NA
ATOM      9  C   UNL     1      -1.028  -0.155  25.543  0.00  0.00    +0.242 C 
ATOM     10  O   UNL     1      -0.798  -0.499  26.257  0.00  0.00    -0.273 OA
BRANCH   8   7
ATOM      7  C   UNL     1      -2.091  -1.104  25.429  0.00  0.00    +0.141 C 
BRANCH   7   6
ATOM      3  C   UNL     1      -4.004  -2.038  24.166  0.00  0.00    +0.139 A 
ATOM      4  C   UNL     1      -3.342  -2.507  24.320  0.00  0.00    +0.037 A 
ATOM      5  C   UNL     1      -2.705  -2.196  24.741  0.00  0.00    +0.001 A 
ATOM      6  C   UNL     1      -2.729  -1.415  25.008  0.00  0.00    -0.000 A 
ATOM     34  C   UNL     1      -3.389  -0.947  24.854  0.00  0.00    +0.001 A 
ATOM     35  C   UNL     1      -4.027  -1.258  24.434  0.00  0.00    +0.037 A 
BRANCH   3   2
ATOM      1  C   UNL     1      -4.596  -3.113  23.434  0.00  0.00    +0.252 C 
ATOM      2  O   UNL     1      -4.641  -2.350  23.746  0.00  0.00    -0.471 OA
ENDBRANCH   3   2
ENDBRANCH   7   6
ENDBRANCH   8   7
ENDBRANCH  11   9
ENDBRANCH  12  11
ENDBRANCH  13  12
BRANCH  20  23
ATOM     23  N   UNL     1      -2.859   3.644  25.291  0.00  0.00    -0.213 NA
BRANCH  23  24
ATOM     24  C   UNL     1      -3.458   3.586  24.727  0.00  0.00    +0.115 C 
BRANCH  24  25
ATOM     25  C   UNL     1      -4.166   3.204  24.914  0.00  0.00    -0.005 A 
ATOM     26  C   UNL     1      -4.463   2.618  24.415  0.00  0.00    -0.002 A 
ATOM     27  C   UNL     1      -5.169   2.236  24.602  0.00  0.00    +0.014 A 
ATOM     28  C   UNL     1      -5.580   2.441  25.288  0.00  0.00    +0.048 A 
ATOM     29  C   UNL     1      -5.283   3.027  25.788  0.00  0.00    +0.014 A 
ATOM     30  C   UNL     1      -4.576   3.408  25.600  0.00  0.00    -0.002 A 
BRANCH  28  31
ATOM     31  N   UNL     1      -6.287   2.059  25.475  0.00  0.00    -0.304 N 
ATOM     32  C   UNL     1      -6.526   1.993  26.262  0.00  0.00    +0.112 C 
ATOM     33  C   UNL     1      -6.755   1.742  24.873  0.00  0.00    +0.112 C 
ENDBRANCH  28  31
ENDBRANCH  24  25
ENDBRANCH  23  24
ENDBRANCH  20  23
TORSDOF 10
ENDMDL
MODEL 10
REMARK VINA RESULT:      -8.3      1.353      3.957
REMARK  Name = 
REMARK  10 active torsions:
REMARK  status: ('A' for Active; 'I' for Inactive)
REMARK    1  A    between atoms: O_2  and  C_3
REMARK    2  A    between atoms: C_6  and  C_7
REMARK    3  A    between atoms: C_7  and  N_8
REMARK    4  A    between atoms: C_9  and  C_11
REMARK    5  A    between atoms: C_11  and  C_12
REMARK    6  A    between atoms: C_12  and  C_13
REMARK    7  A    between atoms: C_20  and  N_23
REMARK    8  A    between atoms: N_23  and  C_24
REMARK    9  A    between atoms: C_24  and  C_25
REMARK   10  A    between atoms: C_28  and  N_31
REMARK                            x       y       z     vdW  Elec       q    Type
REMARK                         _______ _______ _______ _____ _____    ______ ____
ROOT
ATOM     13  C   UNL     1      -5.165   2.011  24.967  0.00  0.00    +0.080 C 
ATOM     14  C   UNL     1      -5.920   2.146  25.270  0.00  0.00    +0.131 C 
ATOM     15  N   UNL     1      -6.111   2.880  25.593  0.00  0.00    -0.203 NA
ATOM     16  C   UNL     1      -5.544   3.481  25.613  0.00  0.00    +0.256 C 
ATOM     17  O   UNL     1      -5.735   4.216  25.936  0.00  0.00    -0.272 OA
ATOM     18  C   UNL     1      -4.789   3.346  25.310  0.00  0.00    +0.138 C 
ATOM     19  C   UNL     1      -4.122   3.829  25.255  0.00  0.00    +0.044 C 
ATOM     20  C   UNL     1      -3.520   3.391  24.898  0.00  0.00    +0.091 C 
ATOM     21  C   UNL     1      -3.815   2.639  24.733  0.00  0.00    +0.090 C 
ATOM     22  N   UNL     1      -4.600   2.611  24.987  0.00  0.00    -0.265 NA
ENDROOT
BRANCH  13  12
ATOM     12  C   UNL     1      -4.976   1.275  24.644  0.00  0.00    +0.027 C 
BRANCH  12  11
ATOM     11  C   UNL     1      -5.001   0.599  25.115  0.00  0.00    +0.088 C 
BRANCH  11   9
ATOM      8  N   UNL     1      -3.973  -0.393  25.163  0.00  0.00    -0.201 NA
ATOM      9  C   UNL     1      -4.676  -0.107  24.840  0.00  0.00    +0.242 C 
ATOM     10  O   UNL     1      -5.055  -0.529  24.241  0.00  0.00    -0.273 OA
BRANCH   8   7
ATOM      7  C   UNL     1      -3.648  -1.099  24.888  0.00  0.00    +0.141 C 
BRANCH   7   6
ATOM      3  C   UNL     1      -1.271  -1.626  25.333  0.00  0.00    +0.139 A 
ATOM      4  C   UNL     1      -1.662  -1.061  25.792  0.00  0.00    +0.037 A 
ATOM      5  C   UNL     1      -2.454  -0.886  25.643  0.00  0.00    +0.001 A 
ATOM      6  C   UNL     1      -2.856  -1.275  25.037  0.00  0.00    -0.000 A 
ATOM     34  C   UNL     1      -2.466  -1.839  24.579  0.00  0.00    +0.001 A 
ATOM     35  C   UNL     1      -1.673  -2.015  24.727  0.00  0.00    +0.037 A 
BRANCH   3   2
ATOM      1  C   UNL     1       0.083  -1.711  24.884  0.00  0.00    +0.252 C 
ATOM      2  O   UNL     1      -0.479  -1.801  25.482  0.00  0.00    -0.471 OA
ENDBRANCH   3   2
ENDBRANCH   7   6
ENDBRANCH   8   7
ENDBRANCH  11   9
ENDBRANCH  12  11
ENDBRANCH  13  12
BRANCH  20  23
ATOM     23  N   UNL     1      -2.758   3.660  24.735  0.00  0.00    -0.213 NA
BRANCH  23  24
ATOM     24  C   UNL     1      -2.140   3.490  25.254  0.00  0.00    +0.115 C 
BRANCH  24  25
ATOM     25  C   UNL     1      -1.482   3.069  24.988  0.00  0.00    -0.005 A 
ATOM     26  C   UNL     1      -1.219   3.164  24.212  0.00  0.00    -0.002 A 
ATOM     27  C   UNL     1      -0.561   2.743  23.945  0.00  0.00    +0.014 A 
ATOM     28  C   UNL     1      -0.166   2.228  24.456  0.00  0.00    +0.048 A 
ATOM     29  C   UNL     1      -0.429   2.134  25.232  0.00  0.00    +0.014 A 
ATOM     30  C   UNL     1      -1.087   2.555  25.498  0.00  0.00    -0.002 A 
BRANCH  28  31
ATOM     31  N   UNL     1       0.491   1.808  24.188  0.00  0.00    -0.304 N 
ATOM     32  C   UNL     1       0.416   1.277  23.561  0.00  0.00    +0.112 C 
ATOM     33  C   UNL     1       1.226   1.918  24.549  0.00  0.00    +0.112 C 
ENDBRANCH  28  31
ENDBRANCH  24  25
ENDBRANCH  23  24
ENDBRANCH  20  23
TORSDOF 10
ENDMDL
