REMARK  Name = 
REMARK  4 active torsions:
REMARK  status: ('A' for Active; 'I' for Inactive)
REMARK    1  A    between atoms: C_3  and  C_9
REMARK    2  A    between atoms: C_9  and  C_11
REMARK    3  A    between atoms: C_14  and  N_15
REMARK    4  A    between atoms: C_16  and  C_18
REMARK                            x       y       z     vdW  Elec       q    Type
REMARK                         _______ _______ _______ _____ _____    ______ ____
ROOT
ATOM     11  C   UNL     1       5.001  -5.362   0.000  0.00  0.00    +0.010 A 
ATOM     12  C   UNL     1       5.716  -4.950   0.000  0.00  0.00    -0.000 A 
ATOM     13  C   UNL     1       6.430  -5.362   0.000  0.00  0.00    +0.016 A 
ATOM     14  C   UNL     1       6.430  -6.188   0.000  0.00  0.00    +0.074 A 
ATOM     24  C   UNL     1       5.716  -6.600   0.000  0.00  0.00    +0.016 A 
ATOM     25  C   UNL     1       5.001  -6.188   0.000  0.00  0.00    -0.000 A 
ENDROOT
BRANCH  14  15
ATOM     15  N   UNL     1       7.145  -6.600   0.000  0.00  0.00    -0.174 NA
ATOM     16  C   UNL     1       7.859  -6.188   0.000  0.00  0.00    +0.288 C 
ATOM     17  O   UNL     1       7.859  -5.362   0.000  0.00  0.00    -0.266 OA
BRANCH  16  18
ATOM     18  C   UNL     1       8.574  -6.600   0.000  0.00  0.00    +0.156 A 
ATOM     19  C   UNL     1       9.288  -6.188   0.000  0.00  0.00    +0.123 A 
ATOM     20  N   UNL     1      10.003  -6.600   0.000  0.00  0.00    -0.239 NA
ATOM     21  C   UNL     1      10.003  -7.425   0.000  0.00  0.00    +0.120 A 
ATOM     22  C   UNL     1       9.288  -7.838   0.000  0.00  0.00    +0.120 A 
ATOM     23  N   UNL     1       8.574  -7.425   0.000  0.00  0.00    -0.236 NA
ENDBRANCH  16  18
ENDBRANCH  14  15
BRANCH  11   9
ATOM      9  C   UNL     1       4.287  -4.950   0.000  0.00  0.00    +0.195 C 
ATOM     10  O   UNL     1       4.287  -4.125   0.000  0.00  0.00    -0.216 OA
BRANCH   9   3
ATOM      1  C   UNL     1       2.858  -4.125   0.000  0.00  0.00    +0.115 C 
ATOM      2  N   UNL     1       2.858  -4.950   0.000  0.00  0.00    -0.272 N 
ATOM      3  C   UNL     1       3.572  -5.362   0.000  0.00  0.00    +0.139 C 
ATOM      4  C   UNL     1       3.572  -6.188   0.000  0.00  0.00    +0.165 C 
ATOM      5  O   UNL     1       2.858  -6.600   0.000  0.00  0.00    -0.343 OA
ATOM      6  C   UNL     1       2.143  -6.188   0.000  0.00  0.00    +0.227 C 
ATOM      7  C   UNL     1       2.143  -5.362   0.000  0.00  0.00    +0.256 C 
ATOM      8  O   UNL     1       1.429  -4.950   0.000  0.00  0.00    -0.272 OA
ENDBRANCH   9   3
ENDBRANCH  11   9
TORSDOF 4
