MODEL 1
REMARK VINA RESULT:     -12.1      0.000      0.000
REMARK  Name = 
REMARK  3 active torsions:
REMARK  status: ('A' for Active; 'I' for Inactive)
REMARK    1  A    between atoms: C_7  and  C_9
REMARK    2  A    between atoms: N_12  and  C_13
REMARK    3  A    between atoms: C_13  and  C_14
REMARK                            x       y       z     vdW  Elec       q    Type
REMARK                         _______ _______ _______ _____ _____    ______ ____
ROOT
ATOM      9  C   UNL     1      -4.483   1.094  24.887  0.00  0.00    +0.094 C 
ATOM     10  C   UNL     1      -5.124   1.406  25.301  0.00  0.00    +0.028 C 
ATOM     11  C   UNL     1      -5.087   2.229  25.250  0.00  0.00    +0.073 C 
ATOM     12  N   UNL     1      -4.421   2.425  24.803  0.00  0.00    -0.267 NA
ATOM     20  C   UNL     1      -4.049   1.724  24.579  0.00  0.00    +0.082 C 
ENDROOT
BRANCH   9   7
ATOM      1 CL   UNL     1      -3.213  -3.022  25.161  0.00  0.00    -0.082 Cl
ATOM      2  C   UNL     1      -3.548  -2.327  24.871  0.00  0.00    +0.059 A 
ATOM      3  C   UNL     1      -3.517  -1.636  25.318  0.00  0.00    +0.034 A 
ATOM      4  C   UNL     1      -3.853  -0.940  25.027  0.00  0.00    +0.119 A 
ATOM      5  C   UNL     1      -4.221  -0.937  24.289  0.00  0.00    +0.164 A 
ATOM      6  O   UNL     1      -4.501  -0.175  24.146  0.00  0.00    -0.438 OA
ATOM      7  C   UNL     1      -4.307   0.293  24.796  0.00  0.00    +0.207 A 
ATOM      8  N   UNL     1      -3.907  -0.180  25.340  0.00  0.00    -0.212 NA
ATOM     21  C   UNL     1      -4.253  -1.630  23.841  0.00  0.00    +0.040 A 
ATOM     22  C   UNL     1      -3.916  -2.325  24.132  0.00  0.00    +0.015 A 
ENDBRANCH   9   7
BRANCH  12  13
ATOM     13  C   UNL     1      -4.172   3.188  24.613  0.00  0.00    +0.119 C 
BRANCH  13  14
ATOM     14  C   UNL     1      -3.510   3.512  24.986  0.00  0.00    +0.075 A 
ATOM     15  N   UNL     1      -2.773   3.482  24.616  0.00  0.00    -0.247 NA
ATOM     16  C   UNL     1      -2.112   3.805  24.988  0.00  0.00    +0.098 A 
ATOM     17  C   UNL     1      -2.187   4.157  25.730  0.00  0.00    +0.021 A 
ATOM     18  C   UNL     1      -2.924   4.187  26.100  0.00  0.00    +0.003 A 
ATOM     19  C   UNL     1      -3.586   3.864  25.728  0.00  0.00    +0.016 A 
ENDBRANCH  13  14
ENDBRANCH  12  13
TORSDOF 3
ENDMDL
MODEL 2
REMARK VINA RESULT:     -11.3      2.161      5.044
REMARK  Name = 
REMARK  3 active torsions:
REMARK  status: ('A' for Active; 'I' for Inactive)
REMARK    1  A    between atoms: C_7  and  C_9
REMARK    2  A    between atoms: N_12  and  C_13
REMARK    3  A    between atoms: C_13  and  C_14
REMARK                            x       y       z     vdW  Elec       q    Type
REMARK                         _______ _______ _______ _____ _____    ______ ____
ROOT
ATOM      9  C   UNL     1      -3.221   1.525  24.368  0.00  0.00    +0.094 C 
ATOM     10  C   UNL     1      -3.182   1.186  23.617  0.00  0.00    +0.028 C 
ATOM     11  C   UNL     1      -3.609   0.480  23.631  0.00  0.00    +0.073 C 
ATOM     12  N   UNL     1      -3.914   0.383  24.392  0.00  0.00    -0.267 NA
ATOM     20  C   UNL     1      -3.674   1.029  24.847  0.00  0.00    +0.082 C 
ENDROOT
BRANCH   9   7
ATOM      1 CL   UNL     1      -0.773   5.010  25.068  0.00  0.00    -0.082 Cl
ATOM      2  C   UNL     1      -1.399   4.476  25.111  0.00  0.00    +0.059 A 
ATOM      3  C   UNL     1      -1.380   3.781  24.668  0.00  0.00    +0.034 A 
ATOM      4  C   UNL     1      -2.007   3.246  24.711  0.00  0.00    +0.119 A 
ATOM      5  C   UNL     1      -2.654   3.408  25.197  0.00  0.00    +0.164 A 
ATOM      6  O   UNL     1      -3.187   2.783  25.128  0.00  0.00    -0.438 OA
ATOM      7  C   UNL     1      -2.871   2.235  24.599  0.00  0.00    +0.207 A 
ATOM      8  N   UNL     1      -2.141   2.522  24.342  0.00  0.00    -0.212 NA
ATOM     21  C   UNL     1      -2.674   4.104  25.640  0.00  0.00    +0.040 A 
ATOM     22  C   UNL     1      -2.046   4.637  25.597  0.00  0.00    +0.015 A 
ENDBRANCH   9   7
BRANCH  12  13
ATOM     13  C   UNL     1      -4.376  -0.248  24.652  0.00  0.00    +0.119 C 
BRANCH  13  14
ATOM     14  C   UNL     1      -4.054  -1.006  24.696  0.00  0.00    +0.075 A 
ATOM     15  N   UNL     1      -3.631  -1.237  25.367  0.00  0.00    -0.247 NA
ATOM     16  C   UNL     1      -3.309  -1.995  25.410  0.00  0.00    +0.098 A 
ATOM     17  C   UNL     1      -3.409  -2.523  24.784  0.00  0.00    +0.021 A 
ATOM     18  C   UNL     1      -3.832  -2.292  24.114  0.00  0.00    +0.003 A 
ATOM     19  C   UNL     1      -4.154  -1.534  24.070  0.00  0.00    +0.016 A 
ENDBRANCH  13  14
ENDBRANCH  12  13
TORSDOF 3
ENDMDL
MODEL 3
REMARK VINA RESULT:     -11.2      1.707      2.329
REMARK  Name = 
REMARK  3 active torsions:
REMARK  status: ('A' for Active; 'I' for Inactive)
REMARK    1  A    between atoms: C_7  and  C_9
REMARK    2  A    between atoms: N_12  and  C_13
REMARK    3  A    between atoms: C_13  and  C_14
REMARK                            x       y       z     vdW  Elec       q    Type
REMARK                         _______ _______ _______ _____ _____    ______ ____
ROOT
ATOM      9  C   UNL     1      -1.631   0.822  24.759  0.00  0.00    +0.094 C 
ATOM     10  C   UNL     1      -0.981   1.003  24.285  0.00  0.00    +0.028 C 
ATOM     11  C   UNL     1      -0.609   1.667  24.603  0.00  0.00    +0.073 C 
ATOM     12  N   UNL     1      -1.029   1.897  25.274  0.00  0.00    -0.267 NA
ATOM     20  C   UNL     1      -1.661   1.374  25.371  0.00  0.00    +0.082 C 
ENDROOT
BRANCH   9   7
ATOM      1 CL   UNL     1      -3.786  -2.907  24.470  0.00  0.00    -0.082 Cl
ATOM      2  C   UNL     1      -3.606  -2.104  24.416  0.00  0.00    +0.059 A 
ATOM      3  C   UNL     1      -2.873  -1.827  24.673  0.00  0.00    +0.034 A 
ATOM      4  C   UNL     1      -2.692  -1.024  24.618  0.00  0.00    +0.119 A 
ATOM      5  C   UNL     1      -3.246  -0.498  24.307  0.00  0.00    +0.164 A 
ATOM      6  O   UNL     1      -2.916   0.258  24.321  0.00  0.00    -0.438 OA
ATOM      7  C   UNL     1      -2.158   0.199  24.642  0.00  0.00    +0.207 A 
ATOM      8  N   UNL     1      -2.021  -0.594  24.825  0.00  0.00    -0.212 NA
ATOM     21  C   UNL     1      -3.980  -0.775  24.049  0.00  0.00    +0.040 A 
ATOM     22  C   UNL     1      -4.159  -1.578  24.104  0.00  0.00    +0.015 A 
ENDBRANCH   9   7
BRANCH  12  13
ATOM     13  C   UNL     1      -0.850   2.536  25.764  0.00  0.00    +0.119 C 
BRANCH  13  14
ATOM     14  C   UNL     1      -1.160   3.283  25.598  0.00  0.00    +0.075 A 
ATOM     15  N   UNL     1      -1.917   3.483  25.859  0.00  0.00    -0.247 NA
ATOM     16  C   UNL     1      -2.226   4.229  25.693  0.00  0.00    +0.098 A 
ATOM     17  C   UNL     1      -1.780   4.776  25.267  0.00  0.00    +0.021 A 
ATOM     18  C   UNL     1      -1.022   4.576  25.006  0.00  0.00    +0.003 A 
ATOM     19  C   UNL     1      -0.712   3.829  25.171  0.00  0.00    +0.016 A 
ENDBRANCH  13  14
ENDBRANCH  12  13
TORSDOF 3
ENDMDL
MODEL 4
REMARK VINA RESULT:      -9.4      1.898      2.558
REMARK  Name = 
REMARK  3 active torsions:
REMARK  status: ('A' for Active; 'I' for Inactive)
REMARK    1  A    between atoms: C_7  and  C_9
REMARK    2  A    between atoms: N_12  and  C_13
REMARK    3  A    between atoms: C_13  and  C_14
REMARK                            x       y       z     vdW  Elec       q    Type
REMARK                         _______ _______ _______ _____ _____    ______ ____
ROOT
ATOM      9  C   UNL     1      -2.428   1.301  24.627  0.00  0.00    +0.094 C 
ATOM     10  C   UNL     1      -2.058   2.020  24.789  0.00  0.00    +0.028 C 
ATOM     11  C   UNL     1      -2.592   2.626  24.621  0.00  0.00    +0.073 C 
ATOM     12  N   UNL     1      -3.293   2.281  24.355  0.00  0.00    -0.267 NA
ATOM     20  C   UNL     1      -3.191   1.462  24.359  0.00  0.00    +0.082 C 
ENDROOT
BRANCH   9   7
ATOM      1 CL   UNL     1      -0.010  -2.199  25.360  0.00  0.00    -0.082 Cl
ATOM      2  C   UNL     1      -0.649  -1.723  25.148  0.00  0.00    +0.059 A 
ATOM      3  C   UNL     1      -0.589  -0.903  25.204  0.00  0.00    +0.034 A 
ATOM      4  C   UNL     1      -1.228  -0.427  24.991  0.00  0.00    +0.119 A 
ATOM      5  C   UNL     1      -1.928  -0.772  24.722  0.00  0.00    +0.164 A 
ATOM      6  O   UNL     1      -2.462  -0.167  24.553  0.00  0.00    -0.438 OA
ATOM      7  C   UNL     1      -2.093   0.552  24.718  0.00  0.00    +0.207 A 
ATOM      8  N   UNL     1      -1.331   0.391  24.988  0.00  0.00    -0.212 NA
ATOM     21  C   UNL     1      -1.988  -1.593  24.666  0.00  0.00    +0.040 A 
ATOM     22  C   UNL     1      -1.348  -2.069  24.879  0.00  0.00    +0.015 A 
ENDBRANCH   9   7
BRANCH  12  13
ATOM     13  C   UNL     1      -3.975   2.683  24.126  0.00  0.00    +0.119 C 
BRANCH  13  14
ATOM     14  C   UNL     1      -4.592   2.791  24.664  0.00  0.00    +0.075 A 
ATOM     15  N   UNL     1      -4.568   3.419  25.200  0.00  0.00    -0.247 NA
ATOM     16  C   UNL     1      -5.185   3.525  25.737  0.00  0.00    +0.098 A 
ATOM     17  C   UNL     1      -5.825   3.006  25.740  0.00  0.00    +0.021 A 
ATOM     18  C   UNL     1      -5.849   2.378  25.204  0.00  0.00    +0.003 A 
ATOM     19  C   UNL     1      -5.232   2.270  24.666  0.00  0.00    +0.016 A 
ENDBRANCH  13  14
ENDBRANCH  12  13
TORSDOF 3
ENDMDL
