MODEL 1
REMARK VINA RESULT:     -10.4      0.000      0.000
REMARK  Name = 
REMARK  10 active torsions:
REMARK  status: ('A' for Active; 'I' for Inactive)
REMARK    1  A    between atoms: C_2  and  C_4
REMARK    2  A    between atoms: C_4  and  C_5
REMARK    3  A    between atoms: C_10  and  C_11
REMARK    4  A    between atoms: C_11  and  C_12
REMARK    5  A    between atoms: C_12  and  N_13
REMARK    6  A    between atoms: N_13  and  C_14
REMARK    7  A    between atoms: N_13  and  C_22
REMARK    8  A    between atoms: C_14  and  C_15
REMARK    9  A    between atoms: C_15  and  N_16
REMARK   10  A    between atoms: C_28  and  C_30
REMARK                            x       y       z     vdW  Elec       q    Type
REMARK                         _______ _______ _______ _____ _____    ______ ____
ROOT
ATOM      5  C   UNL     1      -1.772   0.566  24.275  0.00  0.00    +0.015 C 
ATOM      6  C   UNL     1      -1.719  -0.256  24.232  0.00  0.00    +0.022 C 
ATOM      7  C   UNL     1      -2.386  -0.721  24.375  0.00  0.00    +0.093 C 
ATOM      8  N   UNL     1      -3.105  -0.363  24.562  0.00  0.00    -0.280 N 
ATOM      9  C   UNL     1      -3.159   0.459  24.605  0.00  0.00    +0.093 C 
ATOM     10  C   UNL     1      -2.492   0.923  24.462  0.00  0.00    +0.022 C 
ATOM     28  C   UNL     1      -3.772  -0.827  24.705  0.00  0.00    +0.225 C 
ATOM     29  O   UNL     1      -4.491  -0.470  24.892  0.00  0.00    -0.275 OA
ENDROOT
BRANCH  28  30
ATOM     30  C   UNL     1      -3.719  -1.650  24.662  0.00  0.00    +0.077 C 
ATOM     31  C   UNL     1      -3.419  -2.079  25.300  0.00  0.00    +0.009 C 
ATOM     32  C   UNL     1      -3.365  -2.900  25.256  0.00  0.00    +0.000 C 
ATOM     33  C   UNL     1      -3.613  -3.295  24.574  0.00  0.00    +0.000 C 
ATOM     34  C   UNL     1      -3.913  -2.866  23.937  0.00  0.00    +0.000 C 
ATOM     35  C   UNL     1      -3.966  -2.043  23.980  0.00  0.00    +0.009 C 
ENDBRANCH  28  30
BRANCH   5   4
ATOM      4  C   UNL     1      -1.106   1.030  24.132  0.00  0.00    +0.114 C 
BRANCH   4   2
ATOM      1  O   UNL     1       0.109   0.533  24.696  0.00  0.00    -0.246 OA
ATOM      2  C   UNL     1      -0.367   0.674  24.038  0.00  0.00    +0.365 C 
ATOM      3  O   UNL     1      -0.106   0.459  23.286  0.00  0.00    -0.246 OA
ENDBRANCH   4   2
ENDBRANCH   5   4
BRANCH  10  11
ATOM     11  C   UNL     1      -2.546   1.745  24.505  0.00  0.00    +0.023 C 
BRANCH  11  12
ATOM     12  C   UNL     1      -2.943   2.099  25.137  0.00  0.00    +0.091 C 
BRANCH  12  13
ATOM     13  N   UNL     1      -3.226   2.872  25.065  0.00  0.00    -0.306 N 
BRANCH  13  22
ATOM     22  C   UNL     1      -4.024   3.032  25.196  0.00  0.00    +0.048 A 
ATOM     23  C   UNL     1      -4.334   2.989  25.960  0.00  0.00    +0.015 A 
ATOM     24  C   UNL     1      -5.132   3.149  26.091  0.00  0.00    +0.001 A 
ATOM     25  C   UNL     1      -5.621   3.352  25.458  0.00  0.00    +0.000 A 
ATOM     26  C   UNL     1      -5.312   3.395  24.695  0.00  0.00    +0.001 A 
ATOM     27  C   UNL     1      -4.513   3.235  24.564  0.00  0.00    +0.015 A 
ENDBRANCH  13  22
BRANCH  13  14
ATOM     14  C   UNL     1      -2.710   3.482  24.863  0.00  0.00    +0.108 C 
BRANCH  14  15
ATOM     15  C   UNL     1      -2.217   3.812  25.436  0.00  0.00    +0.094 C 
BRANCH  15  16
ATOM     16  N   UNL     1      -1.675   4.398  25.227  0.00  0.00    -0.267 NA
ATOM     17  C   UNL     1      -0.904   4.191  25.021  0.00  0.00    +0.105 C 
ATOM     18  C   UNL     1      -0.362   4.777  24.811  0.00  0.00    +0.159 C 
ATOM     19  O   UNL     1      -0.591   5.570  24.807  0.00  0.00    -0.351 OA
ATOM     20  C   UNL     1      -1.363   5.776  25.014  0.00  0.00    +0.159 C 
ATOM     21  C   UNL     1      -1.905   5.191  25.223  0.00  0.00    +0.105 C 
ENDBRANCH  15  16
ENDBRANCH  14  15
ENDBRANCH  13  14
ENDBRANCH  12  13
ENDBRANCH  11  12
ENDBRANCH  10  11
TORSDOF 10
ENDMDL
MODEL 2
REMARK VINA RESULT:     -10.3      1.197      2.576
REMARK  Name = 
REMARK  10 active torsions:
REMARK  status: ('A' for Active; 'I' for Inactive)
REMARK    1  A    between atoms: C_2  and  C_4
REMARK    2  A    between atoms: C_4  and  C_5
REMARK    3  A    between atoms: C_10  and  C_11
REMARK    4  A    between atoms: C_11  and  C_12
REMARK    5  A    between atoms: C_12  and  N_13
REMARK    6  A    between atoms: N_13  and  C_14
REMARK    7  A    between atoms: N_13  and  C_22
REMARK    8  A    between atoms: C_14  and  C_15
REMARK    9  A    between atoms: C_15  and  N_16
REMARK   10  A    between atoms: C_28  and  C_30
REMARK                            x       y       z     vdW  Elec       q    Type
REMARK                         _______ _______ _______ _____ _____    ______ ____
ROOT
ATOM      5  C   UNL     1      -1.335   0.205  24.507  0.00  0.00    +0.015 C 
ATOM      6  C   UNL     1      -1.443  -0.589  24.316  0.00  0.00    +0.022 C 
ATOM      7  C   UNL     1      -2.177  -0.947  24.435  0.00  0.00    +0.093 C 
ATOM      8  N   UNL     1      -2.804  -0.508  24.745  0.00  0.00    -0.280 N 
ATOM      9  C   UNL     1      -2.696   0.288  24.936  0.00  0.00    +0.093 C 
ATOM     10  C   UNL     1      -1.961   0.644  24.817  0.00  0.00    +0.022 C 
ATOM     28  C   UNL     1      -3.538  -0.864  24.864  0.00  0.00    +0.225 C 
ATOM     29  O   UNL     1      -4.163  -0.426  25.174  0.00  0.00    -0.275 OA
ENDROOT
BRANCH  28  30
ATOM     30  C   UNL     1      -3.646  -1.660  24.673  0.00  0.00    +0.077 C 
ATOM     31  C   UNL     1      -3.390  -2.248  25.192  0.00  0.00    +0.009 C 
ATOM     32  C   UNL     1      -3.498  -3.042  25.000  0.00  0.00    +0.000 C 
ATOM     33  C   UNL     1      -3.862  -3.250  24.290  0.00  0.00    +0.000 C 
ATOM     34  C   UNL     1      -4.119  -2.663  23.771  0.00  0.00    +0.000 C 
ATOM     35  C   UNL     1      -4.011  -1.867  23.962  0.00  0.00    +0.009 C 
ENDBRANCH  28  30
BRANCH   5   4
ATOM      4  C   UNL     1      -0.601   0.562  24.388  0.00  0.00    +0.114 C 
BRANCH   4   2
ATOM      1  O   UNL     1       0.171   0.358  23.202  0.00  0.00    -0.246 OA
ATOM      2  C   UNL     1      -0.006   0.157  23.983  0.00  0.00    +0.365 C 
ATOM      3  O   UNL     1       0.410  -0.448  24.358  0.00  0.00    -0.246 OA
ENDBRANCH   4   2
ENDBRANCH   5   4
BRANCH  10  11
ATOM     11  C   UNL     1      -1.854   1.439  25.008  0.00  0.00    +0.023 C 
BRANCH  11  12
ATOM     12  C   UNL     1      -2.244   2.024  24.575  0.00  0.00    +0.091 C 
BRANCH  12  13
ATOM     13  N   UNL     1      -2.387   2.762  24.914  0.00  0.00    -0.306 N 
BRANCH  13  22
ATOM     22  C   UNL     1      -1.795   3.336  24.920  0.00  0.00    +0.048 A 
ATOM     23  C   UNL     1      -1.493   3.611  25.637  0.00  0.00    +0.015 A 
ATOM     24  C   UNL     1      -0.901   4.185  25.642  0.00  0.00    +0.001 A 
ATOM     25  C   UNL     1      -0.610   4.483  24.930  0.00  0.00    +0.000 A 
ATOM     26  C   UNL     1      -0.911   4.209  24.214  0.00  0.00    +0.001 A 
ATOM     27  C   UNL     1      -1.504   3.635  24.208  0.00  0.00    +0.015 A 
ENDBRANCH  13  22
BRANCH  13  14
ATOM     14  C   UNL     1      -3.124   2.926  25.248  0.00  0.00    +0.108 C 
BRANCH  14  15
ATOM     15  C   UNL     1      -3.781   3.034  24.762  0.00  0.00    +0.094 C 
BRANCH  15  16
ATOM     16  N   UNL     1      -4.524   3.169  25.097  0.00  0.00    -0.267 NA
ATOM     17  C   UNL     1      -5.080   2.560  25.123  0.00  0.00    +0.105 C 
ATOM     18  C   UNL     1      -5.822   2.695  25.458  0.00  0.00    +0.159 C 
ATOM     19  O   UNL     1      -6.008   3.438  25.765  0.00  0.00    -0.351 OA
ATOM     20  C   UNL     1      -5.451   4.046  25.738  0.00  0.00    +0.159 C 
ATOM     21  C   UNL     1      -4.709   3.912  25.404  0.00  0.00    +0.105 C 
ENDBRANCH  15  16
ENDBRANCH  14  15
ENDBRANCH  13  14
ENDBRANCH  12  13
ENDBRANCH  11  12
ENDBRANCH  10  11
TORSDOF 10
ENDMDL
MODEL 3
REMARK VINA RESULT:      -9.7      1.758      4.393
REMARK  Name = 
REMARK  10 active torsions:
REMARK  status: ('A' for Active; 'I' for Inactive)
REMARK    1  A    between atoms: C_2  and  C_4
REMARK    2  A    between atoms: C_4  and  C_5
REMARK    3  A    between atoms: C_10  and  C_11
REMARK    4  A    between atoms: C_11  and  C_12
REMARK    5  A    between atoms: C_12  and  N_13
REMARK    6  A    between atoms: N_13  and  C_14
REMARK    7  A    between atoms: N_13  and  C_22
REMARK    8  A    between atoms: C_14  and  C_15
REMARK    9  A    between atoms: C_15  and  N_16
REMARK   10  A    between atoms: C_28  and  C_30
REMARK                            x       y       z     vdW  Elec       q    Type
REMARK                         _______ _______ _______ _____ _____    ______ ____
ROOT
ATOM      5  C   UNL     1      -0.683   1.637  24.643  0.00  0.00    +0.015 C 
ATOM      6  C   UNL     1       0.071   1.721  24.320  0.00  0.00    +0.022 C 
ATOM      7  C   UNL     1       0.410   1.101  23.894  0.00  0.00    +0.093 C 
ATOM      8  N   UNL     1      -0.006   0.396  23.791  0.00  0.00    -0.280 N 
ATOM      9  C   UNL     1      -0.762   0.312  24.114  0.00  0.00    +0.093 C 
ATOM     10  C   UNL     1      -1.099   0.932  24.540  0.00  0.00    +0.022 C 
ATOM     28  C   UNL     1       0.331  -0.224  23.365  0.00  0.00    +0.225 C 
ATOM     29  O   UNL     1      -0.085  -0.928  23.262  0.00  0.00    -0.275 OA
ENDROOT
BRANCH  28  30
ATOM     30  C   UNL     1       1.086  -0.140  23.042  0.00  0.00    +0.077 C 
ATOM     31  C   UNL     1       1.748  -0.145  23.534  0.00  0.00    +0.009 C 
ATOM     32  C   UNL     1       2.502  -0.060  23.211  0.00  0.00    +0.000 C 
ATOM     33  C   UNL     1       2.595   0.030  22.396  0.00  0.00    +0.000 C 
ATOM     34  C   UNL     1       1.932   0.035  21.904  0.00  0.00    +0.000 C 
ATOM     35  C   UNL     1       1.177  -0.050  22.227  0.00  0.00    +0.009 C 
ENDBRANCH  28  30
BRANCH   5   4
ATOM      4  C   UNL     1      -1.021   2.257  25.069  0.00  0.00    +0.114 C 
BRANCH   4   2
ATOM      1  O   UNL     1      -0.104   2.928  25.936  0.00  0.00    -0.246 OA
ATOM      2  C   UNL     1      -0.570   2.923  25.255  0.00  0.00    +0.365 C 
ATOM      3  O   UNL     1      -0.587   3.583  24.761  0.00  0.00    -0.246 OA
ENDBRANCH   4   2
ENDBRANCH   5   4
BRANCH  10  11
ATOM     11  C   UNL     1      -1.853   0.847  24.863  0.00  0.00    +0.023 C 
BRANCH  11  12
ATOM     12  C   UNL     1      -2.455   0.498  24.418  0.00  0.00    +0.091 C 
BRANCH  12  13
ATOM     13  N   UNL     1      -3.155   0.261  24.786  0.00  0.00    -0.306 N 
BRANCH  13  22
ATOM     22  C   UNL     1      -3.340  -0.539  24.844  0.00  0.00    +0.048 A 
ATOM     23  C   UNL     1      -3.587  -0.956  24.175  0.00  0.00    +0.015 A 
ATOM     24  C   UNL     1      -3.772  -1.758  24.234  0.00  0.00    +0.001 A 
ATOM     25  C   UNL     1      -3.710  -2.143  24.961  0.00  0.00    +0.000 A 
ATOM     26  C   UNL     1      -3.463  -1.727  25.629  0.00  0.00    +0.001 A 
ATOM     27  C   UNL     1      -3.278  -0.925  25.570  0.00  0.00    +0.015 A 
ENDBRANCH  13  22
BRANCH  13  14
ATOM     14  C   UNL     1      -3.670   0.828  25.094  0.00  0.00    +0.108 C 
BRANCH  14  15
ATOM     15  C   UNL     1      -4.147   1.269  24.586  0.00  0.00    +0.094 C 
BRANCH  15  16
ATOM     16  N   UNL     1      -4.661   1.838  24.894  0.00  0.00    -0.267 NA
ATOM     17  C   UNL     1      -4.415   2.623  24.959  0.00  0.00    +0.105 C 
ATOM     18  C   UNL     1      -4.929   3.191  25.267  0.00  0.00    +0.159 C 
ATOM     19  O   UNL     1      -5.687   2.974  25.510  0.00  0.00    -0.351 OA
ATOM     20  C   UNL     1      -5.931   2.188  25.445  0.00  0.00    +0.159 C 
ATOM     21  C   UNL     1      -5.419   1.621  25.137  0.00  0.00    +0.105 C 
ENDBRANCH  15  16
ENDBRANCH  14  15
ENDBRANCH  13  14
ENDBRANCH  12  13
ENDBRANCH  11  12
ENDBRANCH  10  11
TORSDOF 10
ENDMDL
MODEL 4
REMARK VINA RESULT:      -9.6      1.937      4.980
REMARK  Name = 
REMARK  10 active torsions:
REMARK  status: ('A' for Active; 'I' for Inactive)
REMARK    1  A    between atoms: C_2  and  C_4
REMARK    2  A    between atoms: C_4  and  C_5
REMARK    3  A    between atoms: C_10  and  C_11
REMARK    4  A    between atoms: C_11  and  C_12
REMARK    5  A    between atoms: C_12  and  N_13
REMARK    6  A    between atoms: N_13  and  C_14
REMARK    7  A    between atoms: N_13  and  C_22
REMARK    8  A    between atoms: C_14  and  C_15
REMARK    9  A    between atoms: C_15  and  N_16
REMARK   10  A    between atoms: C_28  and  C_30
REMARK                            x       y       z     vdW  Elec       q    Type
REMARK                         _______ _______ _______ _____ _____    ______ ____
ROOT
ATOM      5  C   UNL     1      -1.118   2.078  25.439  0.00  0.00    +0.015 C 
ATOM      6  C   UNL     1      -1.638   2.701  25.584  0.00  0.00    +0.022 C 
ATOM      7  C   UNL     1      -2.421   2.654  25.327  0.00  0.00    +0.093 C 
ATOM      8  N   UNL     1      -2.683   1.983  24.925  0.00  0.00    -0.280 N 
ATOM      9  C   UNL     1      -2.162   1.359  24.780  0.00  0.00    +0.093 C 
ATOM     10  C   UNL     1      -1.380   1.407  25.037  0.00  0.00    +0.022 C 
ATOM     28  C   UNL     1      -3.465   1.935  24.667  0.00  0.00    +0.225 C 
ATOM     29  O   UNL     1      -3.726   1.264  24.265  0.00  0.00    -0.275 OA
ENDROOT
BRANCH  28  30
ATOM     30  C   UNL     1      -3.986   2.559  24.812  0.00  0.00    +0.077 C 
ATOM     31  C   UNL     1      -3.991   3.216  24.313  0.00  0.00    +0.009 C 
ATOM     32  C   UNL     1      -4.512   3.839  24.458  0.00  0.00    +0.000 C 
ATOM     33  C   UNL     1      -5.027   3.806  25.101  0.00  0.00    +0.000 C 
ATOM     34  C   UNL     1      -5.021   3.149  25.600  0.00  0.00    +0.000 C 
ATOM     35  C   UNL     1      -4.500   2.524  25.455  0.00  0.00    +0.009 C 
ENDBRANCH  28  30
BRANCH   5   4
ATOM      4  C   UNL     1      -0.336   2.126  25.697  0.00  0.00    +0.114 C 
BRANCH   4   2
ATOM      1  O   UNL     1       0.105   3.478  25.843  0.00  0.00    -0.246 OA
ATOM      2  C   UNL     1      -0.098   2.752  26.180  0.00  0.00    +0.365 C 
ATOM      3  O   UNL     1      -0.063   2.651  26.997  0.00  0.00    -0.246 OA
ENDBRANCH   4   2
ENDBRANCH   5   4
BRANCH  10  11
ATOM     11  C   UNL     1      -0.860   0.783  24.892  0.00  0.00    +0.023 C 
BRANCH  11  12
ATOM     12  C   UNL     1      -1.019   0.246  24.286  0.00  0.00    +0.091 C 
BRANCH  12  13
ATOM     13  N   UNL     1      -0.561  -0.436  24.208  0.00  0.00    -0.306 N 
BRANCH  13  22
ATOM     22  C   UNL     1      -0.861  -1.164  24.450  0.00  0.00    +0.048 A 
ATOM     23  C   UNL     1      -0.539  -1.545  25.108  0.00  0.00    +0.015 A 
ATOM     24  C   UNL     1      -0.839  -2.274  25.350  0.00  0.00    +0.001 A 
ATOM     25  C   UNL     1      -1.462  -2.622  24.935  0.00  0.00    +0.000 A 
ATOM     26  C   UNL     1      -1.784  -2.242  24.278  0.00  0.00    +0.001 A 
ATOM     27  C   UNL     1      -1.483  -1.513  24.036  0.00  0.00    +0.015 A 
ENDBRANCH  13  22
BRANCH  13  14
ATOM     14  C   UNL     1       0.198  -0.388  23.887  0.00  0.00    +0.108 C 
BRANCH  14  15
ATOM     15  C   UNL     1       0.309  -0.050  23.143  0.00  0.00    +0.094 C 
BRANCH  15  16
ATOM     16  N   UNL     1       1.065  -0.023  22.812  0.00  0.00    -0.267 NA
ATOM     17  C   UNL     1       1.208  -0.381  22.082  0.00  0.00    +0.105 C 
ATOM     18  C   UNL     1       1.964  -0.353  21.751  0.00  0.00    +0.159 C 
ATOM     19  O   UNL     1       2.575   0.032  22.149  0.00  0.00    -0.351 OA
ATOM     20  C   UNL     1       2.431   0.389  22.879  0.00  0.00    +0.159 C 
ATOM     21  C   UNL     1       1.676   0.362  23.210  0.00  0.00    +0.105 C 
ENDBRANCH  15  16
ENDBRANCH  14  15
ENDBRANCH  13  14
ENDBRANCH  12  13
ENDBRANCH  11  12
ENDBRANCH  10  11
TORSDOF 10
ENDMDL
MODEL 5
REMARK VINA RESULT:      -9.5      1.439      3.065
REMARK  Name = 
REMARK  10 active torsions:
REMARK  status: ('A' for Active; 'I' for Inactive)
REMARK    1  A    between atoms: C_2  and  C_4
REMARK    2  A    between atoms: C_4  and  C_5
REMARK    3  A    between atoms: C_10  and  C_11
REMARK    4  A    between atoms: C_11  and  C_12
REMARK    5  A    between atoms: C_12  and  N_13
REMARK    6  A    between atoms: N_13  and  C_14
REMARK    7  A    between atoms: N_13  and  C_22
REMARK    8  A    between atoms: C_14  and  C_15
REMARK    9  A    between atoms: C_15  and  N_16
REMARK   10  A    between atoms: C_28  and  C_30
REMARK                            x       y       z     vdW  Elec       q    Type
REMARK                         _______ _______ _______ _____ _____    ______ ____
ROOT
ATOM      5  C   UNL     1      -4.359   1.140  24.846  0.00  0.00    +0.015 C 
ATOM      6  C   UNL     1      -4.741   0.409  24.847  0.00  0.00    +0.022 C 
ATOM      7  C   UNL     1      -4.319  -0.278  24.675  0.00  0.00    +0.093 C 
ATOM      8  N   UNL     1      -3.514  -0.235  24.502  0.00  0.00    -0.280 N 
ATOM      9  C   UNL     1      -3.130   0.497  24.501  0.00  0.00    +0.093 C 
ATOM     10  C   UNL     1      -3.554   1.183  24.673  0.00  0.00    +0.022 C 
ATOM     28  C   UNL     1      -3.090  -0.922  24.330  0.00  0.00    +0.225 C 
ATOM     29  O   UNL     1      -2.286  -0.878  24.157  0.00  0.00    -0.275 OA
ENDROOT
BRANCH  28  30
ATOM     30  C   UNL     1      -3.474  -1.653  24.331  0.00  0.00    +0.077 C 
ATOM     31  C   UNL     1      -3.980  -1.854  23.712  0.00  0.00    +0.009 C 
ATOM     32  C   UNL     1      -4.363  -2.585  23.713  0.00  0.00    +0.000 C 
ATOM     33  C   UNL     1      -4.239  -3.115  24.333  0.00  0.00    +0.000 C 
ATOM     34  C   UNL     1      -3.733  -2.913  24.953  0.00  0.00    +0.000 C 
ATOM     35  C   UNL     1      -3.349  -2.182  24.952  0.00  0.00    +0.009 C 
ENDBRANCH  28  30
BRANCH   5   4
ATOM      4  C   UNL     1      -4.781   1.827  25.018  0.00  0.00    +0.114 C 
BRANCH   4   2
ATOM      1  O   UNL     1      -5.810   1.702  26.003  0.00  0.00    -0.246 OA
ATOM      2  C   UNL     1      -5.583   1.781  25.213  0.00  0.00    +0.365 C 
ATOM      3  O   UNL     1      -6.154   1.813  24.620  0.00  0.00    -0.246 OA
ENDBRANCH   4   2
ENDBRANCH   5   4
BRANCH  10  11
ATOM     11  C   UNL     1      -3.170   1.914  24.672  0.00  0.00    +0.023 C 
BRANCH  11  12
ATOM     12  C   UNL     1      -2.516   2.037  25.160  0.00  0.00    +0.091 C 
BRANCH  12  13
ATOM     13  N   UNL     1      -1.963   2.619  24.969  0.00  0.00    -0.306 N 
BRANCH  13  22
ATOM     22  C   UNL     1      -2.085   3.398  25.210  0.00  0.00    +0.048 A 
ATOM     23  C   UNL     1      -2.200   3.570  26.009  0.00  0.00    +0.015 A 
ATOM     24  C   UNL     1      -2.322   4.350  26.250  0.00  0.00    +0.001 A 
ATOM     25  C   UNL     1      -2.329   4.957  25.691  0.00  0.00    +0.000 A 
ATOM     26  C   UNL     1      -2.214   4.785  24.893  0.00  0.00    +0.001 A 
ATOM     27  C   UNL     1      -2.092   4.006  24.652  0.00  0.00    +0.015 A 
ENDBRANCH  13  22
BRANCH  13  14
ATOM     14  C   UNL     1      -1.288   2.421  24.538  0.00  0.00    +0.108 C 
BRANCH  14  15
ATOM     15  C   UNL     1      -0.676   2.003  24.901  0.00  0.00    +0.094 C 
BRANCH  15  16
ATOM     16  N   UNL     1      -0.037   1.736  24.452  0.00  0.00    -0.267 NA
ATOM     17  C   UNL     1       0.560   2.262  24.233  0.00  0.00    +0.105 C 
ATOM     18  C   UNL     1       1.200   1.994  23.784  0.00  0.00    +0.159 C 
ATOM     19  O   UNL     1       1.242   1.203  23.555  0.00  0.00    -0.351 OA
ATOM     20  C   UNL     1       0.644   0.678  23.776  0.00  0.00    +0.159 C 
ATOM     21  C   UNL     1       0.005   0.945  24.224  0.00  0.00    +0.105 C 
ENDBRANCH  15  16
ENDBRANCH  14  15
ENDBRANCH  13  14
ENDBRANCH  12  13
ENDBRANCH  11  12
ENDBRANCH  10  11
TORSDOF 10
ENDMDL
MODEL 6
REMARK VINA RESULT:      -9.4      1.294      5.305
REMARK  Name = 
REMARK  10 active torsions:
REMARK  status: ('A' for Active; 'I' for Inactive)
REMARK    1  A    between atoms: C_2  and  C_4
REMARK    2  A    between atoms: C_4  and  C_5
REMARK    3  A    between atoms: C_10  and  C_11
REMARK    4  A    between atoms: C_11  and  C_12
REMARK    5  A    between atoms: C_12  and  N_13
REMARK    6  A    between atoms: N_13  and  C_14
REMARK    7  A    between atoms: N_13  and  C_22
REMARK    8  A    between atoms: C_14  and  C_15
REMARK    9  A    between atoms: C_15  and  N_16
REMARK   10  A    between atoms: C_28  and  C_30
REMARK                            x       y       z     vdW  Elec       q    Type
REMARK                         _______ _______ _______ _____ _____    ______ ____
ROOT
ATOM      5  C   UNL     1      -4.081   1.856  24.814  0.00  0.00    +0.015 C 
ATOM      6  C   UNL     1      -4.125   2.667  24.957  0.00  0.00    +0.022 C 
ATOM      7  C   UNL     1      -3.435   3.105  25.065  0.00  0.00    +0.093 C 
ATOM      8  N   UNL     1      -2.700   2.732  25.030  0.00  0.00    -0.280 N 
ATOM      9  C   UNL     1      -2.655   1.921  24.886  0.00  0.00    +0.093 C 
ATOM     10  C   UNL     1      -3.346   1.483  24.778  0.00  0.00    +0.022 C 
ATOM     28  C   UNL     1      -2.009   3.170  25.138  0.00  0.00    +0.225 C 
ATOM     29  O   UNL     1      -1.275   2.797  25.102  0.00  0.00    -0.275 OA
ENDROOT
BRANCH  28  30
ATOM     30  C   UNL     1      -2.054   3.982  25.281  0.00  0.00    +0.077 C 
ATOM     31  C   UNL     1      -2.445   4.262  25.952  0.00  0.00    +0.009 C 
ATOM     32  C   UNL     1      -2.489   5.072  26.095  0.00  0.00    +0.000 C 
ATOM     33  C   UNL     1      -2.142   5.604  25.568  0.00  0.00    +0.000 C 
ATOM     34  C   UNL     1      -1.751   5.325  24.898  0.00  0.00    +0.000 C 
ATOM     35  C   UNL     1      -1.706   4.513  24.754  0.00  0.00    +0.009 C 
ENDBRANCH  28  30
BRANCH   5   4
ATOM      4  C   UNL     1      -4.771   1.418  24.706  0.00  0.00    +0.114 C 
BRANCH   4   2
ATOM      1  O   UNL     1      -5.711   1.568  25.773  0.00  0.00    -0.246 OA
ATOM      2  C   UNL     1      -5.491   1.706  24.990  0.00  0.00    +0.365 C 
ATOM      3  O   UNL     1      -5.990   2.131  24.490  0.00  0.00    -0.246 OA
ENDBRANCH   4   2
ENDBRANCH   5   4
BRANCH  10  11
ATOM     11  C   UNL     1      -3.301   0.672  24.635  0.00  0.00    +0.023 C 
BRANCH  11  12
ATOM     12  C   UNL     1      -2.726   0.217  25.016  0.00  0.00    +0.091 C 
BRANCH  12  13
ATOM     13  N   UNL     1      -2.463  -0.486  24.673  0.00  0.00    -0.306 N 
BRANCH  13  22
ATOM     22  C   UNL     1      -2.878  -1.187  24.801  0.00  0.00    +0.048 A 
ATOM     23  C   UNL     1      -3.231  -1.579  24.166  0.00  0.00    +0.015 A 
ATOM     24  C   UNL     1      -3.646  -2.281  24.293  0.00  0.00    +0.001 A 
ATOM     25  C   UNL     1      -3.708  -2.590  25.056  0.00  0.00    +0.000 A 
ATOM     26  C   UNL     1      -3.355  -2.199  25.690  0.00  0.00    +0.001 A 
ATOM     27  C   UNL     1      -2.940  -1.497  25.562  0.00  0.00    +0.015 A 
ENDBRANCH  13  22
BRANCH  13  14
ATOM     14  C   UNL     1      -1.785  -0.487  24.204  0.00  0.00    +0.108 C 
BRANCH  14  15
ATOM     15  C   UNL     1      -1.044  -0.384  24.551  0.00  0.00    +0.094 C 
BRANCH  15  16
ATOM     16  N   UNL     1      -0.368  -0.356  24.078  0.00  0.00    -0.267 NA
ATOM     17  C   UNL     1       0.117  -1.020  24.013  0.00  0.00    +0.105 C 
ATOM     18  C   UNL     1       0.794  -0.991  23.541  0.00  0.00    +0.159 C 
ATOM     19  O   UNL     1       0.984  -0.299  23.134  0.00  0.00    -0.351 OA
ATOM     20  C   UNL     1       0.498   0.364  23.200  0.00  0.00    +0.159 C 
ATOM     21  C   UNL     1      -0.177   0.336  23.671  0.00  0.00    +0.105 C 
ENDBRANCH  15  16
ENDBRANCH  14  15
ENDBRANCH  13  14
ENDBRANCH  12  13
ENDBRANCH  11  12
ENDBRANCH  10  11
TORSDOF 10
ENDMDL
MODEL 7
REMARK VINA RESULT:      -9.1      1.296      4.879
REMARK  Name = 
REMARK  10 active torsions:
REMARK  status: ('A' for Active; 'I' for Inactive)
REMARK    1  A    between atoms: C_2  and  C_4
REMARK    2  A    between atoms: C_4  and  C_5
REMARK    3  A    between atoms: C_10  and  C_11
REMARK    4  A    between atoms: C_11  and  C_12
REMARK    5  A    between atoms: C_12  and  N_13
REMARK    6  A    between atoms: N_13  and  C_14
REMARK    7  A    between atoms: N_13  and  C_22
REMARK    8  A    between atoms: C_14  and  C_15
REMARK    9  A    between atoms: C_15  and  N_16
REMARK   10  A    between atoms: C_28  and  C_30
REMARK                            x       y       z     vdW  Elec       q    Type
REMARK                         _______ _______ _______ _____ _____    ______ ____
ROOT
ATOM      5  C   UNL     1      -1.248   1.007  24.239  0.00  0.00    +0.015 C 
ATOM      6  C   UNL     1      -0.792   1.684  24.126  0.00  0.00    +0.022 C 
ATOM      7  C   UNL     1      -1.034   2.404  24.450  0.00  0.00    +0.093 C 
ATOM      8  N   UNL     1      -1.732   2.445  24.887  0.00  0.00    -0.280 N 
ATOM      9  C   UNL     1      -2.188   1.766  25.002  0.00  0.00    +0.093 C 
ATOM     10  C   UNL     1      -1.946   1.048  24.677  0.00  0.00    +0.022 C 
ATOM     28  C   UNL     1      -1.974   3.163  25.212  0.00  0.00    +0.225 C 
ATOM     29  O   UNL     1      -2.671   3.204  25.649  0.00  0.00    -0.275 OA
ENDROOT
BRANCH  28  30
ATOM     30  C   UNL     1      -1.518   3.842  25.098  0.00  0.00    +0.077 C 
ATOM     31  C   UNL     1      -0.742   3.869  25.377  0.00  0.00    +0.009 C 
ATOM     32  C   UNL     1      -0.287   4.547  25.263  0.00  0.00    +0.000 C 
ATOM     33  C   UNL     1      -0.606   5.198  24.870  0.00  0.00    +0.000 C 
ATOM     34  C   UNL     1      -1.382   5.171  24.590  0.00  0.00    +0.000 C 
ATOM     35  C   UNL     1      -1.838   4.492  24.704  0.00  0.00    +0.009 C 
ENDBRANCH  28  30
BRANCH   5   4
ATOM      4  C   UNL     1      -1.006   0.288  23.916  0.00  0.00    +0.114 C 
BRANCH   4   2
ATOM      1  O   UNL     1       0.197  -0.300  24.417  0.00  0.00    -0.246 OA
ATOM      2  C   UNL     1      -0.201   0.123  23.831  0.00  0.00    +0.365 C 
ATOM      3  O   UNL     1       0.204   0.382  23.161  0.00  0.00    -0.246 OA
ENDBRANCH   4   2
ENDBRANCH   5   4
BRANCH  10  11
ATOM     11  C   UNL     1      -2.402   0.370  24.791  0.00  0.00    +0.023 C 
BRANCH  11  12
ATOM     12  C   UNL     1      -3.115   0.280  24.386  0.00  0.00    +0.091 C 
BRANCH  12  13
ATOM     13  N   UNL     1      -3.731  -0.154  24.724  0.00  0.00    -0.306 N 
BRANCH  13  22
ATOM     22  C   UNL     1      -3.747  -0.974  24.645  0.00  0.00    +0.048 A 
ATOM     23  C   UNL     1      -3.993  -1.316  23.935  0.00  0.00    +0.015 A 
ATOM     24  C   UNL     1      -4.010  -2.137  23.856  0.00  0.00    +0.001 A 
ATOM     25  C   UNL     1      -3.781  -2.617  24.488  0.00  0.00    +0.000 A 
ATOM     26  C   UNL     1      -3.536  -2.276  25.197  0.00  0.00    +0.001 A 
ATOM     27  C   UNL     1      -3.519  -1.455  25.276  0.00  0.00    +0.015 A 
ENDBRANCH  13  22
BRANCH  13  14
ATOM     14  C   UNL     1      -4.328   0.233  25.140  0.00  0.00    +0.108 C 
BRANCH  14  15
ATOM     15  C   UNL     1      -4.918   0.639  24.730  0.00  0.00    +0.094 C 
BRANCH  15  16
ATOM     16  N   UNL     1      -5.363   1.218  25.115  0.00  0.00    -0.267 NA
ATOM     17  C   UNL     1      -5.530   1.930  24.734  0.00  0.00    +0.105 C 
ATOM     18  C   UNL     1      -5.975   2.509  25.119  0.00  0.00    +0.159 C 
ATOM     19  O   UNL     1      -6.252   2.376  25.884  0.00  0.00    -0.351 OA
ATOM     20  C   UNL     1      -6.085   1.663  26.265  0.00  0.00    +0.159 C 
ATOM     21  C   UNL     1      -5.640   1.084  25.881  0.00  0.00    +0.105 C 
ENDBRANCH  15  16
ENDBRANCH  14  15
ENDBRANCH  13  14
ENDBRANCH  12  13
ENDBRANCH  11  12
ENDBRANCH  10  11
TORSDOF 10
ENDMDL
MODEL 8
REMARK VINA RESULT:      -9.1      1.845      4.272
REMARK  Name = 
REMARK  10 active torsions:
REMARK  status: ('A' for Active; 'I' for Inactive)
REMARK    1  A    between atoms: C_2  and  C_4
REMARK    2  A    between atoms: C_4  and  C_5
REMARK    3  A    between atoms: C_10  and  C_11
REMARK    4  A    between atoms: C_11  and  C_12
REMARK    5  A    between atoms: C_12  and  N_13
REMARK    6  A    between atoms: N_13  and  C_14
REMARK    7  A    between atoms: N_13  and  C_22
REMARK    8  A    between atoms: C_14  and  C_15
REMARK    9  A    between atoms: C_15  and  N_16
REMARK   10  A    between atoms: C_28  and  C_30
REMARK                            x       y       z     vdW  Elec       q    Type
REMARK                         _______ _______ _______ _____ _____    ______ ____
ROOT
ATOM      5  C   UNL     1      -3.071  -0.213  24.878  0.00  0.00    +0.015 C 
ATOM      6  C   UNL     1      -3.888  -0.222  24.982  0.00  0.00    +0.022 C 
ATOM      7  C   UNL     1      -4.306   0.487  25.039  0.00  0.00    +0.093 C 
ATOM      8  N   UNL     1      -3.905   1.206  24.992  0.00  0.00    -0.280 N 
ATOM      9  C   UNL     1      -3.086   1.216  24.888  0.00  0.00    +0.093 C 
ATOM     10  C   UNL     1      -2.669   0.507  24.831  0.00  0.00    +0.022 C 
ATOM     28  C   UNL     1      -4.321   1.916  25.049  0.00  0.00    +0.225 C 
ATOM     29  O   UNL     1      -3.921   2.635  25.002  0.00  0.00    -0.275 OA
ENDROOT
BRANCH  28  30
ATOM     30  C   UNL     1      -5.140   1.906  25.153  0.00  0.00    +0.077 C 
ATOM     31  C   UNL     1      -5.461   1.968  25.910  0.00  0.00    +0.009 C 
ATOM     32  C   UNL     1      -6.279   1.958  26.014  0.00  0.00    +0.000 C 
ATOM     33  C   UNL     1      -6.777   1.886  25.360  0.00  0.00    +0.000 C 
ATOM     34  C   UNL     1      -6.457   1.824  24.603  0.00  0.00    +0.000 C 
ATOM     35  C   UNL     1      -5.638   1.834  24.499  0.00  0.00    +0.009 C 
ENDBRANCH  28  30
BRANCH   5   4
ATOM      4  C   UNL     1      -2.654  -0.921  24.821  0.00  0.00    +0.114 C 
BRANCH   4   2
ATOM      1  O   UNL     1      -3.299  -1.998  24.137  0.00  0.00    -0.246 OA
ATOM      2  C   UNL     1      -3.058  -1.641  24.841  0.00  0.00    +0.365 C 
ATOM      3  O   UNL     1      -3.222  -2.002  25.563  0.00  0.00    -0.246 OA
ENDBRANCH   4   2
ENDBRANCH   5   4
BRANCH  10  11
ATOM     11  C   UNL     1      -1.851   0.517  24.727  0.00  0.00    +0.023 C 
BRANCH  11  12
ATOM     12  C   UNL     1      -1.475   1.211  24.484  0.00  0.00    +0.091 C 
BRANCH  12  13
ATOM     13  N   UNL     1      -0.679   1.334  24.665  0.00  0.00    -0.306 N 
BRANCH  13  22
ATOM     22  C   UNL     1      -0.463   1.937  25.184  0.00  0.00    +0.048 A 
ATOM     23  C   UNL     1      -0.172   1.751  25.934  0.00  0.00    +0.015 A 
ATOM     24  C   UNL     1       0.044   2.355  26.454  0.00  0.00    +0.001 A 
ATOM     25  C   UNL     1      -0.030   3.144  26.223  0.00  0.00    +0.000 A 
ATOM     26  C   UNL     1      -0.321   3.329  25.474  0.00  0.00    +0.001 A 
ATOM     27  C   UNL     1      -0.537   2.726  24.955  0.00  0.00    +0.015 A 
ENDBRANCH  13  22
BRANCH  13  14
ATOM     14  C   UNL     1      -0.101   0.854  24.327  0.00  0.00    +0.108 C 
BRANCH  14  15
ATOM     15  C   UNL     1       0.128   0.975  23.543  0.00  0.00    +0.094 C 
BRANCH  15  16
ATOM     16  N   UNL     1       0.777   0.569  23.236  0.00  0.00    -0.267 NA
ATOM     17  C   UNL     1       0.669  -0.160  22.865  0.00  0.00    +0.105 C 
ATOM     18  C   UNL     1       1.319  -0.567  22.557  0.00  0.00    +0.159 C 
ATOM     19  O   UNL     1       2.075  -0.244  22.621  0.00  0.00    -0.351 OA
ATOM     20  C   UNL     1       2.182   0.485  22.993  0.00  0.00    +0.159 C 
ATOM     21  C   UNL     1       1.534   0.891  23.300  0.00  0.00    +0.105 C 
ENDBRANCH  15  16
ENDBRANCH  14  15
ENDBRANCH  13  14
ENDBRANCH  12  13
ENDBRANCH  11  12
ENDBRANCH  10  11
TORSDOF 10
ENDMDL
