MODEL 1
REMARK VINA RESULT:     -15.2      0.000      0.000
REMARK  Name = 
REMARK  5 active torsions:
REMARK  status: ('A' for Active; 'I' for Inactive)
REMARK    1  A    between atoms: S_2  and  C_3
REMARK    2  A    between atoms: C_6  and  C_9
REMARK    3  A    between atoms: N_17  and  S_19
REMARK    4  A    between atoms: S_19  and  C_22
REMARK    5  A    between atoms: C_25  and  N_26
REMARK                            x       y       z     vdW  Elec       q    Type
REMARK                         _______ _______ _______ _____ _____    ______ ____
ROOT
ATOM      9  C   UNL     1      -4.446   0.858  24.998  0.00  0.00    +0.056 A 
ATOM     10  C   UNL     1      -5.247   0.937  25.180  0.00  0.00    +0.006 A 
ATOM     11  C   UNL     1      -5.570   1.686  25.304  0.00  0.00    +0.013 A 
ATOM     12  C   UNL     1      -5.093   2.356  25.245  0.00  0.00    +0.041 A 
ATOM     13  C   UNL     1      -5.135   3.271  25.319  0.00  0.00    +0.056 C 
ATOM     14  C   UNL     1      -5.585   3.792  25.454  0.00  0.00    +0.011 C 
ATOM     15  C   UNL     1      -4.795   3.710  25.275  0.00  0.00    +0.041 C 
ATOM     16  C   UNL     1      -3.834   3.817  25.070  0.00  0.00    +0.098 C 
ATOM     17  N   UNL     1      -3.623   3.016  24.968  0.00  0.00    -0.155 NA
ATOM     18  C   UNL     1      -4.208   3.391  25.123  0.00  0.00    +0.102 C 
ATOM     32  C   UNL     1      -4.741   2.755  25.196  0.00  0.00    +0.110 C 
ATOM     33  N   UNL     1      -4.292   2.277  25.063  0.00  0.00    -0.299 N 
ATOM     34  C   UNL     1      -3.968   1.528  24.940  0.00  0.00    +0.261 A 
ATOM     35  O   UNL     1      -3.167   1.449  24.758  0.00  0.00    -0.267 OA
ENDROOT
BRANCH   9   6
ATOM      3  C   UNL     1      -3.477  -1.389  24.629  0.00  0.00    +0.025 A 
ATOM      4  C   UNL     1      -3.789  -0.966  23.994  0.00  0.00    +0.006 A 
ATOM      5  C   UNL     1      -4.112  -0.216  24.117  0.00  0.00    +0.001 A 
ATOM      6  C   UNL     1      -4.123   0.109  24.875  0.00  0.00    +0.005 A 
ATOM      7  C   UNL     1      -3.811  -0.315  25.510  0.00  0.00    +0.001 A 
ATOM      8  C   UNL     1      -3.489  -1.064  25.387  0.00  0.00    +0.006 A 
BRANCH   3   2
ATOM      1  C   UNL     1      -3.645  -2.801  24.493  0.00  0.00    +0.074 C 
ATOM      2  S   UNL     1      -3.154  -2.139  24.506  0.00  0.00    -0.113 S 
ENDBRANCH   3   2
ENDBRANCH   9   6
BRANCH  17  19
ATOM     19  S   UNL     1      -3.147   2.358  24.817  0.00  0.00    +0.063 S 
ATOM     20  O   UNL     1      -3.332   2.409  24.014  0.00  0.00    -0.153 OA
ATOM     21  O   UNL     1      -2.961   2.308  25.620  0.00  0.00    -0.153 OA
BRANCH  19  22
ATOM     22  C   UNL     1      -2.671   1.701  24.666  0.00  0.00    +0.122 A 
ATOM     23  C   UNL     1      -2.587   1.421  23.895  0.00  0.00    +0.021 A 
ATOM     24  C   UNL     1      -2.111   0.764  23.744  0.00  0.00    +0.018 A 
ATOM     25  C   UNL     1      -1.720   0.388  24.365  0.00  0.00    +0.073 A 
ATOM     30  C   UNL     1      -1.803   0.668  25.136  0.00  0.00    +0.018 A 
ATOM     31  C   UNL     1      -2.279   1.325  25.287  0.00  0.00    +0.021 A 
BRANCH  25  26
ATOM     26  N   UNL     1      -1.244  -0.270  24.214  0.00  0.00    -0.179 NA
ATOM     27  C   UNL     1      -0.434  -0.172  24.088  0.00  0.00    +0.246 C 
ATOM     28  C   UNL     1       0.042  -0.828  23.937  0.00  0.00    +0.097 C 
ATOM     29  O   UNL     1      -0.101   0.583  24.113  0.00  0.00    -0.273 OA
ENDBRANCH  25  26
ENDBRANCH  19  22
ENDBRANCH  17  19
TORSDOF 5
ENDMDL
MODEL 2
REMARK VINA RESULT:     -14.7      1.440      3.851
REMARK  Name = 
REMARK  5 active torsions:
REMARK  status: ('A' for Active; 'I' for Inactive)
REMARK    1  A    between atoms: S_2  and  C_3
REMARK    2  A    between atoms: C_6  and  C_9
REMARK    3  A    between atoms: N_17  and  S_19
REMARK    4  A    between atoms: S_19  and  C_22
REMARK    5  A    between atoms: C_25  and  N_26
REMARK                            x       y       z     vdW  Elec       q    Type
REMARK                         _______ _______ _______ _____ _____    ______ ____
ROOT
ATOM      9  C   UNL     1      -3.638   0.062  24.316  0.00  0.00    +0.056 A 
ATOM     10  C   UNL     1      -4.331  -0.352  24.141  0.00  0.00    +0.006 A 
ATOM     11  C   UNL     1      -4.334  -1.177  24.158  0.00  0.00    +0.013 A 
ATOM     12  C   UNL     1      -3.646  -1.588  24.351  0.00  0.00    +0.041 A 
ATOM     13  C   UNL     1      -3.332  -2.445  24.454  0.00  0.00    +0.056 C 
ATOM     14  C   UNL     1      -3.537  -3.115  24.414  0.00  0.00    +0.011 C 
ATOM     15  C   UNL     1      -2.856  -2.704  24.586  0.00  0.00    +0.041 C 
ATOM     16  C   UNL     1      -1.948  -2.393  24.821  0.00  0.00    +0.098 C 
ATOM     17  N   UNL     1      -2.065  -1.567  24.771  0.00  0.00    -0.155 NA
ATOM     18  C   UNL     1      -2.449  -2.160  24.682  0.00  0.00    +0.102 C 
ATOM     32  C   UNL     1      -3.175  -1.804  24.481  0.00  0.00    +0.110 C 
ATOM     33  N   UNL     1      -2.953  -1.174  24.526  0.00  0.00    -0.299 N 
ATOM     34  C   UNL     1      -2.950  -0.350  24.508  0.00  0.00    +0.261 A 
ATOM     35  O   UNL     1      -2.257   0.064  24.683  0.00  0.00    -0.267 OA
ENDROOT
BRANCH   9   6
ATOM      3  C   UNL     1      -3.630   2.536  24.264  0.00  0.00    +0.025 A 
ATOM      4  C   UNL     1      -3.430   2.109  23.586  0.00  0.00    +0.006 A 
ATOM      5  C   UNL     1      -3.433   1.283  23.604  0.00  0.00    +0.001 A 
ATOM      6  C   UNL     1      -3.635   0.886  24.298  0.00  0.00    +0.005 A 
ATOM      7  C   UNL     1      -3.835   1.314  24.975  0.00  0.00    +0.001 A 
ATOM      8  C   UNL     1      -3.833   2.138  24.958  0.00  0.00    +0.006 A 
BRANCH   3   2
ATOM      1  C   UNL     1      -4.274   3.781  24.539  0.00  0.00    +0.074 C 
ATOM      2  S   UNL     1      -3.628   3.361  24.246  0.00  0.00    -0.113 S 
ENDBRANCH   3   2
ENDBRANCH   9   6
BRANCH  17  19
ATOM     19  S   UNL     1      -1.889  -0.761  24.800  0.00  0.00    +0.063 S 
ATOM     20  O   UNL     1      -1.669  -0.781  24.005  0.00  0.00    -0.153 OA
ATOM     21  O   UNL     1      -2.109  -0.741  25.595  0.00  0.00    -0.153 OA
BRANCH  19  22
ATOM     22  C   UNL     1      -1.713   0.045  24.828  0.00  0.00    +0.122 A 
ATOM     23  C   UNL     1      -1.442   0.432  24.153  0.00  0.00    +0.021 A 
ATOM     24  C   UNL     1      -1.266   1.237  24.181  0.00  0.00    +0.018 A 
ATOM     25  C   UNL     1      -1.360   1.655  24.886  0.00  0.00    +0.073 A 
ATOM     30  C   UNL     1      -1.631   1.268  25.562  0.00  0.00    +0.018 A 
ATOM     31  C   UNL     1      -1.807   0.462  25.533  0.00  0.00    +0.021 A 
BRANCH  25  26
ATOM     26  N   UNL     1      -1.184   2.461  24.915  0.00  0.00    -0.179 NA
ATOM     27  C   UNL     1      -0.434   2.711  25.154  0.00  0.00    +0.246 C 
ATOM     28  C   UNL     1      -0.258   3.515  25.183  0.00  0.00    +0.097 C 
ATOM     29  O   UNL     1       0.138   2.154  25.365  0.00  0.00    -0.273 OA
ENDBRANCH  25  26
ENDBRANCH  19  22
ENDBRANCH  17  19
TORSDOF 5
ENDMDL
MODEL 3
REMARK VINA RESULT:     -14.3      1.218      2.487
REMARK  Name = 
REMARK  5 active torsions:
REMARK  status: ('A' for Active; 'I' for Inactive)
REMARK    1  A    between atoms: S_2  and  C_3
REMARK    2  A    between atoms: C_6  and  C_9
REMARK    3  A    between atoms: N_17  and  S_19
REMARK    4  A    between atoms: S_19  and  C_22
REMARK    5  A    between atoms: C_25  and  N_26
REMARK                            x       y       z     vdW  Elec       q    Type
REMARK                         _______ _______ _______ _____ _____    ______ ____
ROOT
ATOM      9  C   UNL     1      -2.893   1.740  24.867  0.00  0.00    +0.056 A 
ATOM     10  C   UNL     1      -2.713   2.542  24.948  0.00  0.00    +0.006 A 
ATOM     11  C   UNL     1      -3.315   3.089  25.080  0.00  0.00    +0.013 A 
ATOM     12  C   UNL     1      -4.098   2.836  25.131  0.00  0.00    +0.041 A 
ATOM     13  C   UNL     1      -4.947   3.163  25.262  0.00  0.00    +0.056 C 
ATOM     14  C   UNL     1      -5.295   3.762  25.374  0.00  0.00    +0.011 C 
ATOM     15  C   UNL     1      -5.470   2.970  25.294  0.00  0.00    +0.041 C 
ATOM     16  C   UNL     1      -5.876   2.072  25.225  0.00  0.00    +0.098 C 
ATOM     17  N   UNL     1      -5.188   1.617  25.095  0.00  0.00    -0.155 NA
ATOM     18  C   UNL     1      -5.355   2.302  25.198  0.00  0.00    +0.102 C 
ATOM     32  C   UNL     1      -4.587   2.620  25.156  0.00  0.00    +0.110 C 
ATOM     33  N   UNL     1      -4.279   2.035  25.051  0.00  0.00    -0.299 N 
ATOM     34  C   UNL     1      -3.676   1.487  24.919  0.00  0.00    +0.261 A 
ATOM     35  O   UNL     1      -3.857   0.686  24.838  0.00  0.00    -0.267 OA
ENDROOT
BRANCH   9   6
ATOM      3  C   UNL     1      -1.084   0.100  24.469  0.00  0.00    +0.025 A 
ATOM      4  C   UNL     1      -1.313   0.280  25.241  0.00  0.00    +0.006 A 
ATOM      5  C   UNL     1      -1.917   0.828  25.373  0.00  0.00    +0.001 A 
ATOM      6  C   UNL     1      -2.290   1.194  24.735  0.00  0.00    +0.005 A 
ATOM      7  C   UNL     1      -2.059   1.013  23.964  0.00  0.00    +0.001 A 
ATOM      8  C   UNL     1      -1.456   0.466  23.831  0.00  0.00    +0.006 A 
BRANCH   3   2
ATOM      1  C   UNL     1       0.167  -0.241  23.870  0.00  0.00    +0.074 C 
ATOM      2  S   UNL     1      -0.480  -0.447  24.336  0.00  0.00    -0.113 S 
ENDBRANCH   3   2
ENDBRANCH   9   6
BRANCH  17  19
ATOM     19  S   UNL     1      -4.720   0.950  24.963  0.00  0.00    +0.063 S 
ATOM     20  O   UNL     1      -4.662   0.828  25.777  0.00  0.00    -0.153 OA
ATOM     21  O   UNL     1      -4.777   1.072  24.148  0.00  0.00    -0.153 OA
BRANCH  19  22
ATOM     22  C   UNL     1      -4.252   0.283  24.830  0.00  0.00    +0.122 A 
ATOM     23  C   UNL     1      -4.085   0.043  24.059  0.00  0.00    +0.021 A 
ATOM     24  C   UNL     1      -3.617  -0.624  23.926  0.00  0.00    +0.018 A 
ATOM     25  C   UNL     1      -3.316  -1.049  24.565  0.00  0.00    +0.073 A 
ATOM     30  C   UNL     1      -3.483  -0.809  25.336  0.00  0.00    +0.018 A 
ATOM     31  C   UNL     1      -3.951  -0.142  25.469  0.00  0.00    +0.021 A 
BRANCH  25  26
ATOM     26  N   UNL     1      -2.848  -1.716  24.433  0.00  0.00    -0.179 NA
ATOM     27  C   UNL     1      -3.198  -2.462  24.381  0.00  0.00    +0.246 C 
ATOM     28  C   UNL     1      -2.731  -3.128  24.248  0.00  0.00    +0.097 C 
ATOM     29  O   UNL     1      -4.016  -2.540  24.462  0.00  0.00    -0.273 OA
ENDBRANCH  25  26
ENDBRANCH  19  22
ENDBRANCH  17  19
TORSDOF 5
ENDMDL
MODEL 4
REMARK VINA RESULT:     -14.3      1.481      4.248
REMARK  Name = 
REMARK  5 active torsions:
REMARK  status: ('A' for Active; 'I' for Inactive)
REMARK    1  A    between atoms: S_2  and  C_3
REMARK    2  A    between atoms: C_6  and  C_9
REMARK    3  A    between atoms: N_17  and  S_19
REMARK    4  A    between atoms: S_19  and  C_22
REMARK    5  A    between atoms: C_25  and  N_26
REMARK                            x       y       z     vdW  Elec       q    Type
REMARK                         _______ _______ _______ _____ _____    ______ ____
ROOT
ATOM      9  C   UNL     1      -1.806  -0.408  24.828  0.00  0.00    +0.056 A 
ATOM     10  C   UNL     1      -1.361  -1.087  24.973  0.00  0.00    +0.006 A 
ATOM     11  C   UNL     1      -1.703  -1.832  24.880  0.00  0.00    +0.013 A 
ATOM     12  C   UNL     1      -2.491  -1.898  24.643  0.00  0.00    +0.041 A 
ATOM     13  C   UNL     1      -3.130  -2.531  24.460  0.00  0.00    +0.056 C 
ATOM     14  C   UNL     1      -3.227  -3.226  24.440  0.00  0.00    +0.011 C 
ATOM     15  C   UNL     1      -3.664  -2.553  24.299  0.00  0.00    +0.041 C 
ATOM     16  C   UNL     1      -4.345  -1.870  24.084  0.00  0.00    +0.098 C 
ATOM     17  N   UNL     1      -3.894  -1.178  24.210  0.00  0.00    -0.155 NA
ATOM     18  C   UNL     1      -3.799  -1.883  24.248  0.00  0.00    +0.102 C 
ATOM     32  C   UNL     1      -3.002  -1.884  24.489  0.00  0.00    +0.110 C 
ATOM     33  N   UNL     1      -2.936  -1.218  24.499  0.00  0.00    -0.299 N 
ATOM     34  C   UNL     1      -2.594  -0.473  24.592  0.00  0.00    +0.261 A 
ATOM     35  O   UNL     1      -3.039   0.207  24.448  0.00  0.00    -0.267 OA
ENDROOT
BRANCH   9   6
ATOM      3  C   UNL     1      -0.778   1.825  25.108  0.00  0.00    +0.025 A 
ATOM      4  C   UNL     1      -0.751   1.449  24.375  0.00  0.00    +0.006 A 
ATOM      5  C   UNL     1      -1.094   0.703  24.282  0.00  0.00    +0.001 A 
ATOM      6  C   UNL     1      -1.464   0.336  24.921  0.00  0.00    +0.005 A 
ATOM      7  C   UNL     1      -1.490   0.714  25.654  0.00  0.00    +0.001 A 
ATOM      8  C   UNL     1      -1.147   1.458  25.748  0.00  0.00    +0.006 A 
BRANCH   3   2
ATOM      1  C   UNL     1       0.154   2.684  25.767  0.00  0.00    +0.074 C 
ATOM      2  S   UNL     1      -0.435   2.571  25.202  0.00  0.00    -0.113 S 
ENDBRANCH   3   2
ENDBRANCH   9   6
BRANCH  17  19
ATOM     19  S   UNL     1      -3.714  -0.374  24.253  0.00  0.00    +0.063 S 
ATOM     20  O   UNL     1      -3.943  -0.365  25.045  0.00  0.00    -0.153 OA
ATOM     21  O   UNL     1      -3.485  -0.383  23.460  0.00  0.00    -0.153 OA
BRANCH  19  22
ATOM     22  C   UNL     1      -3.534   0.431  24.295  0.00  0.00    +0.122 A 
ATOM     23  C   UNL     1      -3.231   0.821  23.635  0.00  0.00    +0.021 A 
ATOM     24  C   UNL     1      -3.051   1.625  23.678  0.00  0.00    +0.018 A 
ATOM     25  C   UNL     1      -3.174   2.038  24.381  0.00  0.00    +0.073 A 
ATOM     30  C   UNL     1      -3.477   1.648  25.041  0.00  0.00    +0.018 A 
ATOM     31  C   UNL     1      -3.657   0.843  24.999  0.00  0.00    +0.021 A 
BRANCH  25  26
ATOM     26  N   UNL     1      -2.994   2.842  24.424  0.00  0.00    -0.179 NA
ATOM     27  C   UNL     1      -3.584   3.405  24.292  0.00  0.00    +0.246 C 
ATOM     28  C   UNL     1      -3.405   4.208  24.334  0.00  0.00    +0.097 C 
ATOM     29  O   UNL     1      -4.353   3.162  24.117  0.00  0.00    -0.273 OA
ENDBRANCH  25  26
ENDBRANCH  19  22
ENDBRANCH  17  19
TORSDOF 5
ENDMDL
MODEL 5
REMARK VINA RESULT:     -14.2      1.450      2.904
REMARK  Name = 
REMARK  5 active torsions:
REMARK  status: ('A' for Active; 'I' for Inactive)
REMARK    1  A    between atoms: S_2  and  C_3
REMARK    2  A    between atoms: C_6  and  C_9
REMARK    3  A    between atoms: N_17  and  S_19
REMARK    4  A    between atoms: S_19  and  C_22
REMARK    5  A    between atoms: C_25  and  N_26
REMARK                            x       y       z     vdW  Elec       q    Type
REMARK                         _______ _______ _______ _____ _____    ______ ____
ROOT
ATOM      9  C   UNL     1      -1.159   1.800  25.139  0.00  0.00    +0.056 A 
ATOM     10  C   UNL     1      -0.516   2.254  25.386  0.00  0.00    +0.006 A 
ATOM     11  C   UNL     1      -0.588   3.073  25.448  0.00  0.00    +0.013 A 
ATOM     12  C   UNL     1      -1.304   3.439  25.264  0.00  0.00    +0.041 A 
ATOM     13  C   UNL     1      -1.692   4.271  25.229  0.00  0.00    +0.056 C 
ATOM     14  C   UNL     1      -1.551   4.950  25.343  0.00  0.00    +0.011 C 
ATOM     15  C   UNL     1      -2.184   4.499  25.099  0.00  0.00    +0.041 C 
ATOM     16  C   UNL     1      -3.050   4.133  24.793  0.00  0.00    +0.098 C 
ATOM     17  N   UNL     1      -2.858   3.320  24.768  0.00  0.00    -0.155 NA
ATOM     18  C   UNL     1      -2.534   3.934  24.932  0.00  0.00    +0.102 C 
ATOM     32  C   UNL     1      -1.788   3.625  25.133  0.00  0.00    +0.110 C 
ATOM     33  N   UNL     1      -1.947   2.985  25.017  0.00  0.00    -0.299 N 
ATOM     34  C   UNL     1      -1.875   2.166  24.955  0.00  0.00    +0.261 A 
ATOM     35  O   UNL     1      -2.518   1.712  24.708  0.00  0.00    -0.267 OA
ENDROOT
BRANCH   9   6
ATOM      3  C   UNL     1      -0.939  -0.657  24.952  0.00  0.00    +0.025 A 
ATOM      4  C   UNL     1      -1.193  -0.319  25.660  0.00  0.00    +0.006 A 
ATOM      5  C   UNL     1      -1.267   0.501  25.723  0.00  0.00    +0.001 A 
ATOM      6  C   UNL     1      -1.086   0.981  25.078  0.00  0.00    +0.005 A 
ATOM      7  C   UNL     1      -0.832   0.643  24.369  0.00  0.00    +0.001 A 
ATOM      8  C   UNL     1      -0.758  -0.177  24.307  0.00  0.00    +0.006 A 
BRANCH   3   2
ATOM      1  C   UNL     1      -0.277  -1.871  25.312  0.00  0.00    +0.074 C 
ATOM      2  S   UNL     1      -0.865  -1.477  24.890  0.00  0.00    -0.113 S 
ENDBRANCH   3   2
ENDBRANCH   9   6
BRANCH  17  19
ATOM     19  S   UNL     1      -2.957   2.509  24.654  0.00  0.00    +0.063 S 
ATOM     20  O   UNL     1      -2.707   2.589  23.871  0.00  0.00    -0.153 OA
ATOM     21  O   UNL     1      -3.207   2.429  25.436  0.00  0.00    -0.153 OA
BRANCH  19  22
ATOM     22  C   UNL     1      -3.056   1.698  24.539  0.00  0.00    +0.122 A 
ATOM     23  C   UNL     1      -3.310   1.221  25.162  0.00  0.00    +0.021 A 
ATOM     24  C   UNL     1      -3.410   0.410  25.048  0.00  0.00    +0.018 A 
ATOM     25  C   UNL     1      -3.255   0.077  24.310  0.00  0.00    +0.073 A 
ATOM     30  C   UNL     1      -3.001   0.553  23.686  0.00  0.00    +0.018 A 
ATOM     31  C   UNL     1      -2.902   1.364  23.801  0.00  0.00    +0.021 A 
BRANCH  25  26
ATOM     26  N   UNL     1      -3.354  -0.735  24.195  0.00  0.00    -0.179 NA
ATOM     27  C   UNL     1      -4.109  -1.044  24.063  0.00  0.00    +0.246 C 
ATOM     28  C   UNL     1      -4.208  -1.854  23.949  0.00  0.00    +0.097 C 
ATOM     29  O   UNL     1      -4.763  -0.540  24.047  0.00  0.00    -0.273 OA
ENDBRANCH  25  26
ENDBRANCH  19  22
ENDBRANCH  17  19
TORSDOF 5
ENDMDL
