REMARK  Name = 
REMARK  5 active torsions:
REMARK  status: ('A' for Active; 'I' for Inactive)
REMARK    1  A    between atoms: C_7  and  C_8
REMARK    2  A    between atoms: C_14  and  N_15
REMARK    3  A    between atoms: N_15  and  S_16
REMARK    4  A    between atoms: S_16  and  C_19
REMARK    5  A    between atoms: C_22  and  C_25
REMARK                            x       y       z     vdW  Elec       q    Type
REMARK                         _______ _______ _______ _____ _____    ______ ____
ROOT
ATOM      8  C   UNL     1       2.037  -2.124   0.000  0.00  0.00    +0.045 C 
ATOM      9  C   UNL     1       2.704  -2.609   0.000  0.00  0.00    +0.041 C 
ATOM     10  C   UNL     1       2.449  -3.394   0.000  0.00  0.00    +0.184 C 
ATOM     11  O   UNL     1       2.934  -4.061   0.000  0.00  0.00    -0.220 OA
ATOM     12  C   UNL     1       1.624  -3.394   0.000  0.00  0.00    +0.200 C 
ATOM     13  O   UNL     1       1.139  -4.061   0.000  0.00  0.00    -0.219 OA
ATOM     14  C   UNL     1       1.369  -2.609   0.000  0.00  0.00    +0.135 C 
ENDROOT
BRANCH   8   7
ATOM      1  C   UNL     1       3.466  -1.299   0.000  0.00  0.00    +0.031 C 
ATOM      2  C   UNL     1       2.751  -0.887   0.000  0.00  0.00    -0.026 A 
ATOM      3  C   UNL     1       2.751  -0.062   0.000  0.00  0.00    -0.005 A 
ATOM      4  C   UNL     1       2.037   0.351   0.000  0.00  0.00    -0.000 A 
ATOM      5  C   UNL     1       1.322  -0.062   0.000  0.00  0.00    -0.000 A 
ATOM      6  C   UNL     1       1.322  -0.887   0.000  0.00  0.00    -0.005 A 
ATOM      7  C   UNL     1       2.037  -1.299   0.000  0.00  0.00    -0.025 A 
ENDBRANCH   8   7
BRANCH  14  15
ATOM     15  N   UNL     1       0.585  -2.354   0.000  0.00  0.00    -0.076 NA
BRANCH  15  16
ATOM     16  S   UNL     1       0.413  -1.547   0.000  0.00  0.00    +0.077 S 
ATOM     17  O   UNL     1       1.220  -1.376   0.000  0.00  0.00    -0.152 OA
ATOM     18  O   UNL     1      -0.394  -1.719   0.000  0.00  0.00    -0.152 OA
BRANCH  16  19
ATOM     19  C   UNL     1       0.242  -0.740   0.000  0.00  0.00    +0.124 A 
ATOM     20  C   UNL     1      -0.543  -0.485   0.000  0.00  0.00    +0.020 A 
ATOM     21  C   UNL     1      -0.715   0.322   0.000  0.00  0.00    +0.005 A 
ATOM     22  C   UNL     1      -0.102   0.874   0.000  0.00  0.00    +0.072 A 
ATOM     23  C   UNL     1       0.683   0.619   0.000  0.00  0.00    +0.005 A 
ATOM     24  C   UNL     1       0.855  -0.188   0.000  0.00  0.00    +0.020 A 
BRANCH  22  25
ATOM     25  C   UNL     1      -0.273   1.681   0.000  0.00  0.00    +0.419 C 
ATOM     26  F   UNL     1      -0.445   2.488   0.000  0.00  0.00    -0.166 F 
ATOM     27  F   UNL     1       0.534   1.852   0.000  0.00  0.00    -0.166 F 
ATOM     28  F   UNL     1      -1.080   1.509   0.000  0.00  0.00    -0.166 F 
ENDBRANCH  22  25
ENDBRANCH  16  19
ENDBRANCH  15  16
ENDBRANCH  14  15
TORSDOF 5
