MODEL 1
REMARK VINA RESULT:     -10.5      0.000      0.000
REMARK  Name = 
REMARK  6 active torsions:
REMARK  status: ('A' for Active; 'I' for Inactive)
REMARK    1  A    between atoms: C_5  and  S_8
REMARK    2  A    between atoms: S_8  and  N_11
REMARK    3  A    between atoms: N_11  and  C_12
REMARK    4  A    between atoms: C_16  and  O_20
REMARK    5  A    between atoms: O_20  and  C_21
REMARK    6  A    between atoms: C_21  and  C_22
REMARK                            x       y       z     vdW  Elec       q    Type
REMARK                         _______ _______ _______ _____ _____    ______ ____
ROOT
ATOM     12  C   UNL     1      -3.759   1.420  24.575  0.00  0.00    +0.157 C 
ATOM     13  C   UNL     1      -3.134   1.320  24.047  0.00  0.00    +0.164 C 
ATOM     14  O   UNL     1      -2.687   2.013  24.048  0.00  0.00    -0.350 OA
ATOM     15  C   UNL     1      -3.036   2.541  24.575  0.00  0.00    +0.173 C 
ATOM     16  C   UNL     1      -2.976   3.296  24.903  0.00  0.00    +0.175 C 
ATOM     17  C   UNL     1      -3.602   3.396  25.431  0.00  0.00    +0.174 C 
ATOM     18  O   UNL     1      -4.048   2.703  25.430  0.00  0.00    -0.349 OA
ATOM     19  C   UNL     1      -3.699   2.174  24.902  0.00  0.00    +0.165 C 
ENDROOT
BRANCH  12  11
ATOM     11  N   UNL     1      -4.343   0.862  24.747  0.00  0.00    -0.074 NA
BRANCH  11   8
ATOM      8  S   UNL     1      -4.169   0.057  24.708  0.00  0.00    +0.077 S 
ATOM      9  O   UNL     1      -4.280   0.071  23.891  0.00  0.00    -0.152 OA
ATOM     10  O   UNL     1      -4.057   0.042  25.526  0.00  0.00    -0.152 OA
BRANCH   8   5
ATOM      1  C   UNL     1      -3.472  -3.165  24.556  0.00  0.00    +0.031 C 
ATOM      2  C   UNL     1      -3.646  -2.360  24.595  0.00  0.00    -0.022 A 
ATOM      3  C   UNL     1      -3.416  -1.919  25.252  0.00  0.00    -0.003 A 
ATOM      4  C   UNL     1      -3.590  -1.113  25.290  0.00  0.00    +0.020 A 
ATOM      5  C   UNL     1      -3.994  -0.749  24.671  0.00  0.00    +0.124 A 
ATOM      6  C   UNL     1      -4.225  -1.190  24.012  0.00  0.00    +0.020 A 
ATOM      7  C   UNL     1      -4.050  -1.996  23.975  0.00  0.00    -0.003 A 
ENDBRANCH   8   5
ENDBRANCH  11   8
ENDBRANCH  12  11
BRANCH  16  20
ATOM     20  O   UNL     1      -2.392   3.854  24.731  0.00  0.00    -0.342 OA
BRANCH  20  21
ATOM     21  C   UNL     1      -2.066   4.309  25.337  0.00  0.00    +0.230 C 
BRANCH  21  22
ATOM     22  C   UNL     1      -1.461   4.845  25.170  0.00  0.00    +0.291 C 
ATOM     23  N   UNL     1      -0.703   4.571  24.996  0.00  0.00    -0.086 NA
ATOM     24  O   UNL     1      -1.615   5.656  25.178  0.00  0.00    -0.269 OA
ENDBRANCH  21  22
ENDBRANCH  20  21
ENDBRANCH  16  20
TORSDOF 6
ENDMDL
MODEL 2
REMARK VINA RESULT:      -9.5      1.991      2.263
REMARK  Name = 
REMARK  6 active torsions:
REMARK  status: ('A' for Active; 'I' for Inactive)
REMARK    1  A    between atoms: C_5  and  S_8
REMARK    2  A    between atoms: S_8  and  N_11
REMARK    3  A    between atoms: N_11  and  C_12
REMARK    4  A    between atoms: C_16  and  O_20
REMARK    5  A    between atoms: O_20  and  C_21
REMARK    6  A    between atoms: C_21  and  C_22
REMARK                            x       y       z     vdW  Elec       q    Type
REMARK                         _______ _______ _______ _____ _____    ______ ____
ROOT
ATOM     12  C   UNL     1      -1.062   0.632  25.108  0.00  0.00    +0.157 C 
ATOM     13  C   UNL     1      -1.374   0.804  24.364  0.00  0.00    +0.164 C 
ATOM     14  O   UNL     1      -1.323   1.619  24.249  0.00  0.00    -0.350 OA
ATOM     15  C   UNL     1      -0.980   1.951  24.921  0.00  0.00    +0.173 C 
ATOM     16  C   UNL     1      -0.736   2.660  25.267  0.00  0.00    +0.175 C 
ATOM     17  C   UNL     1      -0.424   2.488  26.011  0.00  0.00    +0.174 C 
ATOM     18  O   UNL     1      -0.475   1.672  26.125  0.00  0.00    -0.349 OA
ATOM     19  C   UNL     1      -0.819   1.341  25.452  0.00  0.00    +0.165 C 
ENDROOT
BRANCH  12  11
ATOM     11  N   UNL     1      -1.003  -0.118  25.447  0.00  0.00    -0.074 NA
BRANCH  11   8
ATOM      8  S   UNL     1      -1.552  -0.703  25.253  0.00  0.00    +0.077 S 
ATOM      9  O   UNL     1      -2.014  -0.486  25.902  0.00  0.00    -0.152 OA
ATOM     10  O   UNL     1      -1.091  -0.920  24.605  0.00  0.00    -0.152 OA
BRANCH   8   5
ATOM      1  C   UNL     1      -3.745  -3.043  24.475  0.00  0.00    +0.031 C 
ATOM      2  C   UNL     1      -3.196  -2.458  24.670  0.00  0.00    -0.022 A 
ATOM      3  C   UNL     1      -2.418  -2.517  24.403  0.00  0.00    -0.003 A 
ATOM      4  C   UNL     1      -1.870  -1.932  24.597  0.00  0.00    +0.020 A 
ATOM      5  C   UNL     1      -2.100  -1.288  25.059  0.00  0.00    +0.124 A 
ATOM      6  C   UNL     1      -2.879  -1.229  25.326  0.00  0.00    +0.020 A 
ATOM      7  C   UNL     1      -3.426  -1.814  25.131  0.00  0.00    -0.003 A 
ENDBRANCH   8   5
ENDBRANCH  11   8
ENDBRANCH  12  11
BRANCH  16  20
ATOM     20  O   UNL     1      -0.795   3.410  24.927  0.00  0.00    -0.342 OA
BRANCH  20  21
ATOM     21  C   UNL     1      -0.904   4.072  25.406  0.00  0.00    +0.230 C 
BRANCH  21  22
ATOM     22  C   UNL     1      -1.036   4.812  25.064  0.00  0.00    +0.291 C 
ATOM     23  N   UNL     1      -1.744   5.210  25.204  0.00  0.00    -0.086 NA
ATOM     24  O   UNL     1      -0.459   5.151  24.582  0.00  0.00    -0.269 OA
ENDBRANCH  21  22
ENDBRANCH  20  21
ENDBRANCH  16  20
TORSDOF 6
ENDMDL
MODEL 3
REMARK VINA RESULT:      -9.3      2.015      5.491
REMARK  Name = 
REMARK  6 active torsions:
REMARK  status: ('A' for Active; 'I' for Inactive)
REMARK    1  A    between atoms: C_5  and  S_8
REMARK    2  A    between atoms: S_8  and  N_11
REMARK    3  A    between atoms: N_11  and  C_12
REMARK    4  A    between atoms: C_16  and  O_20
REMARK    5  A    between atoms: O_20  and  C_21
REMARK    6  A    between atoms: C_21  and  C_22
REMARK                            x       y       z     vdW  Elec       q    Type
REMARK                         _______ _______ _______ _____ _____    ______ ____
ROOT
ATOM     12  C   UNL     1      -1.364   1.115  24.990  0.00  0.00    +0.157 C 
ATOM     13  C   UNL     1      -1.684   1.252  24.243  0.00  0.00    +0.164 C 
ATOM     14  O   UNL     1      -2.100   0.577  24.017  0.00  0.00    -0.350 OA
ATOM     15  C   UNL     1      -2.038   0.023  24.624  0.00  0.00    +0.173 C 
ATOM     16  C   UNL     1      -2.256  -0.736  24.862  0.00  0.00    +0.175 C 
ATOM     17  C   UNL     1      -1.936  -0.873  25.609  0.00  0.00    +0.174 C 
ATOM     18  O   UNL     1      -1.520  -0.198  25.835  0.00  0.00    -0.349 OA
ATOM     19  C   UNL     1      -1.582   0.356  25.226  0.00  0.00    +0.165 C 
ENDROOT
BRANCH  12  11
ATOM     11  N   UNL     1      -0.905   1.645  25.426  0.00  0.00    -0.074 NA
BRANCH  11   8
ATOM      8  S   UNL     1      -1.030   2.457  25.351  0.00  0.00    +0.077 S 
ATOM      9  O   UNL     1      -0.494   2.483  24.724  0.00  0.00    -0.152 OA
ATOM     10  O   UNL     1      -1.565   2.433  25.978  0.00  0.00    -0.152 OA
BRANCH   8   5
ATOM      1  C   UNL     1      -1.530   5.706  25.054  0.00  0.00    +0.031 C 
ATOM      2  C   UNL     1      -1.405   4.894  25.129  0.00  0.00    -0.022 A 
ATOM      3  C   UNL     1      -1.956   4.426  25.526  0.00  0.00    -0.003 A 
ATOM      4  C   UNL     1      -1.831   3.614  25.600  0.00  0.00    +0.020 A 
ATOM      5  C   UNL     1      -1.155   3.269  25.277  0.00  0.00    +0.124 A 
ATOM      6  C   UNL     1      -0.604   3.737  24.879  0.00  0.00    +0.020 A 
ATOM      7  C   UNL     1      -0.729   4.549  24.805  0.00  0.00    -0.003 A 
ENDBRANCH   8   5
ENDBRANCH  11   8
ENDBRANCH  12  11
BRANCH  16  20
ATOM     20  O   UNL     1      -2.715  -1.267  24.426  0.00  0.00    -0.342 OA
BRANCH  20  21
ATOM     21  C   UNL     1      -3.203  -1.806  24.816  0.00  0.00    +0.230 C 
BRANCH  21  22
ATOM     22  C   UNL     1      -3.694  -2.307  24.381  0.00  0.00    +0.291 C 
ATOM     23  N   UNL     1      -3.574  -3.123  24.402  0.00  0.00    -0.086 NA
ATOM     24  O   UNL     1      -4.305  -1.991  23.925  0.00  0.00    -0.269 OA
ENDBRANCH  21  22
ENDBRANCH  20  21
ENDBRANCH  16  20
TORSDOF 6
ENDMDL
