MODEL 1
REMARK VINA RESULT:     -13.2      0.000      0.000
REMARK  Name = 
REMARK  5 active torsions:
REMARK  status: ('A' for Active; 'I' for Inactive)
REMARK    1  A    between atoms: C_2  and  C_10
REMARK    2  A    between atoms: N_3  and  C_4
REMARK    3  A    between atoms: C_17  and  C_18
REMARK    4  A    between atoms: C_18  and  N_19
REMARK    5  A    between atoms: C_21  and  C_24
REMARK                            x       y       z     vdW  Elec       q    Type
REMARK                         _______ _______ _______ _____ _____    ______ ____
ROOT
ATOM     10  C   UNL     1      -4.112   0.692  24.606  0.00  0.00    +0.095 C 
ATOM     11  C   UNL     1      -3.621   1.026  24.103  0.00  0.00    +0.081 C 
ATOM     12  N   UNL     1      -4.186   1.413  24.564  0.00  0.00    -0.272 NA
ATOM     13  C   UNL     1      -4.679   0.682  25.130  0.00  0.00    +0.072 C 
ATOM     14  C   UNL     1      -5.130   0.513  25.571  0.00  0.00    +0.018 C 
ATOM     15  C   UNL     1      -4.663   1.079  25.055  0.00  0.00    +0.013 C 
ATOM     16  C   UNL     1      -4.877   1.928  25.121  0.00  0.00    +0.019 C 
ATOM     17  C   UNL     1      -4.413   2.294  24.638  0.00  0.00    +0.082 C 
ENDROOT
BRANCH  10   2
ATOM      1  O   UNL     1      -4.342  -0.489  25.380  0.00  0.00    -0.273 OA
ATOM      2  C   UNL     1      -4.066  -0.129  24.690  0.00  0.00    +0.246 C 
ATOM      3  N   UNL     1      -3.745  -0.588  24.086  0.00  0.00    -0.179 NA
BRANCH   3   4
ATOM      4  C   UNL     1      -3.699  -1.407  24.170  0.00  0.00    +0.073 A 
ATOM      5  C   UNL     1      -4.269  -1.890  23.819  0.00  0.00    +0.017 A 
ATOM      6  C   UNL     1      -4.223  -2.710  23.903  0.00  0.00    +0.001 A 
ATOM      7  C   UNL     1      -3.608  -3.047  24.338  0.00  0.00    +0.000 A 
ATOM      8  C   UNL     1      -3.039  -2.563  24.688  0.00  0.00    +0.001 A 
ATOM      9  C   UNL     1      -3.085  -1.744  24.604  0.00  0.00    +0.017 A 
ENDBRANCH   3   4
ENDBRANCH  10   2
BRANCH  17  18
ATOM     18  C   UNL     1      -4.228   3.045  24.352  0.00  0.00    +0.145 C 
BRANCH  18  19
ATOM     19  N   UNL     1      -3.685   3.518  24.755  0.00  0.00    -0.229 N 
ATOM     20  C   UNL     1      -2.920   3.698  24.504  0.00  0.00    +0.117 A 
ATOM     21  C   UNL     1      -2.574   4.186  25.074  0.00  0.00    +0.119 A 
ATOM     22  N   UNL     1      -3.127   4.306  25.675  0.00  0.00    -0.129 NA
ATOM     23  N   UNL     1      -3.812   3.893  25.478  0.00  0.00    -0.064 NA
BRANCH  21  24
ATOM     24  C   UNL     1      -1.811   4.498  25.046  0.00  0.00    -0.005 C 
ATOM     25  C   UNL     1      -1.615   5.299  25.047  0.00  0.00    -0.029 C 
ATOM     26  C   UNL     1      -0.793   5.361  25.014  0.00  0.00    +0.026 C 
ATOM     27  C   UNL     1      -0.481   4.596  24.993  0.00  0.00    +0.009 C 
ATOM     28  C   UNL     1      -1.111   4.064  25.013  0.00  0.00    +0.028 C 
ENDBRANCH  21  24
ENDBRANCH  18  19
ENDBRANCH  17  18
TORSDOF 5
ENDMDL
MODEL 2
REMARK VINA RESULT:     -12.4      1.188      5.502
REMARK  Name = 
REMARK  5 active torsions:
REMARK  status: ('A' for Active; 'I' for Inactive)
REMARK    1  A    between atoms: C_2  and  C_10
REMARK    2  A    between atoms: N_3  and  C_4
REMARK    3  A    between atoms: C_17  and  C_18
REMARK    4  A    between atoms: C_18  and  N_19
REMARK    5  A    between atoms: C_21  and  C_24
REMARK                            x       y       z     vdW  Elec       q    Type
REMARK                         _______ _______ _______ _____ _____    ______ ____
ROOT
ATOM     10  C   UNL     1      -3.319   2.550  24.837  0.00  0.00    +0.095 C 
ATOM     11  C   UNL     1      -3.232   2.158  25.503  0.00  0.00    +0.081 C 
ATOM     12  N   UNL     1      -3.721   1.946  24.873  0.00  0.00    -0.272 NA
ATOM     13  C   UNL     1      -3.609   2.681  24.134  0.00  0.00    +0.072 C 
ATOM     14  C   UNL     1      -3.759   2.923  23.546  0.00  0.00    +0.018 C 
ATOM     15  C   UNL     1      -3.801   2.336  24.223  0.00  0.00    +0.013 C 
ATOM     16  C   UNL     1      -4.339   1.652  24.108  0.00  0.00    +0.019 C 
ATOM     17  C   UNL     1      -4.282   1.237  24.747  0.00  0.00    +0.082 C 
ENDROOT
BRANCH  10   2
ATOM      1  O   UNL     1      -3.155   3.843  24.248  0.00  0.00    -0.273 OA
ATOM      2  C   UNL     1      -2.882   3.246  24.749  0.00  0.00    +0.246 C 
ATOM      3  N   UNL     1      -2.175   3.344  25.161  0.00  0.00    -0.179 NA
BRANCH   3   4
ATOM      4  C   UNL     1      -1.740   4.039  25.073  0.00  0.00    +0.073 A 
ATOM      5  C   UNL     1      -1.007   4.022  24.695  0.00  0.00    +0.017 A 
ATOM      6  C   UNL     1      -0.571   4.716  24.607  0.00  0.00    +0.001 A 
ATOM      7  C   UNL     1      -0.868   5.429  24.897  0.00  0.00    +0.000 A 
ATOM      8  C   UNL     1      -1.601   5.447  25.275  0.00  0.00    +0.001 A 
ATOM      9  C   UNL     1      -2.036   4.752  25.363  0.00  0.00    +0.017 A 
ENDBRANCH   3   4
ENDBRANCH  10   2
BRANCH  17  18
ATOM     18  C   UNL     1      -4.563   0.552  25.109  0.00  0.00    +0.145 C 
BRANCH  18  19
ATOM     19  N   UNL     1      -4.408  -0.186  24.774  0.00  0.00    -0.229 N 
ATOM     20  C   UNL     1      -3.793  -0.694  24.984  0.00  0.00    +0.117 A 
ATOM     21  C   UNL     1      -3.846  -1.367  24.509  0.00  0.00    +0.119 A 
ATOM     22  N   UNL     1      -4.493  -1.273  24.006  0.00  0.00    -0.129 NA
ATOM     23  N   UNL     1      -4.840  -0.544  24.169  0.00  0.00    -0.064 NA
BRANCH  21  24
ATOM     24  C   UNL     1      -3.341  -2.019  24.534  0.00  0.00    -0.005 C 
ATOM     25  C   UNL     1      -3.570  -2.808  24.601  0.00  0.00    -0.029 C 
ATOM     26  C   UNL     1      -2.888  -3.273  24.604  0.00  0.00    +0.026 C 
ATOM     27  C   UNL     1      -2.237  -2.770  24.539  0.00  0.00    +0.009 C 
ATOM     28  C   UNL     1      -2.517  -1.996  24.495  0.00  0.00    +0.028 C 
ENDBRANCH  21  24
ENDBRANCH  18  19
ENDBRANCH  17  18
TORSDOF 5
ENDMDL
MODEL 3
REMARK VINA RESULT:     -12.4      2.182      2.742
REMARK  Name = 
REMARK  5 active torsions:
REMARK  status: ('A' for Active; 'I' for Inactive)
REMARK    1  A    between atoms: C_2  and  C_10
REMARK    2  A    between atoms: N_3  and  C_4
REMARK    3  A    between atoms: C_17  and  C_18
REMARK    4  A    between atoms: C_18  and  N_19
REMARK    5  A    between atoms: C_21  and  C_24
REMARK                            x       y       z     vdW  Elec       q    Type
REMARK                         _______ _______ _______ _____ _____    ______ ____
ROOT
ATOM     10  C   UNL     1      -1.671  -0.327  25.111  0.00  0.00    +0.095 C 
ATOM     11  C   UNL     1      -1.966   0.019  25.742  0.00  0.00    +0.081 C 
ATOM     12  N   UNL     1      -1.270   0.229  25.353  0.00  0.00    -0.272 NA
ATOM     13  C   UNL     1      -1.155  -0.431  24.546  0.00  0.00    +0.072 C 
ATOM     14  C   UNL     1      -0.819  -0.640  24.026  0.00  0.00    +0.018 C 
ATOM     15  C   UNL     1      -0.986  -0.116  24.734  0.00  0.00    +0.013 C 
ATOM     16  C   UNL     1      -0.399   0.517  24.893  0.00  0.00    +0.019 C 
ATOM     17  C   UNL     1      -0.655   0.884  25.512  0.00  0.00    +0.082 C 
ENDROOT
BRANCH  10   2
ATOM      1  O   UNL     1      -1.706  -1.521  24.324  0.00  0.00    -0.273 OA
ATOM      2  C   UNL     1      -2.091  -0.966  24.798  0.00  0.00    +0.246 C 
ATOM      3  N   UNL     1      -2.895  -1.048  24.960  0.00  0.00    -0.179 NA
BRANCH   3   4
ATOM      4  C   UNL     1      -3.315  -1.686  24.648  0.00  0.00    +0.073 A 
ATOM      5  C   UNL     1      -3.833  -1.570  24.016  0.00  0.00    +0.017 A 
ATOM      6  C   UNL     1      -4.253  -2.207  23.703  0.00  0.00    +0.001 A 
ATOM      7  C   UNL     1      -4.156  -2.962  24.022  0.00  0.00    +0.000 A 
ATOM      8  C   UNL     1      -3.638  -3.078  24.654  0.00  0.00    +0.001 A 
ATOM      9  C   UNL     1      -3.218  -2.440  24.967  0.00  0.00    +0.017 A 
ENDBRANCH   3   4
ENDBRANCH  10   2
BRANCH  17  18
ATOM     18  C   UNL     1      -0.478   1.506  26.023  0.00  0.00    +0.145 C 
BRANCH  18  19
ATOM     19  N   UNL     1      -0.416   2.275  25.731  0.00  0.00    -0.229 N 
ATOM     20  C   UNL     1      -1.014   2.844  25.733  0.00  0.00    +0.117 A 
ATOM     21  C   UNL     1      -0.712   3.531  25.389  0.00  0.00    +0.119 A 
ATOM     22  N   UNL     1       0.071   3.386  25.175  0.00  0.00    -0.129 NA
ATOM     23  N   UNL     1       0.254   2.610  25.386  0.00  0.00    -0.064 NA
BRANCH  21  24
ATOM     24  C   UNL     1      -1.122   4.238  25.279  0.00  0.00    -0.005 C 
ATOM     25  C   UNL     1      -1.902   4.387  25.504  0.00  0.00    -0.029 C 
ATOM     26  C   UNL     1      -2.086   5.162  25.288  0.00  0.00    +0.026 C 
ATOM     27  C   UNL     1      -1.420   5.492  24.930  0.00  0.00    +0.009 C 
ATOM     28  C   UNL     1      -0.825   4.921  24.924  0.00  0.00    +0.028 C 
ENDBRANCH  21  24
ENDBRANCH  18  19
ENDBRANCH  17  18
TORSDOF 5
ENDMDL
MODEL 4
REMARK VINA RESULT:     -12.1      2.242      6.041
REMARK  Name = 
REMARK  5 active torsions:
REMARK  status: ('A' for Active; 'I' for Inactive)
REMARK    1  A    between atoms: C_2  and  C_10
REMARK    2  A    between atoms: N_3  and  C_4
REMARK    3  A    between atoms: C_17  and  C_18
REMARK    4  A    between atoms: C_18  and  N_19
REMARK    5  A    between atoms: C_21  and  C_24
REMARK                            x       y       z     vdW  Elec       q    Type
REMARK                         _______ _______ _______ _____ _____    ______ ____
ROOT
ATOM     10  C   UNL     1      -0.742   1.852  24.909  0.00  0.00    +0.095 C 
ATOM     11  C   UNL     1      -0.789   1.633  24.163  0.00  0.00    +0.081 C 
ATOM     12  N   UNL     1      -0.713   1.132  24.814  0.00  0.00    -0.272 NA
ATOM     13  C   UNL     1      -0.677   1.738  25.669  0.00  0.00    +0.072 C 
ATOM     14  C   UNL     1      -0.629   1.803  26.318  0.00  0.00    +0.018 C 
ATOM     15  C   UNL     1      -0.667   1.354  25.542  0.00  0.00    +0.013 C 
ATOM     16  C   UNL     1      -0.619   0.479  25.601  0.00  0.00    +0.019 C 
ATOM     17  C   UNL     1      -0.662   0.223  24.883  0.00  0.00    +0.082 C 
ENDROOT
BRANCH  10   2
ATOM      1  O   UNL     1      -0.304   2.981  25.668  0.00  0.00    -0.273 OA
ATOM      2  C   UNL     1      -0.771   2.662  25.067  0.00  0.00    +0.246 C 
ATOM      3  N   UNL     1      -1.265   3.151  24.625  0.00  0.00    -0.179 NA
BRANCH   3   4
ATOM      4  C   UNL     1      -1.294   3.960  24.784  0.00  0.00    +0.073 A 
ATOM      5  C   UNL     1      -1.934   4.278  25.196  0.00  0.00    +0.017 A 
ATOM      6  C   UNL     1      -1.962   5.087  25.355  0.00  0.00    +0.001 A 
ATOM      7  C   UNL     1      -1.351   5.579  25.101  0.00  0.00    +0.000 A 
ATOM      8  C   UNL     1      -0.711   5.261  24.688  0.00  0.00    +0.001 A 
ATOM      9  C   UNL     1      -0.682   4.452  24.530  0.00  0.00    +0.017 A 
ENDBRANCH   3   4
ENDBRANCH  10   2
BRANCH  17  18
ATOM     18  C   UNL     1      -0.662  -0.468  24.434  0.00  0.00    +0.145 C 
BRANCH  18  19
ATOM     19  N   UNL     1      -1.226  -1.053  24.576  0.00  0.00    -0.229 N 
ATOM     20  C   UNL     1      -1.974  -1.099  24.229  0.00  0.00    +0.117 A 
ATOM     21  C   UNL     1      -2.351  -1.770  24.529  0.00  0.00    +0.119 A 
ATOM     22  N   UNL     1      -1.837  -2.136  25.060  0.00  0.00    -0.129 NA
ATOM     23  N   UNL     1      -1.142  -1.693  25.089  0.00  0.00    -0.064 NA
BRANCH  21  24
ATOM     24  C   UNL     1      -3.110  -2.027  24.332  0.00  0.00    -0.005 C 
ATOM     25  C   UNL     1      -3.374  -2.809  24.340  0.00  0.00    -0.029 C 
ATOM     26  C   UNL     1      -4.165  -2.814  24.106  0.00  0.00    +0.026 C 
ATOM     27  C   UNL     1      -4.389  -2.034  23.953  0.00  0.00    +0.009 C 
ATOM     28  C   UNL     1      -3.737  -1.549  24.093  0.00  0.00    +0.028 C 
ENDBRANCH  21  24
ENDBRANCH  18  19
ENDBRANCH  17  18
TORSDOF 5
ENDMDL
