MODEL 1
REMARK VINA RESULT:      -9.6      0.000      0.000
REMARK  Name = 
REMARK  10 active torsions:
REMARK  status: ('A' for Active; 'I' for Inactive)
REMARK    1  A    between atoms: C_2  and  C_4
REMARK    2  A    between atoms: C_4  and  C_5
REMARK    3  A    between atoms: C_4  and  N_11
REMARK    4  A    between atoms: C_5  and  C_6
REMARK    5  A    between atoms: C_12  and  C_14
REMARK    6  A    between atoms: C_21  and  N_23
REMARK    7  A    between atoms: C_24  and  C_26
REMARK    8  A    between atoms: C_26  and  C_27
REMARK    9  A    between atoms: C_27  and  C_28
REMARK   10  A    between atoms: C_28  and  C_29
REMARK                            x       y       z     vdW  Elec       q    Type
REMARK                         _______ _______ _______ _____ _____    ______ ____
ROOT
ATOM     14  C   UNL     1      -3.748   2.075  24.659  0.00  0.00    +0.200 C 
ATOM     15  O   UNL     1      -2.996   2.186  24.341  0.00  0.00    -0.216 OA
ATOM     16  C   UNL     1      -4.460   2.240  25.043  0.00  0.00    +0.075 C 
ATOM     17  C   UNL     1      -5.030   1.650  25.128  0.00  0.00    +0.187 C 
ATOM     18  O   UNL     1      -5.740   1.815  25.512  0.00  0.00    -0.220 OA
ATOM     19  C   UNL     1      -4.888   0.894  24.828  0.00  0.00    +0.202 C 
ATOM     20  O   UNL     1      -5.459   0.304  24.913  0.00  0.00    -0.219 OA
ATOM     21  C   UNL     1      -4.177   0.729  24.444  0.00  0.00    +0.131 C 
ATOM     22  C   UNL     1      -3.608   1.319  24.360  0.00  0.00    +0.064 C 
ENDROOT
BRANCH  14  12
ATOM     11  N   UNL     1      -2.980   3.090  25.308  0.00  0.00    -0.195 NA
ATOM     12  C   UNL     1      -3.628   2.869  24.848  0.00  0.00    +0.269 C 
ATOM     13  O   UNL     1      -4.156   3.442  24.576  0.00  0.00    -0.271 OA
BRANCH  11   4
ATOM      4  C   UNL     1      -2.860   3.884  25.497  0.00  0.00    +0.179 C 
BRANCH   4   2
ATOM      1  N   UNL     1      -3.565   4.824  26.310  0.00  0.00    -0.086 NA
ATOM      2  C   UNL     1      -3.071   4.167  26.242  0.00  0.00    +0.281 C 
ATOM      3  O   UNL     1      -2.788   3.793  26.921  0.00  0.00    -0.270 OA
ENDBRANCH   4   2
BRANCH   4   5
ATOM      5  C   UNL     1      -2.528   4.394  24.941  0.00  0.00    +0.064 C 
BRANCH   5   6
ATOM      6  C   UNL     1      -1.715   4.536  24.943  0.00  0.00    +0.010 A 
ATOM      7  C   UNL     1      -1.122   3.963  24.956  0.00  0.00    +0.003 A 
ATOM      8  C   UNL     1      -0.393   4.350  24.953  0.00  0.00    +0.007 A 
ATOM      9  C   UNL     1      -0.537   5.162  24.939  0.00  0.00    +0.035 A 
ATOM     10  S   UNL     1      -1.353   5.278  24.933  0.00  0.00    -0.091 S 
ENDBRANCH   5   6
ENDBRANCH   4   5
ENDBRANCH  11   4
ENDBRANCH  14  12
BRANCH  21  23
ATOM     23  N   UNL     1      -4.037  -0.027  24.145  0.00  0.00    -0.204 NA
ATOM     24  C   UNL     1      -3.499  -0.527  24.521  0.00  0.00    +0.241 C 
ATOM     25  O   UNL     1      -3.102  -0.271  25.197  0.00  0.00    -0.273 OA
BRANCH  24  26
ATOM     26  C   UNL     1      -3.359  -1.282  24.221  0.00  0.00    +0.087 C 
BRANCH  26  27
ATOM     27  C   UNL     1      -2.779  -1.761  24.563  0.00  0.00    +0.019 C 
ATOM     32  C   UNL     1      -2.259  -1.297  24.120  0.00  0.00    +0.001 C 
ATOM     33  C   UNL     1      -1.493  -1.565  24.267  0.00  0.00    +0.000 C 
ATOM     34  C   UNL     1      -1.540  -2.194  24.799  0.00  0.00    +0.000 C 
ATOM     35  C   UNL     1      -2.335  -2.314  24.982  0.00  0.00    +0.001 C 
BRANCH  27  28
ATOM     28  C   UNL     1      -3.421  -2.123  24.933  0.00  0.00    +0.115 C 
BRANCH  28  29
ATOM     29  C   UNL     1      -3.667  -2.873  24.692  0.00  0.00    +0.365 C 
ATOM     30  O   UNL     1      -4.017  -2.974  23.952  0.00  0.00    -0.246 OA
ATOM     31  O   UNL     1      -3.562  -3.522  25.191  0.00  0.00    -0.246 OA
ENDBRANCH  28  29
ENDBRANCH  27  28
ENDBRANCH  26  27
ENDBRANCH  24  26
ENDBRANCH  21  23
TORSDOF 10
ENDMDL
MODEL 2
REMARK VINA RESULT:      -9.4      2.490      6.154
REMARK  Name = 
REMARK  10 active torsions:
REMARK  status: ('A' for Active; 'I' for Inactive)
REMARK    1  A    between atoms: C_2  and  C_4
REMARK    2  A    between atoms: C_4  and  C_5
REMARK    3  A    between atoms: C_4  and  N_11
REMARK    4  A    between atoms: C_5  and  C_6
REMARK    5  A    between atoms: C_12  and  C_14
REMARK    6  A    between atoms: C_21  and  N_23
REMARK    7  A    between atoms: C_24  and  C_26
REMARK    8  A    between atoms: C_26  and  C_27
REMARK    9  A    between atoms: C_27  and  C_28
REMARK   10  A    between atoms: C_28  and  C_29
REMARK                            x       y       z     vdW  Elec       q    Type
REMARK                         _______ _______ _______ _____ _____    ______ ____
ROOT
ATOM     14  C   UNL     1      -1.020   0.227  25.336  0.00  0.00    +0.200 C 
ATOM     15  O   UNL     1      -1.586   0.178  25.933  0.00  0.00    -0.216 OA
ATOM     16  C   UNL     1      -0.518  -0.002  24.722  0.00  0.00    +0.075 C 
ATOM     17  C   UNL     1      -0.028   0.554  24.361  0.00  0.00    +0.187 C 
ATOM     18  O   UNL     1       0.474   0.324  23.748  0.00  0.00    -0.220 OA
ATOM     19  C   UNL     1      -0.039   1.339  24.612  0.00  0.00    +0.202 C 
ATOM     20  O   UNL     1       0.452   1.895  24.249  0.00  0.00    -0.219 OA
ATOM     21  C   UNL     1      -0.541   1.569  25.225  0.00  0.00    +0.131 C 
ATOM     22  C   UNL     1      -1.031   1.013  25.586  0.00  0.00    +0.064 C 
ENDROOT
BRANCH  14  12
ATOM     11  N   UNL     1      -1.774  -0.840  24.756  0.00  0.00    -0.195 NA
ATOM     12  C   UNL     1      -1.205  -0.575  25.292  0.00  0.00    +0.269 C 
ATOM     13  O   UNL     1      -0.821  -1.114  25.785  0.00  0.00    -0.271 OA
BRANCH  11   4
ATOM      4  C   UNL     1      -1.959  -1.642  24.713  0.00  0.00    +0.179 C 
BRANCH   4   2
ATOM      1  N   UNL     1      -1.114  -2.794  24.753  0.00  0.00    -0.086 NA
ATOM      2  C   UNL     1      -1.444  -2.164  24.335  0.00  0.00    +0.281 C 
ATOM      3  O   UNL     1      -1.260  -2.057  23.538  0.00  0.00    -0.270 OA
ENDBRANCH   4   2
BRANCH   4   5
ATOM      5  C   UNL     1      -2.658  -1.923  25.048  0.00  0.00    +0.064 C 
BRANCH   5   6
ATOM      6  C   UNL     1      -3.357  -1.920  24.610  0.00  0.00    +0.010 A 
ATOM      7  C   UNL     1      -3.813  -1.257  24.428  0.00  0.00    +0.003 A 
ATOM      8  C   UNL     1      -4.461  -1.507  23.981  0.00  0.00    +0.007 A 
ATOM      9  C   UNL     1      -4.404  -2.324  23.888  0.00  0.00    +0.035 A 
ATOM     10  S   UNL     1      -3.723  -2.580  24.276  0.00  0.00    -0.091 S 
ENDBRANCH   5   6
ENDBRANCH   4   5
ENDBRANCH  11   4
ENDBRANCH  14  12
BRANCH  21  23
ATOM     23  N   UNL     1      -0.553   2.355  25.475  0.00  0.00    -0.204 NA
ATOM     24  C   UNL     1      -1.204   2.832  25.309  0.00  0.00    +0.241 C 
ATOM     25  O   UNL     1      -1.846   2.523  24.892  0.00  0.00    -0.273 OA
BRANCH  24  26
ATOM     26  C   UNL     1      -1.215   3.618  25.560  0.00  0.00    +0.087 C 
BRANCH  26  27
ATOM     27  C   UNL     1      -1.917   4.051  25.528  0.00  0.00    +0.019 C 
ATOM     32  C   UNL     1      -2.111   3.622  26.206  0.00  0.00    +0.001 C 
ATOM     33  C   UNL     1      -2.861   3.861  26.452  0.00  0.00    +0.000 C 
ATOM     34  C   UNL     1      -3.130   4.438  25.927  0.00  0.00    +0.000 C 
ATOM     35  C   UNL     1      -2.546   4.555  25.356  0.00  0.00    +0.001 C 
BRANCH  27  28
ATOM     28  C   UNL     1      -1.575   4.389  24.858  0.00  0.00    +0.115 C 
BRANCH  28  29
ATOM     29  C   UNL     1      -1.191   5.118  24.914  0.00  0.00    +0.365 C 
ATOM     30  O   UNL     1      -1.624   5.803  25.065  0.00  0.00    -0.246 OA
ATOM     31  O   UNL     1      -0.372   5.160  24.819  0.00  0.00    -0.246 OA
ENDBRANCH  28  29
ENDBRANCH  27  28
ENDBRANCH  26  27
ENDBRANCH  24  26
ENDBRANCH  21  23
TORSDOF 10
ENDMDL
MODEL 3
REMARK VINA RESULT:      -9.4      1.055      1.384
REMARK  Name = 
REMARK  10 active torsions:
REMARK  status: ('A' for Active; 'I' for Inactive)
REMARK    1  A    between atoms: C_2  and  C_4
REMARK    2  A    between atoms: C_4  and  C_5
REMARK    3  A    between atoms: C_4  and  N_11
REMARK    4  A    between atoms: C_5  and  C_6
REMARK    5  A    between atoms: C_12  and  C_14
REMARK    6  A    between atoms: C_21  and  N_23
REMARK    7  A    between atoms: C_24  and  C_26
REMARK    8  A    between atoms: C_26  and  C_27
REMARK    9  A    between atoms: C_27  and  C_28
REMARK   10  A    between atoms: C_28  and  C_29
REMARK                            x       y       z     vdW  Elec       q    Type
REMARK                         _______ _______ _______ _____ _____    ______ ____
ROOT
ATOM     14  C   UNL     1      -3.480   2.171  24.583  0.00  0.00    +0.200 C 
ATOM     15  O   UNL     1      -2.754   1.882  24.320  0.00  0.00    -0.216 OA
ATOM     16  C   UNL     1      -4.052   2.701  24.855  0.00  0.00    +0.075 C 
ATOM     17  C   UNL     1      -4.817   2.437  25.011  0.00  0.00    +0.187 C 
ATOM     18  O   UNL     1      -5.388   2.967  25.282  0.00  0.00    -0.220 OA
ATOM     19  C   UNL     1      -5.011   1.644  24.897  0.00  0.00    +0.202 C 
ATOM     20  O   UNL     1      -5.778   1.380  25.054  0.00  0.00    -0.219 OA
ATOM     21  C   UNL     1      -4.440   1.114  24.626  0.00  0.00    +0.131 C 
ATOM     22  C   UNL     1      -3.675   1.377  24.469  0.00  0.00    +0.064 C 
ENDROOT
BRANCH  14  12
ATOM     11  N   UNL     1      -2.439   2.954  25.172  0.00  0.00    -0.195 NA
ATOM     12  C   UNL     1      -3.033   2.864  24.606  0.00  0.00    +0.269 C 
ATOM     13  O   UNL     1      -3.180   3.467  24.063  0.00  0.00    -0.271 OA
BRANCH  11   4
ATOM      4  C   UNL     1      -1.993   3.647  25.194  0.00  0.00    +0.179 C 
BRANCH   4   2
ATOM      1  N   UNL     1      -2.244   5.053  25.227  0.00  0.00    -0.086 NA
ATOM      2  C   UNL     1      -2.283   4.312  25.587  0.00  0.00    +0.281 C 
ATOM      3  O   UNL     1      -2.612   4.237  26.339  0.00  0.00    -0.270 OA
ENDBRANCH   4   2
BRANCH   4   5
ATOM      5  C   UNL     1      -1.256   3.675  24.825  0.00  0.00    +0.064 C 
BRANCH   5   6
ATOM      6  C   UNL     1      -0.625   3.237  25.128  0.00  0.00    +0.010 A 
ATOM      7  C   UNL     1      -0.434   3.148  25.926  0.00  0.00    +0.003 A 
ATOM      8  C   UNL     1       0.235   2.668  25.976  0.00  0.00    +0.007 A 
ATOM      9  C   UNL     1       0.457   2.460  25.209  0.00  0.00    +0.035 A 
ATOM     10  S   UNL     1      -0.074   2.812  24.685  0.00  0.00    -0.091 S 
ENDBRANCH   5   6
ENDBRANCH   4   5
ENDBRANCH  11   4
ENDBRANCH  14  12
BRANCH  21  23
ATOM     23  N   UNL     1      -4.636   0.320  24.512  0.00  0.00    -0.204 NA
ATOM     24  C   UNL     1      -4.177  -0.272  24.858  0.00  0.00    +0.241 C 
ATOM     25  O   UNL     1      -3.522  -0.070  25.319  0.00  0.00    -0.273 OA
BRANCH  24  26
ATOM     26  C   UNL     1      -4.373  -1.065  24.744  0.00  0.00    +0.087 C 
BRANCH  26  27
ATOM     27  C   UNL     1      -3.789  -1.646  24.801  0.00  0.00    +0.019 C 
ATOM     32  C   UNL     1      -3.819  -1.473  25.608  0.00  0.00    +0.001 C 
ATOM     33  C   UNL     1      -3.273  -1.958  25.992  0.00  0.00    +0.000 C 
ATOM     34  C   UNL     1      -2.906  -2.430  25.423  0.00  0.00    +0.000 C 
ATOM     35  C   UNL     1      -3.225  -2.237  24.687  0.00  0.00    +0.001 C 
BRANCH  27  28
ATOM     28  C   UNL     1      -3.882  -1.696  23.983  0.00  0.00    +0.115 C 
BRANCH  28  29
ATOM     29  C   UNL     1      -4.200  -2.379  23.646  0.00  0.00    +0.365 C 
ATOM     30  O   UNL     1      -3.703  -2.934  23.291  0.00  0.00    -0.246 OA
ATOM     31  O   UNL     1      -5.015  -2.506  23.663  0.00  0.00    -0.246 OA
ENDBRANCH  28  29
ENDBRANCH  27  28
ENDBRANCH  26  27
ENDBRANCH  24  26
ENDBRANCH  21  23
TORSDOF 10
ENDMDL
MODEL 4
REMARK VINA RESULT:      -8.9      1.812      5.427
REMARK  Name = 
REMARK  10 active torsions:
REMARK  status: ('A' for Active; 'I' for Inactive)
REMARK    1  A    between atoms: C_2  and  C_4
REMARK    2  A    between atoms: C_4  and  C_5
REMARK    3  A    between atoms: C_4  and  N_11
REMARK    4  A    between atoms: C_5  and  C_6
REMARK    5  A    between atoms: C_12  and  C_14
REMARK    6  A    between atoms: C_21  and  N_23
REMARK    7  A    between atoms: C_24  and  C_26
REMARK    8  A    between atoms: C_26  and  C_27
REMARK    9  A    between atoms: C_27  and  C_28
REMARK   10  A    between atoms: C_28  and  C_29
REMARK                            x       y       z     vdW  Elec       q    Type
REMARK                         _______ _______ _______ _____ _____    ______ ____
ROOT
ATOM     14  C   UNL     1      -3.802   0.921  25.156  0.00  0.00    +0.200 C 
ATOM     15  O   UNL     1      -3.120   0.543  25.426  0.00  0.00    -0.216 OA
ATOM     16  C   UNL     1      -4.554   1.028  24.835  0.00  0.00    +0.075 C 
ATOM     17  C   UNL     1      -4.866   1.787  24.757  0.00  0.00    +0.187 C 
ATOM     18  O   UNL     1      -5.618   1.892  24.436  0.00  0.00    -0.220 OA
ATOM     19  C   UNL     1      -4.426   2.440  25.001  0.00  0.00    +0.202 C 
ATOM     20  O   UNL     1      -4.739   3.200  24.923  0.00  0.00    -0.219 OA
ATOM     21  C   UNL     1      -3.674   2.335  25.322  0.00  0.00    +0.131 C 
ATOM     22  C   UNL     1      -3.362   1.576  25.400  0.00  0.00    +0.064 C 
ENDROOT
BRANCH  14  12
ATOM     11  N   UNL     1      -3.510  -0.338  24.546  0.00  0.00    -0.195 NA
ATOM     12  C   UNL     1      -4.005   0.136  25.006  0.00  0.00    +0.269 C 
ATOM     13  O   UNL     1      -4.702  -0.176  25.317  0.00  0.00    -0.271 OA
BRANCH  11   4
ATOM      4  C   UNL     1      -3.713  -1.122  24.396  0.00  0.00    +0.179 C 
BRANCH   4   2
ATOM      1  N   UNL     1      -4.808  -1.832  23.811  0.00  0.00    -0.086 NA
ATOM      2  C   UNL     1      -4.172  -1.311  23.737  0.00  0.00    +0.281 C 
ATOM      3  O   UNL     1      -3.997  -0.979  23.002  0.00  0.00    -0.270 OA
ENDBRANCH   4   2
BRANCH   4   5
ATOM      5  C   UNL     1      -3.457  -1.719  24.904  0.00  0.00    +0.064 C 
BRANCH   5   6
ATOM      6  C   UNL     1      -2.727  -2.083  24.779  0.00  0.00    +0.010 A 
ATOM      7  C   UNL     1      -1.992  -1.790  25.011  0.00  0.00    +0.003 A 
ATOM      8  C   UNL     1      -1.415  -2.330  24.776  0.00  0.00    +0.007 A 
ATOM      9  C   UNL     1      -1.794  -2.958  24.399  0.00  0.00    +0.035 A 
ATOM     10  S   UNL     1      -2.605  -2.806  24.400  0.00  0.00    -0.091 S 
ENDBRANCH   5   6
ENDBRANCH   4   5
ENDBRANCH  11   4
ENDBRANCH  14  12
BRANCH  21  23
ATOM     23  N   UNL     1      -3.234   2.990  25.566  0.00  0.00    -0.204 NA
ATOM     24  C   UNL     1      -2.505   3.150  25.217  0.00  0.00    +0.241 C 
ATOM     25  O   UNL     1      -2.214   2.656  24.623  0.00  0.00    -0.273 OA
BRANCH  24  26
ATOM     26  C   UNL     1      -2.066   3.804  25.461  0.00  0.00    +0.087 C 
BRANCH  26  27
ATOM     27  C   UNL     1      -1.252   3.828  25.327  0.00  0.00    +0.019 C 
ATOM     32  C   UNL     1      -1.225   3.256  25.922  0.00  0.00    +0.001 C 
ATOM     33  C   UNL     1      -0.436   3.045  26.037  0.00  0.00    +0.000 C 
ATOM     34  C   UNL     1       0.025   3.486  25.513  0.00  0.00    +0.000 C 
ATOM     35  C   UNL     1      -0.480   3.970  25.075  0.00  0.00    +0.001 C 
BRANCH  27  28
ATOM     28  C   UNL     1      -1.449   4.394  24.761  0.00  0.00    +0.115 C 
BRANCH  28  29
ATOM     29  C   UNL     1      -1.257   5.187  24.886  0.00  0.00    +0.365 C 
ATOM     30  O   UNL     1      -1.743   5.661  25.354  0.00  0.00    -0.246 OA
ATOM     31  O   UNL     1      -0.578   5.505  24.542  0.00  0.00    -0.246 OA
ENDBRANCH  28  29
ENDBRANCH  27  28
ENDBRANCH  26  27
ENDBRANCH  24  26
ENDBRANCH  21  23
TORSDOF 10
ENDMDL
MODEL 5
REMARK VINA RESULT:      -8.8      1.763      2.226
REMARK  Name = 
REMARK  10 active torsions:
REMARK  status: ('A' for Active; 'I' for Inactive)
REMARK    1  A    between atoms: C_2  and  C_4
REMARK    2  A    between atoms: C_4  and  C_5
REMARK    3  A    between atoms: C_4  and  N_11
REMARK    4  A    between atoms: C_5  and  C_6
REMARK    5  A    between atoms: C_12  and  C_14
REMARK    6  A    between atoms: C_21  and  N_23
REMARK    7  A    between atoms: C_24  and  C_26
REMARK    8  A    between atoms: C_26  and  C_27
REMARK    9  A    between atoms: C_27  and  C_28
REMARK   10  A    between atoms: C_28  and  C_29
REMARK                            x       y       z     vdW  Elec       q    Type
REMARK                         _______ _______ _______ _____ _____    ______ ____
ROOT
ATOM     14  C   UNL     1      -1.843   1.435  24.526  0.00  0.00    +0.200 C 
ATOM     15  O   UNL     1      -1.634   1.207  25.290  0.00  0.00    -0.216 OA
ATOM     16  C   UNL     1      -1.833   1.841  23.807  0.00  0.00    +0.075 C 
ATOM     17  C   UNL     1      -2.383   1.657  23.221  0.00  0.00    +0.187 C 
ATOM     18  O   UNL     1      -2.372   2.063  22.503  0.00  0.00    -0.220 OA
ATOM     19  C   UNL     1      -2.944   1.067  23.353  0.00  0.00    +0.202 C 
ATOM     20  O   UNL     1      -3.494   0.882  22.766  0.00  0.00    -0.219 OA
ATOM     21  C   UNL     1      -2.955   0.661  24.071  0.00  0.00    +0.131 C 
ATOM     22  C   UNL     1      -2.405   0.845  24.657  0.00  0.00    +0.064 C 
ENDROOT
BRANCH  14  12
ATOM     11  N   UNL     1      -1.275   2.547  25.221  0.00  0.00    -0.195 NA
ATOM     12  C   UNL     1      -1.210   1.946  24.660  0.00  0.00    +0.269 C 
ATOM     13  O   UNL     1      -0.510   1.855  24.232  0.00  0.00    -0.271 OA
BRANCH  11   4
ATOM      4  C   UNL     1      -0.642   3.058  25.355  0.00  0.00    +0.179 C 
BRANCH   4   2
ATOM      1  N   UNL     1       0.701   2.865  25.802  0.00  0.00    -0.086 NA
ATOM      2  C   UNL     1      -0.107   2.900  25.962  0.00  0.00    +0.281 C 
ATOM      3  O   UNL     1      -0.379   2.777  26.731  0.00  0.00    -0.270 OA
ENDBRANCH   4   2
BRANCH   4   5
ATOM      5  C   UNL     1      -0.543   3.726  24.882  0.00  0.00    +0.064 C 
BRANCH   5   6
ATOM      6  C   UNL     1      -0.992   4.403  25.024  0.00  0.00    +0.010 A 
ATOM      7  C   UNL     1      -1.690   4.441  25.463  0.00  0.00    +0.003 A 
ATOM      8  C   UNL     1      -1.951   5.223  25.463  0.00  0.00    +0.007 A 
ATOM      9  C   UNL     1      -1.413   5.670  25.024  0.00  0.00    +0.035 A 
ATOM     10  S   UNL     1      -0.821   5.164  24.753  0.00  0.00    -0.091 S 
ENDBRANCH   5   6
ENDBRANCH   4   5
ENDBRANCH  11   4
ENDBRANCH  14  12
BRANCH  21  23
ATOM     23  N   UNL     1      -3.516   0.070  24.202  0.00  0.00    -0.204 NA
ATOM     24  C   UNL     1      -3.276  -0.710  24.319  0.00  0.00    +0.241 C 
ATOM     25  O   UNL     1      -2.473  -0.900  24.304  0.00  0.00    -0.273 OA
BRANCH  24  26
ATOM     26  C   UNL     1      -3.838  -1.299  24.450  0.00  0.00    +0.087 C 
BRANCH  26  27
ATOM     27  C   UNL     1      -3.602  -2.036  24.738  0.00  0.00    +0.019 C 
ATOM     32  C   UNL     1      -3.592  -1.651  25.468  0.00  0.00    +0.001 C 
ATOM     33  C   UNL     1      -3.363  -2.199  26.041  0.00  0.00    +0.000 C 
ATOM     34  C   UNL     1      -3.231  -2.921  25.665  0.00  0.00    +0.000 C 
ATOM     35  C   UNL     1      -3.379  -2.821  24.860  0.00  0.00    +0.001 C 
BRANCH  27  28
ATOM     28  C   UNL     1      -3.662  -2.266  23.948  0.00  0.00    +0.115 C 
BRANCH  28  29
ATOM     29  C   UNL     1      -4.286  -2.749  23.705  0.00  0.00    +0.365 C 
ATOM     30  O   UNL     1      -5.030  -2.422  23.567  0.00  0.00    -0.246 OA
ATOM     31  O   UNL     1      -4.164  -3.558  23.600  0.00  0.00    -0.246 OA
ENDBRANCH  28  29
ENDBRANCH  27  28
ENDBRANCH  26  27
ENDBRANCH  24  26
ENDBRANCH  21  23
TORSDOF 10
ENDMDL
MODEL 6
REMARK VINA RESULT:      -8.7      2.388      5.282
REMARK  Name = 
REMARK  10 active torsions:
REMARK  status: ('A' for Active; 'I' for Inactive)
REMARK    1  A    between atoms: C_2  and  C_4
REMARK    2  A    between atoms: C_4  and  C_5
REMARK    3  A    between atoms: C_4  and  N_11
REMARK    4  A    between atoms: C_5  and  C_6
REMARK    5  A    between atoms: C_12  and  C_14
REMARK    6  A    between atoms: C_21  and  N_23
REMARK    7  A    between atoms: C_24  and  C_26
REMARK    8  A    between atoms: C_26  and  C_27
REMARK    9  A    between atoms: C_27  and  C_28
REMARK   10  A    between atoms: C_28  and  C_29
REMARK                            x       y       z     vdW  Elec       q    Type
REMARK                         _______ _______ _______ _____ _____    ______ ____
ROOT
ATOM     14  C   UNL     1      -1.232   1.750  24.394  0.00  0.00    +0.200 C 
ATOM     15  O   UNL     1      -1.537   1.282  23.788  0.00  0.00    -0.216 OA
ATOM     16  C   UNL     1      -0.710   2.038  24.965  0.00  0.00    +0.075 C 
ATOM     17  C   UNL     1      -0.921   2.685  25.429  0.00  0.00    +0.187 C 
ATOM     18  O   UNL     1      -0.398   2.972  25.999  0.00  0.00    -0.220 OA
ATOM     19  C   UNL     1      -1.655   3.046  25.324  0.00  0.00    +0.202 C 
ATOM     20  O   UNL     1      -1.866   3.694  25.790  0.00  0.00    -0.219 OA
ATOM     21  C   UNL     1      -2.178   2.759  24.754  0.00  0.00    +0.131 C 
ATOM     22  C   UNL     1      -1.967   2.112  24.290  0.00  0.00    +0.064 C 
ENDROOT
BRANCH  14  12
ATOM     11  N   UNL     1      -0.749   0.453  24.042  0.00  0.00    -0.195 NA
ATOM     12  C   UNL     1      -0.604   1.227  24.288  0.00  0.00    +0.269 C 
ATOM     13  O   UNL     1       0.169   1.477  24.429  0.00  0.00    -0.271 OA
BRANCH  11   4
ATOM      4  C   UNL     1      -0.121  -0.071  23.936  0.00  0.00    +0.179 C 
BRANCH   4   2
ATOM      1  N   UNL     1       1.163   0.007  23.314  0.00  0.00    -0.086 NA
ATOM      2  C   UNL     1       0.341  -0.028  23.254  0.00  0.00    +0.281 C 
ATOM      3  O   UNL     1      -0.018  -0.020  22.512  0.00  0.00    -0.270 OA
ENDBRANCH   4   2
BRANCH   4   5
ATOM      5  C   UNL     1       0.046  -0.637  24.511  0.00  0.00    +0.064 C 
BRANCH   5   6
ATOM      6  C   UNL     1      -0.489  -1.249  24.656  0.00  0.00    +0.010 A 
ATOM      7  C   UNL     1      -0.863  -1.713  24.085  0.00  0.00    +0.003 A 
ATOM      8  C   UNL     1      -1.349  -2.254  24.474  0.00  0.00    +0.007 A 
ATOM      9  C   UNL     1      -1.274  -2.126  25.285  0.00  0.00    +0.035 A 
ATOM     10  S   UNL     1      -0.743  -1.505  25.399  0.00  0.00    -0.091 S 
ENDBRANCH   5   6
ENDBRANCH   4   5
ENDBRANCH  11   4
ENDBRANCH  14  12
BRANCH  21  23
ATOM     23  N   UNL     1      -2.913   3.121  24.650  0.00  0.00    -0.204 NA
ATOM     24  C   UNL     1      -3.600   2.739  24.897  0.00  0.00    +0.241 C 
ATOM     25  O   UNL     1      -3.553   1.994  25.250  0.00  0.00    -0.273 OA
BRANCH  24  26
ATOM     26  C   UNL     1      -4.334   3.101  24.792  0.00  0.00    +0.087 C 
BRANCH  26  27
ATOM     27  C   UNL     1      -5.017   2.740  25.084  0.00  0.00    +0.019 C 
ATOM     32  C   UNL     1      -4.931   2.246  24.428  0.00  0.00    +0.001 C 
ATOM     33  C   UNL     1      -5.549   1.700  24.439  0.00  0.00    +0.000 C 
ATOM     34  C   UNL     1      -6.016   1.856  25.101  0.00  0.00    +0.000 C 
ATOM     35  C   UNL     1      -5.687   2.499  25.500  0.00  0.00    +0.001 C 
BRANCH  27  28
ATOM     28  C   UNL     1      -4.958   3.309  25.678  0.00  0.00    +0.115 C 
BRANCH  28  29
ATOM     29  C   UNL     1      -5.491   3.940  25.699  0.00  0.00    +0.365 C 
ATOM     30  O   UNL     1      -5.367   4.600  25.221  0.00  0.00    -0.246 OA
ATOM     31  O   UNL     1      -6.147   3.909  26.199  0.00  0.00    -0.246 OA
ENDBRANCH  28  29
ENDBRANCH  27  28
ENDBRANCH  26  27
ENDBRANCH  24  26
ENDBRANCH  21  23
TORSDOF 10
ENDMDL
MODEL 7
REMARK VINA RESULT:      -8.4      1.689      2.738
REMARK  Name = 
REMARK  10 active torsions:
REMARK  status: ('A' for Active; 'I' for Inactive)
REMARK    1  A    between atoms: C_2  and  C_4
REMARK    2  A    between atoms: C_4  and  C_5
REMARK    3  A    between atoms: C_4  and  N_11
REMARK    4  A    between atoms: C_5  and  C_6
REMARK    5  A    between atoms: C_12  and  C_14
REMARK    6  A    between atoms: C_21  and  N_23
REMARK    7  A    between atoms: C_24  and  C_26
REMARK    8  A    between atoms: C_26  and  C_27
REMARK    9  A    between atoms: C_27  and  C_28
REMARK   10  A    between atoms: C_28  and  C_29
REMARK                            x       y       z     vdW  Elec       q    Type
REMARK                         _______ _______ _______ _____ _____    ______ ____
ROOT
ATOM     14  C   UNL     1      -1.692   1.620  24.166  0.00  0.00    +0.200 C 
ATOM     15  O   UNL     1      -2.505   1.730  24.080  0.00  0.00    -0.216 OA
ATOM     16  C   UNL     1      -0.895   1.791  24.293  0.00  0.00    +0.075 C 
ATOM     17  C   UNL     1      -0.334   1.188  24.269  0.00  0.00    +0.187 C 
ATOM     18  O   UNL     1       0.462   1.361  24.397  0.00  0.00    -0.220 OA
ATOM     19  C   UNL     1      -0.569   0.412  24.118  0.00  0.00    +0.202 C 
ATOM     20  O   UNL     1      -0.006  -0.192  24.095  0.00  0.00    -0.219 OA
ATOM     21  C   UNL     1      -1.365   0.239  23.991  0.00  0.00    +0.131 C 
ATOM     22  C   UNL     1      -1.927   0.843  24.015  0.00  0.00    +0.064 C 
ENDROOT
BRANCH  14  12
ATOM     11  N   UNL     1      -2.137   2.731  24.947  0.00  0.00    -0.195 NA
ATOM     12  C   UNL     1      -1.740   2.434  24.287  0.00  0.00    +0.269 C 
ATOM     13  O   UNL     1      -1.391   2.952  23.748  0.00  0.00    -0.271 OA
BRANCH  11   4
ATOM      4  C   UNL     1      -2.185   3.545  25.068  0.00  0.00    +0.179 C 
BRANCH   4   2
ATOM      1  N   UNL     1      -1.254   4.623  25.177  0.00  0.00    -0.086 NA
ATOM      2  C   UNL     1      -1.589   3.935  25.484  0.00  0.00    +0.281 C 
ATOM      3  O   UNL     1      -1.328   3.638  26.208  0.00  0.00    -0.270 OA
ENDBRANCH   4   2
BRANCH   4   5
ATOM      5  C   UNL     1      -2.828   3.968  24.774  0.00  0.00    +0.064 C 
BRANCH   5   6
ATOM      6  C   UNL     1      -3.563   3.916  25.145  0.00  0.00    +0.010 A 
ATOM      7  C   UNL     1      -3.695   3.900  25.959  0.00  0.00    +0.003 A 
ATOM      8  C   UNL     1      -4.509   3.845  26.085  0.00  0.00    +0.007 A 
ATOM      9  C   UNL     1      -4.879   3.826  25.348  0.00  0.00    +0.035 A 
ATOM     10  S   UNL     1      -4.295   3.870  24.767  0.00  0.00    -0.091 S 
ENDBRANCH   5   6
ENDBRANCH   4   5
ENDBRANCH  11   4
ENDBRANCH  14  12
BRANCH  21  23
ATOM     23  N   UNL     1      -1.600  -0.538  23.840  0.00  0.00    -0.204 NA
ATOM     24  C   UNL     1      -2.116  -0.921  24.356  0.00  0.00    +0.241 C 
ATOM     25  O   UNL     1      -2.399  -0.527  25.024  0.00  0.00    -0.273 OA
BRANCH  24  26
ATOM     26  C   UNL     1      -2.350  -1.697  24.204  0.00  0.00    +0.087 C 
BRANCH  26  27
ATOM     27  C   UNL     1      -2.897  -2.067  24.699  0.00  0.00    +0.019 C 
ATOM     32  C   UNL     1      -2.226  -2.329  25.102  0.00  0.00    +0.001 C 
ATOM     33  C   UNL     1      -2.475  -2.789  25.739  0.00  0.00    +0.000 C 
ATOM     34  C   UNL     1      -3.300  -2.811  25.731  0.00  0.00    +0.000 C 
ATOM     35  C   UNL     1      -3.561  -2.365  25.088  0.00  0.00    +0.001 C 
BRANCH  27  28
ATOM     28  C   UNL     1      -3.453  -1.727  24.193  0.00  0.00    +0.115 C 
BRANCH  28  29
ATOM     29  C   UNL     1      -4.006  -2.204  23.808  0.00  0.00    +0.365 C 
ATOM     30  O   UNL     1      -3.763  -2.900  23.437  0.00  0.00    -0.246 OA
ATOM     31  O   UNL     1      -4.801  -1.985  23.795  0.00  0.00    -0.246 OA
ENDBRANCH  28  29
ENDBRANCH  27  28
ENDBRANCH  26  27
ENDBRANCH  24  26
ENDBRANCH  21  23
TORSDOF 10
ENDMDL
