MODEL 1
REMARK VINA RESULT:     -12.2      0.000      0.000
REMARK  Name = 
REMARK  8 active torsions:
REMARK  status: ('A' for Active; 'I' for Inactive)
REMARK    1  A    between atoms: O_2  and  C_3
REMARK    2  A    between atoms: C_8  and  O_9
REMARK    3  A    between atoms: C_11  and  C_12
REMARK    4  A    between atoms: C_12  and  C_13
REMARK    5  A    between atoms: N_15  and  S_23
REMARK    6  A    between atoms: C_18  and  C_19
REMARK    7  A    between atoms: C_19  and  C_20
REMARK    8  A    between atoms: S_23  and  C_26
REMARK                            x       y       z     vdW  Elec       q    Type
REMARK                         _______ _______ _______ _____ _____    ______ ____
ROOT
ATOM     13  C   UNL     1      -3.713   1.709  24.908  0.00  0.00    +0.024 C 
ATOM     14  C   UNL     1      -3.594   0.903  24.786  0.00  0.00    +0.096 C 
ATOM     15  N   UNL     1      -4.218   0.372  24.896  0.00  0.00    -0.156 NA
ATOM     16  C   UNL     1      -4.959   0.650  25.127  0.00  0.00    +0.096 C 
ATOM     17  C   UNL     1      -5.077   1.457  25.249  0.00  0.00    +0.020 C 
ATOM     18  C   UNL     1      -4.455   1.987  25.140  0.00  0.00    +0.014 C 
ENDROOT
BRANCH  15  23
ATOM     23  S   UNL     1      -4.099  -0.435  24.773  0.00  0.00    +0.063 S 
ATOM     24  O   UNL     1      -4.437  -0.371  24.024  0.00  0.00    -0.153 OA
ATOM     25  O   UNL     1      -3.760  -0.498  25.523  0.00  0.00    -0.153 OA
BRANCH  23  26
ATOM     26  C   UNL     1      -3.980  -1.242  24.651  0.00  0.00    +0.122 A 
ATOM     27  C   UNL     1      -4.285  -1.606  23.976  0.00  0.00    +0.022 A 
ATOM     28  C   UNL     1      -4.166  -2.413  23.854  0.00  0.00    +0.031 A 
ATOM     29  C   UNL     1      -3.743  -2.856  24.407  0.00  0.00    +0.140 A 
ATOM     30  F   UNL     1      -3.624  -3.664  24.285  0.00  0.00    -0.204 F 
ATOM     31  C   UNL     1      -3.439  -2.492  25.082  0.00  0.00    +0.031 A 
ATOM     32  C   UNL     1      -3.558  -1.684  25.204  0.00  0.00    +0.022 A 
ENDBRANCH  23  26
ENDBRANCH  15  23
BRANCH  13  12
ATOM     12  C   UNL     1      -3.091   2.239  24.798  0.00  0.00    +0.047 C 
BRANCH  12  11
ATOM      3  C   UNL     1      -0.149   2.022  24.408  0.00  0.00    +0.172 A 
ATOM      4  C   UNL     1      -0.482   2.008  23.653  0.00  0.00    +0.036 A 
ATOM      5  C   UNL     1      -1.301   2.059  23.561  0.00  0.00    -0.016 A 
ATOM      6  C   UNL     1      -1.787   2.124  24.226  0.00  0.00    +0.012 A 
ATOM      7  C   UNL     1      -1.454   2.138  24.980  0.00  0.00    +0.041 A 
ATOM      8  C   UNL     1      -0.635   2.087  25.072  0.00  0.00    +0.172 A 
ATOM     11  C   UNL     1      -2.605   2.175  24.134  0.00  0.00    +0.053 C 
ATOM     33  N   UNL     1      -2.937   2.161  23.380  0.00  0.00    -0.274 NA
ATOM     34  C   UNL     1      -2.451   2.096  22.716  0.00  0.00    +0.130 C 
ATOM     35  C   UNL     1      -1.633   2.045  22.807  0.00  0.00    +0.053 C 
BRANCH   3   2
ATOM      1  C   UNL     1       1.122   1.574  23.937  0.00  0.00    +0.253 C 
ATOM      2  O   UNL     1       0.669   1.971  24.499  0.00  0.00    -0.468 OA
ENDBRANCH   3   2
BRANCH   8   9
ATOM      9  O   UNL     1      -0.303   2.101  25.826  0.00  0.00    -0.468 OA
ATOM     10  C   UNL     1      -0.502   2.702  26.354  0.00  0.00    +0.253 C 
ENDBRANCH   8   9
ENDBRANCH  12  11
ENDBRANCH  13  12
BRANCH  18  19
ATOM     19  C   UNL     1      -4.574   2.794  25.262  0.00  0.00    +0.114 C 
BRANCH  19  20
ATOM     20  C   UNL     1      -5.260   3.058  25.634  0.00  0.00    +0.365 C 
ATOM     21  O   UNL     1      -5.921   3.266  25.185  0.00  0.00    -0.246 OA
ATOM     22  O   UNL     1      -5.287   3.115  26.458  0.00  0.00    -0.246 OA
ENDBRANCH  19  20
ENDBRANCH  18  19
TORSDOF 8
ENDMDL
MODEL 2
REMARK VINA RESULT:     -11.5      1.314      3.548
REMARK  Name = 
REMARK  8 active torsions:
REMARK  status: ('A' for Active; 'I' for Inactive)
REMARK    1  A    between atoms: O_2  and  C_3
REMARK    2  A    between atoms: C_8  and  O_9
REMARK    3  A    between atoms: C_11  and  C_12
REMARK    4  A    between atoms: C_12  and  C_13
REMARK    5  A    between atoms: N_15  and  S_23
REMARK    6  A    between atoms: C_18  and  C_19
REMARK    7  A    between atoms: C_19  and  C_20
REMARK    8  A    between atoms: S_23  and  C_26
REMARK                            x       y       z     vdW  Elec       q    Type
REMARK                         _______ _______ _______ _____ _____    ______ ____
ROOT
ATOM     13  C   UNL     1      -1.504   1.476  24.525  0.00  0.00    +0.024 C 
ATOM     14  C   UNL     1      -1.968   0.797  24.579  0.00  0.00    +0.096 C 
ATOM     15  N   UNL     1      -1.613   0.052  24.566  0.00  0.00    -0.156 NA
ATOM     16  C   UNL     1      -0.794  -0.013  24.499  0.00  0.00    +0.096 C 
ATOM     17  C   UNL     1      -0.329   0.666  24.445  0.00  0.00    +0.020 C 
ATOM     18  C   UNL     1      -0.684   1.411  24.458  0.00  0.00    +0.014 C 
ENDROOT
BRANCH  15  23
ATOM     23  S   UNL     1      -2.078  -0.627  24.620  0.00  0.00    +0.063 S 
ATOM     24  O   UNL     1      -2.245  -0.450  25.409  0.00  0.00    -0.153 OA
ATOM     25  O   UNL     1      -1.910  -0.805  23.832  0.00  0.00    -0.153 OA
BRANCH  23  26
ATOM     26  C   UNL     1      -2.543  -1.307  24.675  0.00  0.00    +0.122 A 
ATOM     27  C   UNL     1      -2.184  -2.049  24.723  0.00  0.00    +0.022 A 
ATOM     28  C   UNL     1      -2.649  -2.728  24.777  0.00  0.00    +0.031 A 
ATOM     29  C   UNL     1      -3.472  -2.666  24.783  0.00  0.00    +0.140 A 
ATOM     30  F   UNL     1      -3.937  -3.345  24.837  0.00  0.00    -0.204 F 
ATOM     31  C   UNL     1      -3.829  -1.924  24.734  0.00  0.00    +0.031 A 
ATOM     32  C   UNL     1      -3.365  -1.244  24.680  0.00  0.00    +0.022 A 
ENDBRANCH  23  26
ENDBRANCH  15  23
BRANCH  13  12
ATOM     12  C   UNL     1      -1.858   2.221  24.538  0.00  0.00    +0.047 C 
BRANCH  12  11
ATOM      3  C   UNL     1      -4.419   3.619  25.120  0.00  0.00    +0.172 A 
ATOM      4  C   UNL     1      -4.482   3.337  24.347  0.00  0.00    +0.036 A 
ATOM      5  C   UNL     1      -3.858   2.916  24.008  0.00  0.00    -0.016 A 
ATOM      6  C   UNL     1      -3.170   2.778  24.442  0.00  0.00    +0.012 A 
ATOM      7  C   UNL     1      -3.106   3.061  25.215  0.00  0.00    +0.041 A 
ATOM      8  C   UNL     1      -3.730   3.481  25.554  0.00  0.00    +0.172 A 
ATOM     11  C   UNL     1      -2.546   2.359  24.104  0.00  0.00    +0.053 C 
ATOM     33  N   UNL     1      -2.610   2.076  23.332  0.00  0.00    -0.274 NA
ATOM     34  C   UNL     1      -3.299   2.214  22.898  0.00  0.00    +0.130 C 
ATOM     35  C   UNL     1      -3.922   2.634  23.236  0.00  0.00    +0.053 C 
BRANCH   3   2
ATOM      1  C   UNL     1      -5.807   3.731  25.438  0.00  0.00    +0.253 C 
ATOM      2  O   UNL     1      -5.042   4.039  25.458  0.00  0.00    -0.468 OA
ENDBRANCH   3   2
BRANCH   8   9
ATOM      9  O   UNL     1      -3.667   3.764  26.326  0.00  0.00    -0.468 OA
ATOM     10  C   UNL     1      -2.979   4.148  26.570  0.00  0.00    +0.253 C 
ENDBRANCH   8   9
ENDBRANCH  12  11
ENDBRANCH  13  12
BRANCH  18  19
ATOM     19  C   UNL     1      -0.219   2.090  24.404  0.00  0.00    +0.114 C 
BRANCH  19  20
ATOM     20  C   UNL     1       0.571   2.069  24.638  0.00  0.00    +0.365 C 
ATOM     21  O   UNL     1       0.774   2.217  25.424  0.00  0.00    -0.246 OA
ATOM     22  O   UNL     1       1.161   1.899  24.085  0.00  0.00    -0.246 OA
ENDBRANCH  19  20
ENDBRANCH  18  19
TORSDOF 8
ENDMDL
MODEL 3
REMARK VINA RESULT:     -10.6      2.589      4.267
REMARK  Name = 
REMARK  8 active torsions:
REMARK  status: ('A' for Active; 'I' for Inactive)
REMARK    1  A    between atoms: O_2  and  C_3
REMARK    2  A    between atoms: C_8  and  O_9
REMARK    3  A    between atoms: C_11  and  C_12
REMARK    4  A    between atoms: C_12  and  C_13
REMARK    5  A    between atoms: N_15  and  S_23
REMARK    6  A    between atoms: C_18  and  C_19
REMARK    7  A    between atoms: C_19  and  C_20
REMARK    8  A    between atoms: S_23  and  C_26
REMARK                            x       y       z     vdW  Elec       q    Type
REMARK                         _______ _______ _______ _____ _____    ______ ____
ROOT
ATOM     13  C   UNL     1      -4.090   1.807  24.939  0.00  0.00    +0.024 C 
ATOM     14  C   UNL     1      -3.439   2.313  24.930  0.00  0.00    +0.096 C 
ATOM     15  N   UNL     1      -3.538   3.117  25.087  0.00  0.00    -0.156 NA
ATOM     16  C   UNL     1      -4.290   3.414  25.253  0.00  0.00    +0.096 C 
ATOM     17  C   UNL     1      -4.940   2.909  25.263  0.00  0.00    +0.020 C 
ATOM     18  C   UNL     1      -4.841   2.105  25.106  0.00  0.00    +0.014 C 
ENDROOT
BRANCH  15  23
ATOM     23  S   UNL     1      -2.887   3.623  25.077  0.00  0.00    +0.063 S 
ATOM     24  O   UNL     1      -2.626   3.301  25.790  0.00  0.00    -0.153 OA
ATOM     25  O   UNL     1      -3.148   3.945  24.363  0.00  0.00    -0.153 OA
BRANCH  23  26
ATOM     26  C   UNL     1      -2.235   4.129  25.067  0.00  0.00    +0.122 A 
ATOM     27  C   UNL     1      -1.479   3.824  24.941  0.00  0.00    +0.022 A 
ATOM     28  C   UNL     1      -0.827   4.330  24.931  0.00  0.00    +0.031 A 
ATOM     29  C   UNL     1      -0.932   5.141  25.048  0.00  0.00    +0.140 A 
ATOM     30  F   UNL     1      -0.281   5.647  25.038  0.00  0.00    -0.204 F 
ATOM     31  C   UNL     1      -1.689   5.444  25.174  0.00  0.00    +0.031 A 
ATOM     32  C   UNL     1      -2.341   4.938  25.183  0.00  0.00    +0.022 A 
ENDBRANCH  23  26
ENDBRANCH  15  23
BRANCH  13  12
ATOM     12  C   UNL     1      -3.991   1.003  24.782  0.00  0.00    +0.047 C 
BRANCH  12  11
ATOM      3  C   UNL     1      -1.859  -1.065  24.955  0.00  0.00    +0.172 A 
ATOM      4  C   UNL     1      -1.774  -0.709  24.215  0.00  0.00    +0.036 A 
ATOM      5  C   UNL     1      -2.286  -0.103  23.986  0.00  0.00    -0.016 A 
ATOM      6  C   UNL     1      -2.883   0.148  24.499  0.00  0.00    +0.012 A 
ATOM      7  C   UNL     1      -2.968  -0.208  25.239  0.00  0.00    +0.041 A 
ATOM      8  C   UNL     1      -2.456  -0.814  25.467  0.00  0.00    +0.172 A 
ATOM     11  C   UNL     1      -3.394   0.753  24.271  0.00  0.00    +0.053 C 
ATOM     33  N   UNL     1      -3.309   1.108  23.531  0.00  0.00    -0.274 NA
ATOM     34  C   UNL     1      -2.712   0.857  23.019  0.00  0.00    +0.130 C 
ATOM     35  C   UNL     1      -2.201   0.252  23.247  0.00  0.00    +0.053 C 
BRANCH   3   2
ATOM      1  C   UNL     1      -0.564  -1.665  24.929  0.00  0.00    +0.253 C 
ATOM      2  O   UNL     1      -1.348  -1.670  25.183  0.00  0.00    -0.468 OA
ENDBRANCH   3   2
BRANCH   8   9
ATOM      9  O   UNL     1      -2.541  -1.169  26.206  0.00  0.00    -0.468 OA
ATOM     10  C   UNL     1      -3.275  -1.459  26.443  0.00  0.00    +0.253 C 
ENDBRANCH   8   9
ENDBRANCH  12  11
ENDBRANCH  13  12
BRANCH  18  19
ATOM     19  C   UNL     1      -5.493   1.599  25.116  0.00  0.00    +0.114 C 
BRANCH  19  20
ATOM     20  C   UNL     1      -6.223   1.872  25.385  0.00  0.00    +0.365 C 
ATOM     21  O   UNL     1      -6.809   2.085  24.845  0.00  0.00    -0.246 OA
ATOM     22  O   UNL     1      -6.367   1.933  26.196  0.00  0.00    -0.246 OA
ENDBRANCH  19  20
ENDBRANCH  18  19
TORSDOF 8
ENDMDL
MODEL 4
REMARK VINA RESULT:      -9.6      2.028      4.046
REMARK  Name = 
REMARK  8 active torsions:
REMARK  status: ('A' for Active; 'I' for Inactive)
REMARK    1  A    between atoms: O_2  and  C_3
REMARK    2  A    between atoms: C_8  and  O_9
REMARK    3  A    between atoms: C_11  and  C_12
REMARK    4  A    between atoms: C_12  and  C_13
REMARK    5  A    between atoms: N_15  and  S_23
REMARK    6  A    between atoms: C_18  and  C_19
REMARK    7  A    between atoms: C_19  and  C_20
REMARK    8  A    between atoms: S_23  and  C_26
REMARK                            x       y       z     vdW  Elec       q    Type
REMARK                         _______ _______ _______ _____ _____    ______ ____
ROOT
ATOM     13  C   UNL     1      -0.310   0.749  24.004  0.00  0.00    +0.024 C 
ATOM     14  C   UNL     1      -0.919   0.284  24.306  0.00  0.00    +0.096 C 
ATOM     15  N   UNL     1      -0.869  -0.539  24.265  0.00  0.00    -0.156 NA
ATOM     16  C   UNL     1      -0.210  -0.895  23.921  0.00  0.00    +0.096 C 
ATOM     17  C   UNL     1       0.400  -0.430  23.619  0.00  0.00    +0.020 C 
ATOM     18  C   UNL     1       0.350   0.392  23.660  0.00  0.00    +0.014 C 
ENDROOT
BRANCH  15  23
ATOM     23  S   UNL     1      -1.479  -1.005  24.568  0.00  0.00    +0.063 S 
ATOM     24  O   UNL     1      -1.979  -0.743  23.966  0.00  0.00    -0.153 OA
ATOM     25  O   UNL     1      -0.980  -1.268  25.170  0.00  0.00    -0.153 OA
BRANCH  23  26
ATOM     26  C   UNL     1      -2.089  -1.471  24.871  0.00  0.00    +0.122 A 
ATOM     27  C   UNL     1      -2.552  -1.190  25.494  0.00  0.00    +0.022 A 
ATOM     28  C   UNL     1      -3.162  -1.656  25.797  0.00  0.00    +0.031 A 
ATOM     29  C   UNL     1      -3.309  -2.402  25.476  0.00  0.00    +0.140 A 
ATOM     30  F   UNL     1      -3.919  -2.868  25.779  0.00  0.00    -0.204 F 
ATOM     31  C   UNL     1      -2.846  -2.682  24.853  0.00  0.00    +0.031 A 
ATOM     32  C   UNL     1      -2.236  -2.216  24.551  0.00  0.00    +0.022 A 
ENDBRANCH  23  26
ENDBRANCH  15  23
BRANCH  13  12
ATOM     12  C   UNL     1      -0.359   1.571  24.045  0.00  0.00    +0.047 C 
BRANCH  12  11
ATOM      3  C   UNL     1      -2.306   3.528  25.155  0.00  0.00    +0.172 A 
ATOM      4  C   UNL     1      -1.767   3.373  25.760  0.00  0.00    +0.036 A 
ATOM      5  C   UNL     1      -1.145   2.845  25.634  0.00  0.00    -0.016 A 
ATOM      6  C   UNL     1      -1.062   2.472  24.902  0.00  0.00    +0.012 A 
ATOM      7  C   UNL     1      -1.602   2.627  24.297  0.00  0.00    +0.041 A 
ATOM      8  C   UNL     1      -2.224   3.154  24.423  0.00  0.00    +0.172 A 
ATOM     11  C   UNL     1      -0.441   1.945  24.776  0.00  0.00    +0.053 C 
ATOM     33  N   UNL     1       0.098   1.790  25.380  0.00  0.00    -0.274 NA
ATOM     34  C   UNL     1       0.016   2.164  26.112  0.00  0.00    +0.130 C 
ATOM     35  C   UNL     1      -0.605   2.691  26.238  0.00  0.00    +0.053 C 
BRANCH   3   2
ATOM      1  C   UNL     1      -3.099   4.316  26.044  0.00  0.00    +0.253 C 
ATOM      2  O   UNL     1      -2.928   4.055  25.281  0.00  0.00    -0.468 OA
ENDBRANCH   3   2
BRANCH   8   9
ATOM      9  O   UNL     1      -2.763   3.308  23.819  0.00  0.00    -0.468 OA
ATOM     10  C   UNL     1      -3.197   2.692  23.485  0.00  0.00    +0.253 C 
ENDBRANCH   8   9
ENDBRANCH  12  11
ENDBRANCH  13  12
BRANCH  18  19
ATOM     19  C   UNL     1       0.960   0.858  23.357  0.00  0.00    +0.114 C 
BRANCH  19  20
ATOM     20  C   UNL     1       1.579   0.507  22.940  0.00  0.00    +0.365 C 
ATOM     21  O   UNL     1       1.429   0.124  22.224  0.00  0.00    -0.246 OA
ATOM     22  O   UNL     1       2.348   0.539  23.238  0.00  0.00    -0.246 OA
ENDBRANCH  19  20
ENDBRANCH  18  19
TORSDOF 8
ENDMDL
MODEL 5
REMARK VINA RESULT:      -9.5      2.529      4.352
REMARK  Name = 
REMARK  8 active torsions:
REMARK  status: ('A' for Active; 'I' for Inactive)
REMARK    1  A    between atoms: O_2  and  C_3
REMARK    2  A    between atoms: C_8  and  O_9
REMARK    3  A    between atoms: C_11  and  C_12
REMARK    4  A    between atoms: C_12  and  C_13
REMARK    5  A    between atoms: N_15  and  S_23
REMARK    6  A    between atoms: C_18  and  C_19
REMARK    7  A    between atoms: C_19  and  C_20
REMARK    8  A    between atoms: S_23  and  C_26
REMARK                            x       y       z     vdW  Elec       q    Type
REMARK                         _______ _______ _______ _____ _____    ______ ____
ROOT
ATOM     13  C   UNL     1      -1.569   0.470  24.785  0.00  0.00    +0.024 C 
ATOM     14  C   UNL     1      -0.881   0.519  24.335  0.00  0.00    +0.096 C 
ATOM     15  N   UNL     1      -0.542  -0.166  24.022  0.00  0.00    -0.156 NA
ATOM     16  C   UNL     1      -0.894  -0.899  24.159  0.00  0.00    +0.096 C 
ATOM     17  C   UNL     1      -1.583  -0.948  24.609  0.00  0.00    +0.020 C 
ATOM     18  C   UNL     1      -1.921  -0.264  24.922  0.00  0.00    +0.014 C 
ENDROOT
BRANCH  15  23
ATOM     23  S   UNL     1       0.147  -0.116  23.572  0.00  0.00    +0.063 S 
ATOM     24  O   UNL     1      -0.212   0.442  23.082  0.00  0.00    -0.153 OA
ATOM     25  O   UNL     1       0.507  -0.674  24.061  0.00  0.00    -0.153 OA
BRANCH  23  26
ATOM     26  C   UNL     1       0.837  -0.067  23.121  0.00  0.00    +0.122 A 
ATOM     27  C   UNL     1       1.506   0.303  23.432  0.00  0.00    +0.022 A 
ATOM     28  C   UNL     1       2.196   0.352  22.981  0.00  0.00    +0.031 A 
ATOM     29  C   UNL     1       2.216   0.032  22.221  0.00  0.00    +0.140 A 
ATOM     30  F   UNL     1       2.905   0.081  21.770  0.00  0.00    -0.204 F 
ATOM     31  C   UNL     1       1.546  -0.338  21.912  0.00  0.00    +0.031 A 
ATOM     32  C   UNL     1       0.857  -0.387  22.362  0.00  0.00    +0.022 A 
ENDBRANCH  23  26
ENDBRANCH  15  23
BRANCH  13  12
ATOM     12  C   UNL     1      -1.908   1.154  25.098  0.00  0.00    +0.047 C 
BRANCH  12  11
ATOM      3  C   UNL     1      -1.967   4.128  25.160  0.00  0.00    +0.172 A 
ATOM      4  C   UNL     1      -1.310   3.902  25.606  0.00  0.00    +0.036 A 
ATOM      5  C   UNL     1      -1.131   3.103  25.702  0.00  0.00    -0.016 A 
ATOM      6  C   UNL     1      -1.609   2.527  25.352  0.00  0.00    +0.012 A 
ATOM      7  C   UNL     1      -2.266   2.753  24.906  0.00  0.00    +0.041 A 
ATOM      8  C   UNL     1      -2.445   3.553  24.810  0.00  0.00    +0.172 A 
ATOM     11  C   UNL     1      -1.430   1.728  25.448  0.00  0.00    +0.053 C 
ATOM     33  N   UNL     1      -0.774   1.503  25.893  0.00  0.00    -0.274 NA
ATOM     34  C   UNL     1      -0.295   2.079  26.243  0.00  0.00    +0.130 C 
ATOM     35  C   UNL     1      -0.474   2.877  26.148  0.00  0.00    +0.053 C 
BRANCH   3   2
ATOM      1  C   UNL     1      -1.543   5.489  25.075  0.00  0.00    +0.253 C 
ATOM      2  O   UNL     1      -2.146   4.927  25.064  0.00  0.00    -0.468 OA
ENDBRANCH   3   2
BRANCH   8   9
ATOM      9  O   UNL     1      -3.101   3.778  24.365  0.00  0.00    -0.468 OA
ATOM     10  C   UNL     1      -3.794   3.333  24.397  0.00  0.00    +0.253 C 
ENDBRANCH   8   9
ENDBRANCH  12  11
ENDBRANCH  13  12
BRANCH  18  19
ATOM     19  C   UNL     1      -2.611  -0.313  25.373  0.00  0.00    +0.114 C 
BRANCH  19  20
ATOM     20  C   UNL     1      -3.113  -0.961  25.287  0.00  0.00    +0.365 C 
ATOM     21  O   UNL     1      -3.684  -0.965  24.691  0.00  0.00    -0.246 OA
ATOM     22  O   UNL     1      -3.046  -1.607  25.797  0.00  0.00    -0.246 OA
ENDBRANCH  19  20
ENDBRANCH  18  19
TORSDOF 8
ENDMDL
MODEL 6
REMARK VINA RESULT:      -9.3      1.885      4.502
REMARK  Name = 
REMARK  8 active torsions:
REMARK  status: ('A' for Active; 'I' for Inactive)
REMARK    1  A    between atoms: O_2  and  C_3
REMARK    2  A    between atoms: C_8  and  O_9
REMARK    3  A    between atoms: C_11  and  C_12
REMARK    4  A    between atoms: C_12  and  C_13
REMARK    5  A    between atoms: N_15  and  S_23
REMARK    6  A    between atoms: C_18  and  C_19
REMARK    7  A    between atoms: C_19  and  C_20
REMARK    8  A    between atoms: S_23  and  C_26
REMARK                            x       y       z     vdW  Elec       q    Type
REMARK                         _______ _______ _______ _____ _____    ______ ____
ROOT
ATOM     13  C   UNL     1      -3.282   0.130  24.468  0.00  0.00    +0.024 C 
ATOM     14  C   UNL     1      -2.555   0.509  24.380  0.00  0.00    +0.096 C 
ATOM     15  N   UNL     1      -1.859   0.065  24.350  0.00  0.00    -0.156 NA
ATOM     16  C   UNL     1      -1.892  -0.757  24.407  0.00  0.00    +0.096 C 
ATOM     17  C   UNL     1      -2.619  -1.136  24.494  0.00  0.00    +0.020 C 
ATOM     18  C   UNL     1      -3.314  -0.693  24.525  0.00  0.00    +0.014 C 
ENDROOT
BRANCH  15  23
ATOM     23  S   UNL     1      -1.132   0.445  24.262  0.00  0.00    +0.063 S 
ATOM     24  O   UNL     1      -1.126   0.248  23.461  0.00  0.00    -0.153 OA
ATOM     25  O   UNL     1      -1.138   0.641  25.063  0.00  0.00    -0.153 OA
BRANCH  23  26
ATOM     26  C   UNL     1      -0.405   0.824  24.175  0.00  0.00    +0.122 A 
ATOM     27  C   UNL     1      -0.253   1.524  24.585  0.00  0.00    +0.022 A 
ATOM     28  C   UNL     1       0.475   1.903  24.497  0.00  0.00    +0.031 A 
ATOM     29  C   UNL     1       1.050   1.583  23.999  0.00  0.00    +0.140 A 
ATOM     30  F   UNL     1       1.777   1.962  23.912  0.00  0.00    -0.204 F 
ATOM     31  C   UNL     1       0.897   0.883  23.590  0.00  0.00    +0.031 A 
ATOM     32  C   UNL     1       0.170   0.504  23.677  0.00  0.00    +0.022 A 
ENDBRANCH  23  26
ENDBRANCH  15  23
BRANCH  13  12
ATOM     12  C   UNL     1      -3.977   0.572  24.498  0.00  0.00    +0.047 C 
BRANCH  12  11
ATOM      3  C   UNL     1      -5.283   3.107  25.350  0.00  0.00    +0.172 A 
ATOM      4  C   UNL     1      -4.869   3.283  24.658  0.00  0.00    +0.036 A 
ATOM      5  C   UNL     1      -4.439   2.694  24.272  0.00  0.00    -0.016 A 
ATOM      6  C   UNL     1      -4.423   1.927  24.578  0.00  0.00    +0.012 A 
ATOM      7  C   UNL     1      -4.837   1.751  25.270  0.00  0.00    +0.041 A 
ATOM      8  C   UNL     1      -5.267   2.340  25.656  0.00  0.00    +0.172 A 
ATOM     11  C   UNL     1      -3.993   1.338  24.193  0.00  0.00    +0.053 C 
ATOM     33  N   UNL     1      -3.580   1.515  23.502  0.00  0.00    -0.274 NA
ATOM     34  C   UNL     1      -3.596   2.282  23.195  0.00  0.00    +0.130 C 
ATOM     35  C   UNL     1      -4.026   2.871  23.581  0.00  0.00    +0.053 C 
BRANCH   3   2
ATOM      1  C   UNL     1      -5.634   4.482  25.503  0.00  0.00    +0.253 C 
ATOM      2  O   UNL     1      -5.712   3.695  25.736  0.00  0.00    -0.468 OA
ENDBRANCH   3   2
BRANCH   8   9
ATOM      9  O   UNL     1      -5.680   2.163  26.347  0.00  0.00    -0.468 OA
ATOM     10  C   UNL     1      -6.242   1.560  26.349  0.00  0.00    +0.253 C 
ENDBRANCH   8   9
ENDBRANCH  12  11
ENDBRANCH  13  12
BRANCH  18  19
ATOM     19  C   UNL     1      -4.042  -1.072  24.612  0.00  0.00    +0.114 C 
BRANCH  19  20
ATOM     20  C   UNL     1      -4.102  -1.884  24.479  0.00  0.00    +0.365 C 
ATOM     21  O   UNL     1      -4.370  -2.164  23.750  0.00  0.00    -0.246 OA
ATOM     22  O   UNL     1      -3.894  -2.417  25.075  0.00  0.00    -0.246 OA
ENDBRANCH  19  20
ENDBRANCH  18  19
TORSDOF 8
ENDMDL
MODEL 7
REMARK VINA RESULT:      -8.4     15.695     19.023
REMARK  Name = 
REMARK  8 active torsions:
REMARK  status: ('A' for Active; 'I' for Inactive)
REMARK    1  A    between atoms: O_2  and  C_3
REMARK    2  A    between atoms: C_8  and  O_9
REMARK    3  A    between atoms: C_11  and  C_12
REMARK    4  A    between atoms: C_12  and  C_13
REMARK    5  A    between atoms: N_15  and  S_23
REMARK    6  A    between atoms: C_18  and  C_19
REMARK    7  A    between atoms: C_19  and  C_20
REMARK    8  A    between atoms: S_23  and  C_26
REMARK                            x       y       z     vdW  Elec       q    Type
REMARK                         _______ _______ _______ _____ _____    ______ ____
ROOT
ATOM     13  C   UNL     1      14.382   7.139  20.200  0.00  0.00    +0.024 C 
ATOM     14  C   UNL     1      14.056   7.448  19.509  0.00  0.00    +0.096 C 
ATOM     15  N   UNL     1      14.527   7.550  18.839  0.00  0.00    -0.156 NA
ATOM     16  C   UNL     1      15.325   7.343  18.862  0.00  0.00    +0.096 C 
ATOM     17  C   UNL     1      15.652   7.035  19.553  0.00  0.00    +0.020 C 
ATOM     18  C   UNL     1      15.181   6.932  20.223  0.00  0.00    +0.014 C 
ENDROOT
BRANCH  15  23
ATOM     23  S   UNL     1      14.200   7.859  18.148  0.00  0.00    +0.063 S 
ATOM     24  O   UNL     1      14.574   8.580  18.293  0.00  0.00    -0.153 OA
ATOM     25  O   UNL     1      13.826   7.138  18.003  0.00  0.00    -0.153 OA
BRANCH  23  26
ATOM     26  C   UNL     1      13.873   8.167  17.456  0.00  0.00    +0.122 A 
ATOM     27  C   UNL     1      13.188   8.626  17.493  0.00  0.00    +0.022 A 
ATOM     28  C   UNL     1      12.861   8.934  16.802  0.00  0.00    +0.031 A 
ATOM     29  C   UNL     1      13.219   8.785  16.073  0.00  0.00    +0.140 A 
ATOM     30  F   UNL     1      12.892   9.094  15.381  0.00  0.00    -0.204 F 
ATOM     31  C   UNL     1      13.904   8.327  16.037  0.00  0.00    +0.031 A 
ATOM     32  C   UNL     1      14.231   8.018  16.729  0.00  0.00    +0.022 A 
ENDBRANCH  23  26
ENDBRANCH  15  23
BRANCH  13  12
ATOM     12  C   UNL     1      13.912   7.037  20.870  0.00  0.00    +0.047 C 
BRANCH  12  11
ATOM      3  C   UNL     1      11.089   7.444  21.717  0.00  0.00    +0.172 A 
ATOM      4  C   UNL     1      11.475   8.160  21.853  0.00  0.00    +0.036 A 
ATOM      5  C   UNL     1      12.277   8.239  21.675  0.00  0.00    -0.016 A 
ATOM      6  C   UNL     1      12.694   7.599  21.361  0.00  0.00    +0.012 A 
ATOM      7  C   UNL     1      12.308   6.882  21.225  0.00  0.00    +0.041 A 
ATOM      8  C   UNL     1      11.506   6.804  21.403  0.00  0.00    +0.172 A 
ATOM     11  C   UNL     1      13.495   7.676  21.183  0.00  0.00    +0.053 C 
ATOM     33  N   UNL     1      13.880   8.392  21.319  0.00  0.00    -0.274 NA
ATOM     34  C   UNL     1      13.463   9.032  21.633  0.00  0.00    +0.130 C 
ATOM     35  C   UNL     1      12.662   8.955  21.811  0.00  0.00    +0.053 C 
BRANCH   3   2
ATOM      1  C   UNL     1       9.915   7.924  22.374  0.00  0.00    +0.253 C 
ATOM      2  O   UNL     1      10.287   7.366  21.895  0.00  0.00    -0.468 OA
ENDBRANCH   3   2
BRANCH   8   9
ATOM      9  O   UNL     1      11.121   6.088  21.267  0.00  0.00    -0.468 OA
ATOM     10  C   UNL     1      11.410   5.393  21.604  0.00  0.00    +0.253 C 
ENDBRANCH   8   9
ENDBRANCH  12  11
ENDBRANCH  13  12
BRANCH  18  19
ATOM     19  C   UNL     1      15.508   6.624  20.914  0.00  0.00    +0.114 C 
BRANCH  19  20
ATOM     20  C   UNL     1      16.316   6.463  20.952  0.00  0.00    +0.365 C 
ATOM     21  O   UNL     1      16.607   5.742  20.675  0.00  0.00    -0.246 OA
ATOM     22  O   UNL     1      16.834   7.023  21.267  0.00  0.00    -0.246 OA
ENDBRANCH  19  20
ENDBRANCH  18  19
TORSDOF 8
ENDMDL
