MODEL 1
REMARK VINA RESULT:     -12.9      0.000      0.000
REMARK  Name = 
REMARK  4 active torsions:
REMARK  status: ('A' for Active; 'I' for Inactive)
REMARK    1  A    between atoms: C_4  and  C_20
REMARK    2  A    between atoms: C_5  and  N_6
REMARK    3  A    between atoms: C_7  and  C_9
REMARK    4  A    between atoms: C_23  and  N_26
REMARK                            x       y       z     vdW  Elec       q    Type
REMARK                         _______ _______ _______ _____ _____    ______ ____
ROOT
ATOM      1  O   UNL     1      -6.800   1.927  25.118  0.00  0.00    -0.220 OA
ATOM      2  C   UNL     1      -5.991   1.791  25.035  0.00  0.00    +0.184 C 
ATOM      3  C   UNL     1      -5.626   1.052  24.987  0.00  0.00    +0.042 C 
ATOM      4  C   UNL     1      -4.814   1.174  24.908  0.00  0.00    +0.049 C 
ATOM      5  C   UNL     1      -4.677   1.987  24.907  0.00  0.00    +0.133 C 
ATOM     18  C   UNL     1      -5.404   2.369  24.986  0.00  0.00    +0.202 C 
ATOM     19  O   UNL     1      -5.524   3.184  25.011  0.00  0.00    -0.219 OA
ENDROOT
BRANCH   4  20
ATOM     20  C   UNL     1      -4.240   0.585  24.841  0.00  0.00    -0.001 A 
ATOM     21  C   UNL     1      -4.051   0.117  25.493  0.00  0.00    +0.000 A 
ATOM     22  C   UNL     1      -3.477  -0.471  25.426  0.00  0.00    +0.034 A 
ATOM     23  C   UNL     1      -3.091  -0.592  24.707  0.00  0.00    +0.132 A 
ATOM     24  N   UNL     1      -3.280  -0.124  24.055  0.00  0.00    -0.229 NA
ATOM     25  C   UNL     1      -3.854   0.465  24.121  0.00  0.00    +0.096 A 
BRANCH  23  26
ATOM     26  N   UNL     1      -2.517  -1.180  24.640  0.00  0.00    -0.288 N 
ATOM     27  C   UNL     1      -2.742  -1.962  24.499  0.00  0.00    +0.124 C 
ATOM     28  C   UNL     1      -2.168  -2.550  24.432  0.00  0.00    +0.164 C 
ATOM     29  O   UNL     1      -1.369  -2.358  24.506  0.00  0.00    -0.350 OA
ATOM     30  C   UNL     1      -1.144  -1.577  24.647  0.00  0.00    +0.164 C 
ATOM     31  C   UNL     1      -1.718  -0.988  24.714  0.00  0.00    +0.124 C 
ENDBRANCH  23  26
ENDBRANCH   4  20
BRANCH   5   6
ATOM      6  N   UNL     1      -3.941   2.355  24.840  0.00  0.00    -0.199 NA
ATOM      7  C   UNL     1      -3.725   2.947  25.374  0.00  0.00    +0.289 C 
ATOM      8  O   UNL     1      -4.245   3.170  25.974  0.00  0.00    -0.266 OA
BRANCH   7   9
ATOM      9  C   UNL     1      -2.990   3.315  25.307  0.00  0.00    +0.166 A 
ATOM     10  N   UNL     1      -2.255   2.948  25.383  0.00  0.00    -0.234 NA
ATOM     11  C   UNL     1      -1.672   3.520  25.274  0.00  0.00    +0.088 A 
ATOM     12  C   UNL     1      -2.046   4.241  25.132  0.00  0.00    +0.049 A 
ATOM     13  S   UNL     1      -2.860   4.115  25.151  0.00  0.00    -0.062 S 
ATOM     14  C   UNL     1      -1.595   4.920  25.002  0.00  0.00    +0.008 A 
ATOM     15  C   UNL     1      -0.772   4.879  25.015  0.00  0.00    +0.001 A 
ATOM     16  C   UNL     1      -0.398   4.157  25.158  0.00  0.00    +0.002 A 
ATOM     17  C   UNL     1      -0.847   3.478  25.288  0.00  0.00    +0.020 A 
ENDBRANCH   7   9
ENDBRANCH   5   6
TORSDOF 4
ENDMDL
MODEL 2
REMARK VINA RESULT:     -12.6      1.823      4.287
REMARK  Name = 
REMARK  4 active torsions:
REMARK  status: ('A' for Active; 'I' for Inactive)
REMARK    1  A    between atoms: C_4  and  C_20
REMARK    2  A    between atoms: C_5  and  N_6
REMARK    3  A    between atoms: C_7  and  C_9
REMARK    4  A    between atoms: C_23  and  N_26
REMARK                            x       y       z     vdW  Elec       q    Type
REMARK                         _______ _______ _______ _____ _____    ______ ____
ROOT
ATOM      1  O   UNL     1      -5.832   3.523  25.369  0.00  0.00    -0.220 OA
ATOM      2  C   UNL     1      -5.208   3.023  25.167  0.00  0.00    +0.184 C 
ATOM      3  C   UNL     1      -4.414   3.239  25.104  0.00  0.00    +0.042 C 
ATOM      4  C   UNL     1      -3.984   2.568  24.891  0.00  0.00    +0.049 C 
ATOM      5  C   UNL     1      -4.511   1.937  24.822  0.00  0.00    +0.133 C 
ATOM     18  C   UNL     1      -5.269   2.219  24.992  0.00  0.00    +0.202 C 
ATOM     19  O   UNL     1      -5.963   1.774  24.989  0.00  0.00    -0.219 OA
ENDROOT
BRANCH   4  20
ATOM     20  C   UNL     1      -3.168   2.533  24.768  0.00  0.00    -0.001 A 
ATOM     21  C   UNL     1      -2.652   2.586  25.410  0.00  0.00    +0.000 A 
ATOM     22  C   UNL     1      -1.838   2.552  25.287  0.00  0.00    +0.034 A 
ATOM     23  C   UNL     1      -1.538   2.464  24.523  0.00  0.00    +0.132 A 
ATOM     24  N   UNL     1      -2.055   2.411  23.881  0.00  0.00    -0.229 NA
ATOM     25  C   UNL     1      -2.870   2.446  24.004  0.00  0.00    +0.096 A 
BRANCH  23  26
ATOM     26  N   UNL     1      -0.724   2.430  24.400  0.00  0.00    -0.288 N 
ATOM     27  C   UNL     1      -0.292   3.126  24.295  0.00  0.00    +0.124 C 
ATOM     28  C   UNL     1       0.522   3.091  24.172  0.00  0.00    +0.164 C 
ATOM     29  O   UNL     1       0.907   2.362  24.154  0.00  0.00    -0.350 OA
ATOM     30  C   UNL     1       0.476   1.666  24.259  0.00  0.00    +0.164 C 
ATOM     31  C   UNL     1      -0.339   1.700  24.382  0.00  0.00    +0.124 C 
ENDBRANCH  23  26
ENDBRANCH   4  20
BRANCH   5   6
ATOM      6  N   UNL     1      -4.317   1.162  24.617  0.00  0.00    -0.199 NA
ATOM      7  C   UNL     1      -4.499   0.542  25.131  0.00  0.00    +0.289 C 
ATOM      8  O   UNL     1      -4.876   0.698  25.848  0.00  0.00    -0.266 OA
BRANCH   7   9
ATOM      9  C   UNL     1      -4.305  -0.234  24.927  0.00  0.00    +0.166 A 
ATOM     10  N   UNL     1      -4.537  -0.627  24.240  0.00  0.00    -0.234 NA
ATOM     11  C   UNL     1      -4.219  -1.388  24.263  0.00  0.00    +0.088 A 
ATOM     12  C   UNL     1      -3.791  -1.465  24.964  0.00  0.00    +0.049 A 
ATOM     13  S   UNL     1      -3.843  -0.752  25.374  0.00  0.00    -0.062 S 
ATOM     14  C   UNL     1      -3.408  -2.175  25.137  0.00  0.00    +0.008 A 
ATOM     15  C   UNL     1      -3.454  -2.808  24.610  0.00  0.00    +0.001 A 
ATOM     16  C   UNL     1      -3.882  -2.731  23.909  0.00  0.00    +0.002 A 
ATOM     17  C   UNL     1      -4.265  -2.021  23.735  0.00  0.00    +0.020 A 
ENDBRANCH   7   9
ENDBRANCH   5   6
TORSDOF 4
ENDMDL
MODEL 3
REMARK VINA RESULT:     -12.5      1.746      3.809
REMARK  Name = 
REMARK  4 active torsions:
REMARK  status: ('A' for Active; 'I' for Inactive)
REMARK    1  A    between atoms: C_4  and  C_20
REMARK    2  A    between atoms: C_5  and  N_6
REMARK    3  A    between atoms: C_7  and  C_9
REMARK    4  A    between atoms: C_23  and  N_26
REMARK                            x       y       z     vdW  Elec       q    Type
REMARK                         _______ _______ _______ _____ _____    ______ ____
ROOT
ATOM      1  O   UNL     1      -0.582   5.474  24.945  0.00  0.00    -0.220 OA
ATOM      2  C   UNL     1      -0.944   4.735  25.005  0.00  0.00    +0.184 C 
ATOM      3  C   UNL     1      -0.577   4.005  24.895  0.00  0.00    +0.042 C 
ATOM      4  C   UNL     1      -1.143   3.415  25.007  0.00  0.00    +0.049 C 
ATOM      5  C   UNL     1      -1.860   3.781  25.186  0.00  0.00    +0.133 C 
ATOM     18  C   UNL     1      -1.737   4.598  25.185  0.00  0.00    +0.202 C 
ATOM     19  O   UNL     1      -2.307   5.174  25.336  0.00  0.00    -0.219 OA
ENDROOT
BRANCH   4  20
ATOM     20  C   UNL     1      -1.015   2.602  24.950  0.00  0.00    -0.001 A 
ATOM     21  C   UNL     1      -0.911   2.152  25.634  0.00  0.00    +0.000 A 
ATOM     22  C   UNL     1      -0.782   1.340  25.577  0.00  0.00    +0.034 A 
ATOM     23  C   UNL     1      -0.758   0.976  24.836  0.00  0.00    +0.132 A 
ATOM     24  N   UNL     1      -0.862   1.426  24.153  0.00  0.00    -0.229 NA
ATOM     25  C   UNL     1      -0.991   2.240  24.210  0.00  0.00    +0.096 A 
BRANCH  23  26
ATOM     26  N   UNL     1      -0.630   0.164  24.779  0.00  0.00    -0.288 N 
ATOM     27  C   UNL     1      -0.164  -0.139  24.168  0.00  0.00    +0.124 C 
ATOM     28  C   UNL     1      -0.036  -0.951  24.111  0.00  0.00    +0.164 C 
ATOM     29  O   UNL     1      -0.373  -1.463  24.664  0.00  0.00    -0.350 OA
ATOM     30  C   UNL     1      -0.838  -1.161  25.275  0.00  0.00    +0.164 C 
ATOM     31  C   UNL     1      -0.967  -0.348  25.332  0.00  0.00    +0.124 C 
ENDBRANCH  23  26
ENDBRANCH   4  20
BRANCH   5   6
ATOM      6  N   UNL     1      -2.575   3.399  25.340  0.00  0.00    -0.199 NA
ATOM      7  C   UNL     1      -3.244   3.578  24.890  0.00  0.00    +0.289 C 
ATOM      8  O   UNL     1      -3.197   4.140  24.288  0.00  0.00    -0.266 OA
BRANCH   7   9
ATOM      9  C   UNL     1      -3.959   3.196  25.044  0.00  0.00    +0.166 A 
ATOM     10  N   UNL     1      -4.399   3.251  25.739  0.00  0.00    -0.234 NA
ATOM     11  C   UNL     1      -5.071   2.781  25.654  0.00  0.00    +0.088 A 
ATOM     12  C   UNL     1      -5.046   2.435  24.905  0.00  0.00    +0.049 A 
ATOM     13  S   UNL     1      -4.359   2.691  24.528  0.00  0.00    -0.062 S 
ATOM     14  C   UNL     1      -5.653   1.930  24.665  0.00  0.00    +0.008 A 
ATOM     15  C   UNL     1      -6.284   1.773  25.171  0.00  0.00    +0.001 A 
ATOM     16  C   UNL     1      -6.309   2.119  25.920  0.00  0.00    +0.002 A 
ATOM     17  C   UNL     1      -5.703   2.623  26.161  0.00  0.00    +0.020 A 
ENDBRANCH   7   9
ENDBRANCH   5   6
TORSDOF 4
ENDMDL
MODEL 4
REMARK VINA RESULT:     -12.1      1.992      5.482
REMARK  Name = 
REMARK  4 active torsions:
REMARK  status: ('A' for Active; 'I' for Inactive)
REMARK    1  A    between atoms: C_4  and  C_20
REMARK    2  A    between atoms: C_5  and  N_6
REMARK    3  A    between atoms: C_7  and  C_9
REMARK    4  A    between atoms: C_23  and  N_26
REMARK                            x       y       z     vdW  Elec       q    Type
REMARK                         _______ _______ _______ _____ _____    ______ ____
ROOT
ATOM      1  O   UNL     1       0.925   1.991  24.179  0.00  0.00    -0.220 OA
ATOM      2  C   UNL     1       0.125   1.801  24.245  0.00  0.00    +0.184 C 
ATOM      3  C   UNL     1      -0.481   2.319  24.458  0.00  0.00    +0.042 C 
ATOM      4  C   UNL     1      -1.190   1.897  24.454  0.00  0.00    +0.049 C 
ATOM      5  C   UNL     1      -1.023   1.118  24.239  0.00  0.00    +0.133 C 
ATOM     18  C   UNL     1      -0.210   1.059  24.109  0.00  0.00    +0.202 C 
ATOM     19  O   UNL     1       0.196   0.378  23.884  0.00  0.00    -0.219 OA
ENDROOT
BRANCH   4  20
ATOM     20  C   UNL     1      -1.936   2.200  24.635  0.00  0.00    -0.001 A 
ATOM     21  C   UNL     1      -2.461   2.393  24.028  0.00  0.00    +0.000 A 
ATOM     22  C   UNL     1      -3.206   2.696  24.208  0.00  0.00    +0.034 A 
ATOM     23  C   UNL     1      -3.428   2.807  24.995  0.00  0.00    +0.132 A 
ATOM     24  N   UNL     1      -2.903   2.614  25.602  0.00  0.00    -0.229 NA
ATOM     25  C   UNL     1      -2.157   2.311  25.422  0.00  0.00    +0.096 A 
BRANCH  23  26
ATOM     26  N   UNL     1      -4.173   3.110  25.175  0.00  0.00    -0.288 N 
ATOM     27  C   UNL     1      -4.283   3.926  25.238  0.00  0.00    +0.124 C 
ATOM     28  C   UNL     1      -5.028   4.229  25.419  0.00  0.00    +0.164 C 
ATOM     29  O   UNL     1      -5.665   3.718  25.536  0.00  0.00    -0.350 OA
ATOM     30  C   UNL     1      -5.555   2.902  25.474  0.00  0.00    +0.164 C 
ATOM     31  C   UNL     1      -4.809   2.599  25.293  0.00  0.00    +0.124 C 
ENDBRANCH  23  26
ENDBRANCH   4  20
BRANCH   5   6
ATOM      6  N   UNL     1      -1.572   0.506  24.166  0.00  0.00    -0.199 NA
ATOM      7  C   UNL     1      -1.491  -0.177  24.622  0.00  0.00    +0.289 C 
ATOM      8  O   UNL     1      -0.862  -0.248  25.150  0.00  0.00    -0.266 OA
BRANCH   7   9
ATOM      9  C   UNL     1      -2.040  -0.789  24.549  0.00  0.00    +0.166 A 
ATOM     10  N   UNL     1      -2.798  -0.725  24.232  0.00  0.00    -0.234 NA
ATOM     11  C   UNL     1      -3.153  -1.468  24.267  0.00  0.00    +0.088 A 
ATOM     12  C   UNL     1      -2.613  -1.993  24.606  0.00  0.00    +0.049 A 
ATOM     13  S   UNL     1      -1.925  -1.573  24.780  0.00  0.00    -0.062 S 
ATOM     14  C   UNL     1      -2.820  -2.785  24.712  0.00  0.00    +0.008 A 
ATOM     15  C   UNL     1      -3.564  -3.052  24.479  0.00  0.00    +0.001 A 
ATOM     16  C   UNL     1      -4.103  -2.528  24.140  0.00  0.00    +0.002 A 
ATOM     17  C   UNL     1      -3.898  -1.736  24.034  0.00  0.00    +0.020 A 
ENDBRANCH   7   9
ENDBRANCH   5   6
TORSDOF 4
ENDMDL
MODEL 5
REMARK VINA RESULT:     -10.4     16.506     19.063
REMARK  Name = 
REMARK  4 active torsions:
REMARK  status: ('A' for Active; 'I' for Inactive)
REMARK    1  A    between atoms: C_4  and  C_20
REMARK    2  A    between atoms: C_5  and  N_6
REMARK    3  A    between atoms: C_7  and  C_9
REMARK    4  A    between atoms: C_23  and  N_26
REMARK                            x       y       z     vdW  Elec       q    Type
REMARK                         _______ _______ _______ _____ _____    ______ ____
ROOT
ATOM      1  O   UNL     1      13.189   8.756  15.919  0.00  0.00    -0.220 OA
ATOM      2  C   UNL     1      13.314   8.572  16.713  0.00  0.00    +0.184 C 
ATOM      3  C   UNL     1      14.004   8.253  17.034  0.00  0.00    +0.042 C 
ATOM      4  C   UNL     1      13.887   8.159  17.846  0.00  0.00    +0.049 C 
ATOM      5  C   UNL     1      13.126   8.419  18.026  0.00  0.00    +0.133 C 
ATOM     18  C   UNL     1      12.771   8.675  17.326  0.00  0.00    +0.202 C 
ATOM     19  O   UNL     1      12.009   8.980  17.252  0.00  0.00    -0.219 OA
ENDROOT
BRANCH   4  20
ATOM     20  C   UNL     1      14.437   7.857  18.383  0.00  0.00    -0.001 A 
ATOM     21  C   UNL     1      14.846   8.367  18.886  0.00  0.00    +0.000 A 
ATOM     22  C   UNL     1      15.394   8.065  19.422  0.00  0.00    +0.034 A 
ATOM     23  C   UNL     1      15.534   7.253  19.456  0.00  0.00    +0.132 A 
ATOM     24  N   UNL     1      15.125   6.742  18.953  0.00  0.00    -0.229 NA
ATOM     25  C   UNL     1      14.576   7.044  18.416  0.00  0.00    +0.096 A 
BRANCH  23  26
ATOM     26  N   UNL     1      16.083   6.951  19.993  0.00  0.00    -0.288 N 
ATOM     27  C   UNL     1      16.855   6.792  19.748  0.00  0.00    +0.124 C 
ATOM     28  C   UNL     1      17.404   6.490  20.284  0.00  0.00    +0.164 C 
ATOM     29  O   UNL     1      17.182   6.346  21.066  0.00  0.00    -0.350 OA
ATOM     30  C   UNL     1      16.410   6.505  21.311  0.00  0.00    +0.164 C 
ATOM     31  C   UNL     1      15.861   6.807  20.774  0.00  0.00    +0.124 C 
ENDBRANCH  23  26
ENDBRANCH   4  20
BRANCH   5   6
ATOM      6  N   UNL     1      12.780   8.424  18.775  0.00  0.00    -0.199 NA
ATOM      7  C   UNL     1      12.062   8.036  18.900  0.00  0.00    +0.289 C 
ATOM      8  O   UNL     1      11.691   7.644  18.277  0.00  0.00    -0.266 OA
BRANCH   7   9
ATOM      9  C   UNL     1      11.715   8.041  19.649  0.00  0.00    +0.166 A 
ATOM     10  N   UNL     1      11.607   7.385  20.138  0.00  0.00    -0.234 NA
ATOM     11  C   UNL     1      11.241   7.641  20.831  0.00  0.00    +0.088 A 
ATOM     12  C   UNL     1      11.123   8.456  20.771  0.00  0.00    +0.049 A 
ATOM     13  S   UNL     1      11.416   8.703  20.041  0.00  0.00    -0.062 S 
ATOM     14  C   UNL     1      10.764   8.866  21.390  0.00  0.00    +0.008 A 
ATOM     15  C   UNL     1      10.523   8.464  22.068  0.00  0.00    +0.001 A 
ATOM     16  C   UNL     1      10.641   7.650  22.128  0.00  0.00    +0.002 A 
ATOM     17  C   UNL     1      11.000   7.238  21.510  0.00  0.00    +0.020 A 
ENDBRANCH   7   9
ENDBRANCH   5   6
TORSDOF 4
ENDMDL
MODEL 6
REMARK VINA RESULT:     -10.4     16.293     18.876
REMARK  Name = 
REMARK  4 active torsions:
REMARK  status: ('A' for Active; 'I' for Inactive)
REMARK    1  A    between atoms: C_4  and  C_20
REMARK    2  A    between atoms: C_5  and  N_6
REMARK    3  A    between atoms: C_7  and  C_9
REMARK    4  A    between atoms: C_23  and  N_26
REMARK                            x       y       z     vdW  Elec       q    Type
REMARK                         _______ _______ _______ _____ _____    ______ ____
ROOT
ATOM      1  O   UNL     1      12.040   8.828  16.019  0.00  0.00    -0.220 OA
ATOM      2  C   UNL     1      12.239   8.606  16.788  0.00  0.00    +0.184 C 
ATOM      3  C   UNL     1      11.752   8.667  17.452  0.00  0.00    +0.042 C 
ATOM      4  C   UNL     1      12.171   8.382  18.103  0.00  0.00    +0.049 C 
ATOM      5  C   UNL     1      12.917   8.144  17.842  0.00  0.00    +0.133 C 
ATOM     18  C   UNL     1      12.959   8.283  17.030  0.00  0.00    +0.202 C 
ATOM     19  O   UNL     1      13.606   8.126  16.544  0.00  0.00    -0.219 OA
ENDROOT
BRANCH   4  20
ATOM     20  C   UNL     1      11.893   8.341  18.879  0.00  0.00    -0.001 A 
ATOM     21  C   UNL     1      11.815   9.030  19.326  0.00  0.00    +0.000 A 
ATOM     22  C   UNL     1      11.537   8.989  20.101  0.00  0.00    +0.034 A 
ATOM     23  C   UNL     1      11.338   8.259  20.430  0.00  0.00    +0.132 A 
ATOM     24  N   UNL     1      11.417   7.570  19.984  0.00  0.00    -0.229 NA
ATOM     25  C   UNL     1      11.695   7.611  19.208  0.00  0.00    +0.096 A 
BRANCH  23  26
ATOM     26  N   UNL     1      11.060   8.218  21.206  0.00  0.00    -0.288 N 
ATOM     27  C   UNL     1      11.210   8.837  21.731  0.00  0.00    +0.124 C 
ATOM     28  C   UNL     1      10.932   8.796  22.507  0.00  0.00    +0.164 C 
ATOM     29  O   UNL     1      10.504   8.137  22.758  0.00  0.00    -0.350 OA
ATOM     30  C   UNL     1      10.354   7.518  22.233  0.00  0.00    +0.164 C 
ATOM     31  C   UNL     1      10.632   7.559  21.457  0.00  0.00    +0.124 C 
ENDBRANCH  23  26
ENDBRANCH   4  20
BRANCH   5   6
ATOM      6  N   UNL     1      13.516   7.825  18.311  0.00  0.00    -0.199 NA
ATOM      7  C   UNL     1      14.270   8.160  18.302  0.00  0.00    +0.289 C 
ATOM      8  O   UNL     1      14.425   8.815  17.825  0.00  0.00    -0.266 OA
BRANCH   7   9
ATOM      9  C   UNL     1      14.869   7.840  18.771  0.00  0.00    +0.166 A 
ATOM     10  N   UNL     1      15.152   7.067  18.736  0.00  0.00    -0.234 NA
ATOM     11  C   UNL     1      15.748   6.987  19.300  0.00  0.00    +0.088 A 
ATOM     12  C   UNL     1      15.833   7.712  19.685  0.00  0.00    +0.049 A 
ATOM     13  S   UNL     1      15.291   8.239  19.358  0.00  0.00    -0.062 S 
ATOM     14  C   UNL     1      16.395   7.797  20.283  0.00  0.00    +0.008 A 
ATOM     15  C   UNL     1      16.871   7.158  20.497  0.00  0.00    +0.001 A 
ATOM     16  C   UNL     1      16.785   6.433  20.112  0.00  0.00    +0.002 A 
ATOM     17  C   UNL     1      16.224   6.347  19.514  0.00  0.00    +0.020 A 
ENDBRANCH   7   9
ENDBRANCH   5   6
TORSDOF 4
ENDMDL
MODEL 7
REMARK VINA RESULT:      -9.2     16.212     18.940
REMARK  Name = 
REMARK  4 active torsions:
REMARK  status: ('A' for Active; 'I' for Inactive)
REMARK    1  A    between atoms: C_4  and  C_20
REMARK    2  A    between atoms: C_5  and  N_6
REMARK    3  A    between atoms: C_7  and  C_9
REMARK    4  A    between atoms: C_23  and  N_26
REMARK                            x       y       z     vdW  Elec       q    Type
REMARK                         _______ _______ _______ _____ _____    ______ ____
ROOT
ATOM      1  O   UNL     1      16.560   6.738  19.613  0.00  0.00    -0.220 OA
ATOM      2  C   UNL     1      15.768   6.929  19.488  0.00  0.00    +0.184 C 
ATOM      3  C   UNL     1      15.445   7.225  18.788  0.00  0.00    +0.042 C 
ATOM      4  C   UNL     1      14.636   7.336  18.908  0.00  0.00    +0.049 C 
ATOM      5  C   UNL     1      14.459   7.110  19.681  0.00  0.00    +0.133 C 
ATOM     18  C   UNL     1      15.158   6.858  20.040  0.00  0.00    +0.202 C 
ATOM     19  O   UNL     1      15.235   6.583  20.813  0.00  0.00    -0.219 OA
ENDROOT
BRANCH   4  20
ATOM     20  C   UNL     1      14.099   7.624  18.352  0.00  0.00    -0.001 A 
ATOM     21  C   UNL     1      14.072   8.431  18.183  0.00  0.00    +0.000 A 
ATOM     22  C   UNL     1      13.535   8.719  17.627  0.00  0.00    +0.034 A 
ATOM     23  C   UNL     1      13.024   8.200  17.240  0.00  0.00    +0.132 A 
ATOM     24  N   UNL     1      13.051   7.393  17.408  0.00  0.00    -0.229 NA
ATOM     25  C   UNL     1      13.588   7.105  17.965  0.00  0.00    +0.096 A 
BRANCH  23  26
ATOM     26  N   UNL     1      12.487   8.487  16.684  0.00  0.00    -0.288 N 
ATOM     27  C   UNL     1      12.760   8.805  15.972  0.00  0.00    +0.124 C 
ATOM     28  C   UNL     1      12.223   9.093  15.417  0.00  0.00    +0.164 C 
ATOM     29  O   UNL     1      11.413   9.063  15.571  0.00  0.00    -0.350 OA
ATOM     30  C   UNL     1      11.140   8.745  16.282  0.00  0.00    +0.164 C 
ATOM     31  C   UNL     1      11.677   8.457  16.838  0.00  0.00    +0.124 C 
ENDBRANCH  23  26
ENDBRANCH   4  20
BRANCH   5   6
ATOM      6  N   UNL     1      13.713   7.131  20.034  0.00  0.00    -0.199 NA
ATOM      7  C   UNL     1      13.599   7.555  20.733  0.00  0.00    +0.289 C 
ATOM      8  O   UNL     1      14.231   7.958  21.078  0.00  0.00    -0.266 OA
BRANCH   7   9
ATOM      9  C   UNL     1      12.854   7.576  21.086  0.00  0.00    +0.166 A 
ATOM     10  N   UNL     1      12.474   8.248  21.376  0.00  0.00    -0.234 NA
ATOM     11  C   UNL     1      11.743   8.016  21.680  0.00  0.00    +0.088 A 
ATOM     12  C   UNL     1      11.671   7.200  21.577  0.00  0.00    +0.049 A 
ATOM     13  S   UNL     1      12.358   6.928  21.210  0.00  0.00    -0.062 S 
ATOM     14  C   UNL     1      10.989   6.811  21.831  0.00  0.00    +0.008 A 
ATOM     15  C   UNL     1      10.380   7.237  22.188  0.00  0.00    +0.001 A 
ATOM     16  C   UNL     1      10.452   8.052  22.291  0.00  0.00    +0.002 A 
ATOM     17  C   UNL     1      11.133   8.442  22.037  0.00  0.00    +0.020 A 
ENDBRANCH   7   9
ENDBRANCH   5   6
TORSDOF 4
ENDMDL
