MODEL 1
REMARK VINA RESULT:      -9.8      0.000      0.000
REMARK  Name = 
REMARK  3 active torsions:
REMARK  status: ('A' for Active; 'I' for Inactive)
REMARK    1  A    between atoms: C_3  and  N_5
REMARK    2  A    between atoms: C_10  and  O_12
REMARK    3  A    between atoms: O_12  and  C_13
REMARK                            x       y       z     vdW  Elec       q    Type
REMARK                         _______ _______ _______ _____ _____    ______ ____
ROOT
ATOM      5  N   UNL     1      -2.809   1.427  24.524  0.00  0.00    -0.269 NA
ATOM      6  C   UNL     1      -1.990   1.520  24.561  0.00  0.00    +0.105 C 
ATOM      7  C   UNL     1      -1.428   1.006  24.876  0.00  0.00    +0.160 C 
ATOM      8  O   UNL     1      -1.545   0.271  25.231  0.00  0.00    -0.348 OA
ATOM      9  C   UNL     1      -2.254  -0.132  25.360  0.00  0.00    +0.187 C 
ATOM     10  C   UNL     1      -3.020   0.102  25.164  0.00  0.00    +0.211 C 
ATOM     11  C   UNL     1      -3.268   0.795  24.792  0.00  0.00    +0.119 C 
ENDROOT
BRANCH   5   3
ATOM      1  C   UNL     1      -3.812   2.923  23.673  0.00  0.00    +0.003 C 
ATOM      2  C   UNL     1      -3.734   2.635  24.444  0.00  0.00    +0.016 C 
ATOM      3  C   UNL     1      -3.225   2.046  24.172  0.00  0.00    +0.058 C 
ATOM      4  C   UNL     1      -3.302   2.333  23.403  0.00  0.00    +0.016 C 
ENDBRANCH   5   3
BRANCH  10  12
ATOM     12  O   UNL     1      -3.619  -0.428  25.367  0.00  0.00    -0.475 OA
BRANCH  12  13
ATOM     13  C   UNL     1      -3.708  -1.132  24.945  0.00  0.00    +0.139 A 
ATOM     14  C   UNL     1      -3.343  -1.821  25.213  0.00  0.00    +0.037 A 
ATOM     15  C   UNL     1      -3.431  -2.525  24.790  0.00  0.00    +0.003 A 
ATOM     16  C   UNL     1      -3.885  -2.538  24.101  0.00  0.00    +0.000 A 
ATOM     17  C   UNL     1      -4.249  -1.848  23.834  0.00  0.00    +0.003 A 
ATOM     18  C   UNL     1      -4.160  -1.145  24.256  0.00  0.00    +0.037 A 
ENDBRANCH  12  13
ENDBRANCH  10  12
TORSDOF 3
ENDMDL
MODEL 2
REMARK VINA RESULT:      -9.5      1.359      3.547
REMARK  Name = 
REMARK  3 active torsions:
REMARK  status: ('A' for Active; 'I' for Inactive)
REMARK    1  A    between atoms: C_3  and  N_5
REMARK    2  A    between atoms: C_10  and  O_12
REMARK    3  A    between atoms: O_12  and  C_13
REMARK                            x       y       z     vdW  Elec       q    Type
REMARK                         _______ _______ _______ _____ _____    ______ ____
ROOT
ATOM      5  N   UNL     1      -3.260  -0.354  24.511  0.00  0.00    -0.269 NA
ATOM      6  C   UNL     1      -2.494  -0.340  24.821  0.00  0.00    +0.105 C 
ATOM      7  C   UNL     1      -2.025   0.314  25.001  0.00  0.00    +0.160 C 
ATOM      8  O   UNL     1      -2.204   1.115  24.918  0.00  0.00    -0.348 OA
ATOM      9  C   UNL     1      -2.898   1.460  24.632  0.00  0.00    +0.187 C 
ATOM     10  C   UNL     1      -3.582   1.089  24.361  0.00  0.00    +0.211 C 
ATOM     11  C   UNL     1      -3.744   0.282  24.307  0.00  0.00    +0.119 C 
ENDROOT
BRANCH   5   3
ATOM      1  C   UNL     1      -4.040  -2.163  24.221  0.00  0.00    +0.003 C 
ATOM      2  C   UNL     1      -3.946  -1.487  23.757  0.00  0.00    +0.016 C 
ATOM      3  C   UNL     1      -3.583  -1.103  24.391  0.00  0.00    +0.058 C 
ATOM      4  C   UNL     1      -3.677  -1.779  24.854  0.00  0.00    +0.016 C 
ENDBRANCH   5   3
BRANCH  10  12
ATOM     12  O   UNL     1      -4.186   1.592  24.109  0.00  0.00    -0.475 OA
BRANCH  12  13
ATOM     13  C   UNL     1      -4.642   1.998  24.664  0.00  0.00    +0.139 A 
ATOM     14  C   UNL     1      -4.421   2.755  24.905  0.00  0.00    +0.037 A 
ATOM     15  C   UNL     1      -4.877   3.161  25.460  0.00  0.00    +0.003 A 
ATOM     16  C   UNL     1      -5.555   2.809  25.775  0.00  0.00    +0.000 A 
ATOM     17  C   UNL     1      -5.775   2.052  25.533  0.00  0.00    +0.003 A 
ATOM     18  C   UNL     1      -5.319   1.646  24.978  0.00  0.00    +0.037 A 
ENDBRANCH  12  13
ENDBRANCH  10  12
TORSDOF 3
ENDMDL
MODEL 3
REMARK VINA RESULT:      -9.4      2.456      4.369
REMARK  Name = 
REMARK  3 active torsions:
REMARK  status: ('A' for Active; 'I' for Inactive)
REMARK    1  A    between atoms: C_3  and  N_5
REMARK    2  A    between atoms: C_10  and  O_12
REMARK    3  A    between atoms: O_12  and  C_13
REMARK                            x       y       z     vdW  Elec       q    Type
REMARK                         _______ _______ _______ _____ _____    ______ ____
ROOT
ATOM      5  N   UNL     1      -3.608   1.905  24.379  0.00  0.00    -0.269 NA
ATOM      6  C   UNL     1      -3.475   1.580  23.632  0.00  0.00    +0.105 C 
ATOM      7  C   UNL     1      -2.773   1.558  23.199  0.00  0.00    +0.160 C 
ATOM      8  O   UNL     1      -2.032   1.855  23.405  0.00  0.00    -0.348 OA
ATOM      9  C   UNL     1      -1.809   2.247  24.096  0.00  0.00    +0.187 C 
ATOM     10  C   UNL     1      -2.273   2.440  24.750  0.00  0.00    +0.211 C 
ATOM     11  C   UNL     1      -3.073   2.288  24.877  0.00  0.00    +0.119 C 
ENDROOT
BRANCH   5   3
ATOM      1  C   UNL     1      -5.469   1.744  25.072  0.00  0.00    +0.003 C 
ATOM      2  C   UNL     1      -5.052   2.316  24.646  0.00  0.00    +0.016 C 
ATOM      3  C   UNL     1      -4.379   1.839  24.666  0.00  0.00    +0.058 C 
ATOM      4  C   UNL     1      -4.796   1.268  25.091  0.00  0.00    +0.016 C 
ENDBRANCH   5   3
BRANCH  10  12
ATOM     12  O   UNL     1      -1.883   2.838  25.360  0.00  0.00    -0.475 OA
BRANCH  12  13
ATOM     13  C   UNL     1      -1.665   3.627  25.263  0.00  0.00    +0.139 A 
ATOM     14  C   UNL     1      -2.198   4.228  25.452  0.00  0.00    +0.037 A 
ATOM     15  C   UNL     1      -1.979   5.018  25.355  0.00  0.00    +0.003 A 
ATOM     16  C   UNL     1      -1.228   5.207  25.070  0.00  0.00    +0.000 A 
ATOM     17  C   UNL     1      -0.696   4.606  24.882  0.00  0.00    +0.003 A 
ATOM     18  C   UNL     1      -0.914   3.816  24.979  0.00  0.00    +0.037 A 
ENDBRANCH  12  13
ENDBRANCH  10  12
TORSDOF 3
ENDMDL
MODEL 4
REMARK VINA RESULT:      -9.4      1.820      4.207
REMARK  Name = 
REMARK  3 active torsions:
REMARK  status: ('A' for Active; 'I' for Inactive)
REMARK    1  A    between atoms: C_3  and  N_5
REMARK    2  A    between atoms: C_10  and  O_12
REMARK    3  A    between atoms: O_12  and  C_13
REMARK                            x       y       z     vdW  Elec       q    Type
REMARK                         _______ _______ _______ _____ _____    ______ ____
ROOT
ATOM      5  N   UNL     1      -4.411   1.016  24.773  0.00  0.00    -0.269 NA
ATOM      6  C   UNL     1      -5.173   1.175  25.048  0.00  0.00    +0.105 C 
ATOM      7  C   UNL     1      -5.544   1.905  25.141  0.00  0.00    +0.160 C 
ATOM      8  O   UNL     1      -5.247   2.658  24.982  0.00  0.00    -0.348 OA
ATOM      9  C   UNL     1      -4.503   2.866  24.691  0.00  0.00    +0.187 C 
ATOM     10  C   UNL     1      -3.874   2.372  24.487  0.00  0.00    +0.211 C 
ATOM     11  C   UNL     1      -3.833   1.550  24.524  0.00  0.00    +0.119 C 
ENDROOT
BRANCH   5   3
ATOM      1  C   UNL     1      -3.899  -0.908  24.704  0.00  0.00    +0.003 C 
ATOM      2  C   UNL     1      -3.997  -0.351  25.306  0.00  0.00    +0.016 C 
ATOM      3  C   UNL     1      -4.199   0.220  24.745  0.00  0.00    +0.058 C 
ATOM      4  C   UNL     1      -4.102  -0.337  24.144  0.00  0.00    +0.016 C 
ENDBRANCH   5   3
BRANCH  10  12
ATOM     12  O   UNL     1      -3.196   2.753  24.209  0.00  0.00    -0.475 OA
BRANCH  12  13
ATOM     13  C   UNL     1      -2.675   3.107  24.742  0.00  0.00    +0.139 A 
ATOM     14  C   UNL     1      -2.023   2.687  25.022  0.00  0.00    +0.037 A 
ATOM     15  C   UNL     1      -1.502   3.041  25.554  0.00  0.00    +0.003 A 
ATOM     16  C   UNL     1      -1.633   3.815  25.808  0.00  0.00    +0.000 A 
ATOM     17  C   UNL     1      -2.285   4.235  25.528  0.00  0.00    +0.003 A 
ATOM     18  C   UNL     1      -2.807   3.881  24.995  0.00  0.00    +0.037 A 
ENDBRANCH  12  13
ENDBRANCH  10  12
TORSDOF 3
ENDMDL
MODEL 5
REMARK VINA RESULT:      -9.4      1.640      2.619
REMARK  Name = 
REMARK  3 active torsions:
REMARK  status: ('A' for Active; 'I' for Inactive)
REMARK    1  A    between atoms: C_3  and  N_5
REMARK    2  A    between atoms: C_10  and  O_12
REMARK    3  A    between atoms: O_12  and  C_13
REMARK                            x       y       z     vdW  Elec       q    Type
REMARK                         _______ _______ _______ _____ _____    ______ ____
ROOT
ATOM      5  N   UNL     1      -3.709   3.140  25.235  0.00  0.00    -0.269 NA
ATOM      6  C   UNL     1      -4.427   3.402  25.549  0.00  0.00    +0.105 C 
ATOM      7  C   UNL     1      -5.169   3.047  25.499  0.00  0.00    +0.160 C 
ATOM      8  O   UNL     1      -5.379   2.344  25.122  0.00  0.00    -0.348 OA
ATOM      9  C   UNL     1      -4.898   1.822  24.702  0.00  0.00    +0.187 C 
ATOM     10  C   UNL     1      -4.088   1.874  24.556  0.00  0.00    +0.211 C 
ATOM     11  C   UNL     1      -3.559   2.461  24.793  0.00  0.00    +0.119 C 
ENDROOT
BRANCH   5   3
ATOM      1  C   UNL     1      -2.134   4.307  25.591  0.00  0.00    +0.003 C 
ATOM      2  C   UNL     1      -2.619   3.823  26.053  0.00  0.00    +0.016 C 
ATOM      3  C   UNL     1      -3.057   3.624  25.382  0.00  0.00    +0.058 C 
ATOM      4  C   UNL     1      -2.573   4.107  24.922  0.00  0.00    +0.016 C 
ENDBRANCH   5   3
BRANCH  10  12
ATOM     12  O   UNL     1      -3.763   1.257  24.113  0.00  0.00    -0.475 OA
BRANCH  12  13
ATOM     13  C   UNL     1      -3.679   0.509  24.450  0.00  0.00    +0.139 A 
ATOM     14  C   UNL     1      -4.252  -0.069  24.319  0.00  0.00    +0.037 A 
ATOM     15  C   UNL     1      -4.168  -0.818  24.655  0.00  0.00    +0.003 A 
ATOM     16  C   UNL     1      -3.510  -0.988  25.124  0.00  0.00    +0.000 A 
ATOM     17  C   UNL     1      -2.937  -0.410  25.254  0.00  0.00    +0.003 A 
ATOM     18  C   UNL     1      -3.021   0.338  24.918  0.00  0.00    +0.037 A 
ENDBRANCH  12  13
ENDBRANCH  10  12
TORSDOF 3
ENDMDL
MODEL 6
REMARK VINA RESULT:      -9.2      1.154      1.959
REMARK  Name = 
REMARK  3 active torsions:
REMARK  status: ('A' for Active; 'I' for Inactive)
REMARK    1  A    between atoms: C_3  and  N_5
REMARK    2  A    between atoms: C_10  and  O_12
REMARK    3  A    between atoms: O_12  and  C_13
REMARK                            x       y       z     vdW  Elec       q    Type
REMARK                         _______ _______ _______ _____ _____    ______ ____
ROOT
ATOM      5  N   UNL     1      -1.902   1.676  24.610  0.00  0.00    -0.269 NA
ATOM      6  C   UNL     1      -1.782   1.966  23.846  0.00  0.00    +0.105 C 
ATOM      7  C   UNL     1      -2.254   1.864  23.178  0.00  0.00    +0.160 C 
ATOM      8  O   UNL     1      -2.963   1.447  23.107  0.00  0.00    -0.348 OA
ATOM      9  C   UNL     1      -3.374   1.030  23.687  0.00  0.00    +0.187 C 
ATOM     10  C   UNL     1      -3.178   0.926  24.482  0.00  0.00    +0.211 C 
ATOM     11  C   UNL     1      -2.524   1.213  24.892  0.00  0.00    +0.119 C 
ENDROOT
BRANCH   5   3
ATOM      1  C   UNL     1      -0.506   2.158  25.947  0.00  0.00    +0.003 C 
ATOM      2  C   UNL     1      -0.610   1.542  25.406  0.00  0.00    +0.016 C 
ATOM      3  C   UNL     1      -1.324   1.876  25.163  0.00  0.00    +0.058 C 
ATOM      4  C   UNL     1      -1.221   2.491  25.703  0.00  0.00    +0.016 C 
ENDBRANCH   5   3
BRANCH  10  12
ATOM     12  O   UNL     1      -3.709   0.474  24.924  0.00  0.00    -0.475 OA
BRANCH  12  13
ATOM     13  C   UNL     1      -3.702  -0.349  24.862  0.00  0.00    +0.139 A 
ATOM     14  C   UNL     1      -3.295  -0.800  25.420  0.00  0.00    +0.037 A 
ATOM     15  C   UNL     1      -3.288  -1.623  25.358  0.00  0.00    +0.003 A 
ATOM     16  C   UNL     1      -3.687  -1.994  24.737  0.00  0.00    +0.000 A 
ATOM     17  C   UNL     1      -4.093  -1.542  24.180  0.00  0.00    +0.003 A 
ATOM     18  C   UNL     1      -4.100  -0.719  24.243  0.00  0.00    +0.037 A 
ENDBRANCH  12  13
ENDBRANCH  10  12
TORSDOF 3
ENDMDL
