MODEL 1
REMARK VINA RESULT:     -10.3      0.000      0.000
REMARK  Name = 
REMARK  8 active torsions:
REMARK  status: ('A' for Active; 'I' for Inactive)
REMARK    1  A    between atoms: N_2  and  C_4
REMARK    2  A    between atoms: C_7  and  C_10
REMARK    3  A    between atoms: C_16  and  C_18
REMARK    4  A    between atoms: N_20  and  C_21
REMARK    5  A    between atoms: C_21  and  C_22
REMARK    6  A    between atoms: C_21  and  C_29
REMARK    7  A    between atoms: C_22  and  C_23
REMARK    8  A    between atoms: C_32  and  C_34
REMARK                            x       y       z     vdW  Elec       q    Type
REMARK                         _______ _______ _______ _____ _____    ______ ____
ROOT
ATOM     10  C   UNL     1       0.102  -0.247  23.567  0.00  0.00    +0.249 C 
ATOM     11  O   UNL     1      -0.221  -1.004  23.518  0.00  0.00    -0.270 OA
ATOM     12  N   UNL     1      -0.323   0.361  23.927  0.00  0.00    -0.272 N 
ATOM     13  C   UNL     1       0.000   1.119  23.976  0.00  0.00    +0.115 C 
ATOM     14  C   UNL     1      -0.426   1.726  24.336  0.00  0.00    +0.116 C 
ATOM     15  N   UNL     1      -1.175   1.577  24.647  0.00  0.00    -0.266 N 
ATOM     16  C   UNL     1      -1.499   0.820  24.598  0.00  0.00    +0.174 C 
ATOM     17  C   UNL     1      -1.073   0.212  24.238  0.00  0.00    +0.123 C 
ATOM     32  C   UNL     1      -1.602   2.185  25.008  0.00  0.00    +0.255 C 
ATOM     33  O   UNL     1      -2.350   2.035  25.319  0.00  0.00    -0.269 OA
ENDROOT
BRANCH  10   7
ATOM      4  C   UNL     1       2.351   0.203  22.634  0.00  0.00    +0.048 A 
ATOM      5  C   UNL     1       1.709   0.086  22.128  0.00  0.00    +0.015 A 
ATOM      6  C   UNL     1       0.961  -0.063  22.439  0.00  0.00    +0.006 A 
ATOM      7  C   UNL     1       0.852  -0.097  23.256  0.00  0.00    +0.054 A 
ATOM      8  C   UNL     1       1.493   0.019  23.762  0.00  0.00    +0.006 A 
ATOM      9  C   UNL     1       2.243   0.169  23.451  0.00  0.00    +0.015 A 
BRANCH   4   2
ATOM      1  C   UNL     1       3.304   0.062  21.579  0.00  0.00    +0.112 C 
ATOM      2  N   UNL     1       3.100   0.352  22.324  0.00  0.00    -0.304 N 
ATOM      3  C   UNL     1       3.646   0.793  22.758  0.00  0.00    +0.112 C 
ENDBRANCH   4   2
ENDBRANCH  10   7
BRANCH  32  34
ATOM     34  C   UNL     1      -1.278   2.942  25.057  0.00  0.00    +0.083 A 
ATOM     35  C   UNL     1      -0.707   3.191  25.598  0.00  0.00    +0.012 A 
ATOM     36  C   UNL     1      -0.545   3.987  25.449  0.00  0.00    +0.008 A 
ATOM     37  C   UNL     1      -1.016   4.229  24.817  0.00  0.00    +0.036 A 
ATOM     38  S   UNL     1      -1.469   3.583  24.575  0.00  0.00    -0.082 S 
ENDBRANCH  32  34
BRANCH  16  18
ATOM     18  C   UNL     1      -2.248   0.670  24.909  0.00  0.00    +0.262 C 
ATOM     19  O   UNL     1      -2.435   0.918  25.674  0.00  0.00    -0.271 OA
ATOM     20  N   UNL     1      -2.811   0.272  24.455  0.00  0.00    -0.196 NA
BRANCH  20  21
ATOM     21  C   UNL     1      -3.561   0.122  24.767  0.00  0.00    +0.174 C 
BRANCH  21  29
ATOM     29  C   UNL     1      -4.186   0.636  24.603  0.00  0.00    +0.281 C 
ATOM     30  N   UNL     1      -4.711   0.849  25.201  0.00  0.00    -0.086 NA
ATOM     31  O   UNL     1      -4.284   0.935  23.840  0.00  0.00    -0.270 OA
ENDBRANCH  21  29
BRANCH  21  22
ATOM     22  C   UNL     1      -3.685  -0.541  25.241  0.00  0.00    +0.031 C 
BRANCH  22  23
ATOM     23  C   UNL     1      -3.742  -1.289  24.897  0.00  0.00    +0.002 C 
ATOM     24  C   UNL     1      -3.362  -1.933  25.246  0.00  0.00    +0.000 C 
ATOM     25  C   UNL     1      -3.419  -2.681  24.902  0.00  0.00    +0.000 C 
ATOM     26  C   UNL     1      -3.856  -2.785  24.209  0.00  0.00    +0.000 C 
ATOM     27  C   UNL     1      -4.235  -2.140  23.861  0.00  0.00    +0.000 C 
ATOM     28  C   UNL     1      -4.178  -1.393  24.205  0.00  0.00    +0.000 C 
ENDBRANCH  22  23
ENDBRANCH  21  22
ENDBRANCH  20  21
ENDBRANCH  16  18
TORSDOF 8
ENDMDL
MODEL 2
REMARK VINA RESULT:      -9.1      2.703      3.983
REMARK  Name = 
REMARK  8 active torsions:
REMARK  status: ('A' for Active; 'I' for Inactive)
REMARK    1  A    between atoms: N_2  and  C_4
REMARK    2  A    between atoms: C_7  and  C_10
REMARK    3  A    between atoms: C_16  and  C_18
REMARK    4  A    between atoms: N_20  and  C_21
REMARK    5  A    between atoms: C_21  and  C_22
REMARK    6  A    between atoms: C_21  and  C_29
REMARK    7  A    between atoms: C_22  and  C_23
REMARK    8  A    between atoms: C_32  and  C_34
REMARK                            x       y       z     vdW  Elec       q    Type
REMARK                         _______ _______ _______ _____ _____    ______ ____
ROOT
ATOM     10  C   UNL     1      -1.707   1.970  24.826  0.00  0.00    +0.249 C 
ATOM     11  O   UNL     1      -1.113   1.407  24.720  0.00  0.00    -0.270 OA
ATOM     12  N   UNL     1      -2.491   1.730  24.918  0.00  0.00    -0.272 N 
ATOM     13  C   UNL     1      -3.085   2.293  25.024  0.00  0.00    +0.115 C 
ATOM     14  C   UNL     1      -3.869   2.052  25.116  0.00  0.00    +0.116 C 
ATOM     15  N   UNL     1      -4.059   1.250  25.102  0.00  0.00    -0.266 N 
ATOM     16  C   UNL     1      -3.465   0.687  24.995  0.00  0.00    +0.174 C 
ATOM     17  C   UNL     1      -2.681   0.927  24.903  0.00  0.00    +0.123 C 
ATOM     32  C   UNL     1      -4.843   1.009  25.193  0.00  0.00    +0.255 C 
ATOM     33  O   UNL     1      -5.033   0.207  25.179  0.00  0.00    -0.269 OA
ENDROOT
BRANCH  10   7
ATOM      4  C   UNL     1      -1.137   4.379  24.870  0.00  0.00    +0.048 A 
ATOM      5  C   UNL     1      -1.263   3.997  24.150  0.00  0.00    +0.015 A 
ATOM      6  C   UNL     1      -1.453   3.195  24.135  0.00  0.00    +0.006 A 
ATOM      7  C   UNL     1      -1.517   2.773  24.841  0.00  0.00    +0.054 A 
ATOM      8  C   UNL     1      -1.392   3.154  25.562  0.00  0.00    +0.006 A 
ATOM      9  C   UNL     1      -1.202   3.957  25.577  0.00  0.00    +0.015 A 
BRANCH   4   2
ATOM      1  C   UNL     1      -1.519   5.736  25.098  0.00  0.00    +0.112 C 
ATOM      2  N   UNL     1      -0.948   5.181  24.885  0.00  0.00    -0.304 N 
ATOM      3  C   UNL     1      -0.186   5.428  24.687  0.00  0.00    +0.112 C 
ENDBRANCH   4   2
ENDBRANCH  10   7
BRANCH  32  34
ATOM     34  C   UNL     1      -5.437   1.572  25.300  0.00  0.00    +0.083 A 
ATOM     35  C   UNL     1      -5.586   1.994  25.993  0.00  0.00    +0.012 A 
ATOM     36  C   UNL     1      -6.228   2.494  25.853  0.00  0.00    +0.008 A 
ATOM     37  C   UNL     1      -6.474   2.381  25.074  0.00  0.00    +0.036 A 
ATOM     38  S   UNL     1      -5.985   1.811  24.732  0.00  0.00    -0.082 S 
ENDBRANCH  32  34
BRANCH  16  18
ATOM     18  C   UNL     1      -3.655  -0.116  24.981  0.00  0.00    +0.262 C 
ATOM     19  O   UNL     1      -4.213  -0.418  25.508  0.00  0.00    -0.271 OA
ATOM     20  N   UNL     1      -3.286  -0.616  24.438  0.00  0.00    -0.196 NA
BRANCH  20  21
ATOM     21  C   UNL     1      -3.476  -1.420  24.424  0.00  0.00    +0.174 C 
BRANCH  21  29
ATOM     29  C   UNL     1      -4.018  -1.706  23.871  0.00  0.00    +0.281 C 
ATOM     30  N   UNL     1      -4.542  -2.307  24.081  0.00  0.00    -0.086 NA
ATOM     31  O   UNL     1      -4.035  -1.390  23.109  0.00  0.00    -0.270 OA
ENDBRANCH  21  29
BRANCH  21  22
ATOM     22  C   UNL     1      -3.124  -1.936  24.962  0.00  0.00    +0.031 C 
BRANCH  22  23
ATOM     23  C   UNL     1      -2.330  -2.145  24.873  0.00  0.00    +0.002 C 
ATOM     24  C   UNL     1      -1.776  -1.906  25.436  0.00  0.00    +0.000 C 
ATOM     25  C   UNL     1      -0.982  -2.115  25.347  0.00  0.00    +0.000 C 
ATOM     26  C   UNL     1      -0.743  -2.562  24.696  0.00  0.00    +0.000 C 
ATOM     27  C   UNL     1      -1.298  -2.800  24.134  0.00  0.00    +0.000 C 
ATOM     28  C   UNL     1      -2.091  -2.592  24.222  0.00  0.00    +0.000 C 
ENDBRANCH  22  23
ENDBRANCH  21  22
ENDBRANCH  20  21
ENDBRANCH  16  18
TORSDOF 8
ENDMDL
MODEL 3
REMARK VINA RESULT:      -8.8      1.615      5.274
REMARK  Name = 
REMARK  8 active torsions:
REMARK  status: ('A' for Active; 'I' for Inactive)
REMARK    1  A    between atoms: N_2  and  C_4
REMARK    2  A    between atoms: C_7  and  C_10
REMARK    3  A    between atoms: C_16  and  C_18
REMARK    4  A    between atoms: N_20  and  C_21
REMARK    5  A    between atoms: C_21  and  C_22
REMARK    6  A    between atoms: C_21  and  C_29
REMARK    7  A    between atoms: C_22  and  C_23
REMARK    8  A    between atoms: C_32  and  C_34
REMARK                            x       y       z     vdW  Elec       q    Type
REMARK                         _______ _______ _______ _____ _____    ______ ____
ROOT
ATOM     10  C   UNL     1      -2.485  -0.212  25.162  0.00  0.00    +0.249 C 
ATOM     11  O   UNL     1      -2.815   0.227  25.778  0.00  0.00    -0.270 OA
ATOM     12  N   UNL     1      -1.765   0.017  24.832  0.00  0.00    -0.272 N 
ATOM     13  C   UNL     1      -1.434  -0.422  24.217  0.00  0.00    +0.115 C 
ATOM     14  C   UNL     1      -0.714  -0.192  23.887  0.00  0.00    +0.116 C 
ATOM     15  N   UNL     1      -0.323   0.475  24.173  0.00  0.00    -0.266 N 
ATOM     16  C   UNL     1      -0.653   0.914  24.789  0.00  0.00    +0.174 C 
ATOM     17  C   UNL     1      -1.374   0.686  25.119  0.00  0.00    +0.123 C 
ATOM     32  C   UNL     1       0.398   0.705  23.844  0.00  0.00    +0.255 C 
ATOM     33  O   UNL     1       0.788   1.373  24.130  0.00  0.00    -0.269 OA
ENDROOT
BRANCH  10   7
ATOM      4  C   UNL     1      -3.657  -2.216  24.303  0.00  0.00    +0.048 A 
ATOM      5  C   UNL     1      -3.069  -2.296  24.877  0.00  0.00    +0.015 A 
ATOM      6  C   UNL     1      -2.679  -1.628  25.163  0.00  0.00    +0.006 A 
ATOM      7  C   UNL     1      -2.876  -0.880  24.876  0.00  0.00    +0.054 A 
ATOM      8  C   UNL     1      -3.464  -0.800  24.303  0.00  0.00    +0.006 A 
ATOM      9  C   UNL     1      -3.854  -1.468  24.016  0.00  0.00    +0.015 A 
BRANCH   4   2
ATOM      1  C   UNL     1      -3.784  -3.636  24.225  0.00  0.00    +0.112 C 
ATOM      2  N   UNL     1      -4.047  -2.884  24.017  0.00  0.00    -0.304 N 
ATOM      3  C   UNL     1      -4.702  -2.798  23.522  0.00  0.00    +0.112 C 
ENDBRANCH   4   2
ENDBRANCH  10   7
BRANCH  32  34
ATOM     34  C   UNL     1       0.728   0.266  23.228  0.00  0.00    +0.083 A 
ATOM     35  C   UNL     1       0.414   0.183  22.469  0.00  0.00    +0.012 A 
ATOM     36  C   UNL     1       0.922  -0.301  22.035  0.00  0.00    +0.008 A 
ATOM     37  C   UNL     1       1.550  -0.517  22.525  0.00  0.00    +0.036 A 
ATOM     38  S   UNL     1       1.429  -0.166  23.263  0.00  0.00    -0.082 S 
ENDBRANCH  32  34
BRANCH  16  18
ATOM     18  C   UNL     1      -0.263   1.583  25.075  0.00  0.00    +0.262 C 
ATOM     19  O   UNL     1       0.539   1.693  24.914  0.00  0.00    -0.271 OA
ATOM     20  N   UNL     1      -0.674   2.141  25.522  0.00  0.00    -0.196 NA
BRANCH  20  21
ATOM     21  C   UNL     1      -0.284   2.809  25.809  0.00  0.00    +0.174 C 
BRANCH  21  29
ATOM     29  C   UNL     1       0.079   2.790  26.549  0.00  0.00    +0.281 C 
ATOM     30  N   UNL     1       0.854   3.057  26.636  0.00  0.00    -0.086 NA
ATOM     31  O   UNL     1      -0.335   2.502  27.203  0.00  0.00    -0.270 OA
ENDBRANCH  21  29
BRANCH  21  22
ATOM     22  C   UNL     1      -0.256   3.496  25.353  0.00  0.00    +0.031 C 
BRANCH  22  23
ATOM     23  C   UNL     1      -0.901   4.013  25.347  0.00  0.00    +0.002 C 
ATOM     24  C   UNL     1      -0.828   4.757  25.000  0.00  0.00    +0.000 C 
ATOM     25  C   UNL     1      -1.472   5.274  24.993  0.00  0.00    +0.000 C 
ATOM     26  C   UNL     1      -2.188   5.044  25.333  0.00  0.00    +0.000 C 
ATOM     27  C   UNL     1      -2.260   4.299  25.680  0.00  0.00    +0.000 C 
ATOM     28  C   UNL     1      -1.616   3.783  25.687  0.00  0.00    +0.000 C 
ENDBRANCH  22  23
ENDBRANCH  21  22
ENDBRANCH  20  21
ENDBRANCH  16  18
TORSDOF 8
ENDMDL
MODEL 4
REMARK VINA RESULT:      -8.5      1.774      3.869
REMARK  Name = 
REMARK  8 active torsions:
REMARK  status: ('A' for Active; 'I' for Inactive)
REMARK    1  A    between atoms: N_2  and  C_4
REMARK    2  A    between atoms: C_7  and  C_10
REMARK    3  A    between atoms: C_16  and  C_18
REMARK    4  A    between atoms: N_20  and  C_21
REMARK    5  A    between atoms: C_21  and  C_22
REMARK    6  A    between atoms: C_21  and  C_29
REMARK    7  A    between atoms: C_22  and  C_23
REMARK    8  A    between atoms: C_32  and  C_34
REMARK                            x       y       z     vdW  Elec       q    Type
REMARK                         _______ _______ _______ _____ _____    ______ ____
ROOT
ATOM     10  C   UNL     1      -1.056   1.268  23.936  0.00  0.00    +0.249 C 
ATOM     11  O   UNL     1      -1.085   2.089  24.011  0.00  0.00    -0.270 OA
ATOM     12  N   UNL     1      -1.702   0.809  24.167  0.00  0.00    -0.272 N 
ATOM     13  C   UNL     1      -1.674  -0.012  24.092  0.00  0.00    +0.115 C 
ATOM     14  C   UNL     1      -2.320  -0.469  24.324  0.00  0.00    +0.116 C 
ATOM     15  N   UNL     1      -2.994  -0.106  24.630  0.00  0.00    -0.266 N 
ATOM     16  C   UNL     1      -3.023   0.715  24.705  0.00  0.00    +0.174 C 
ATOM     17  C   UNL     1      -2.377   1.173  24.474  0.00  0.00    +0.123 C 
ATOM     32  C   UNL     1      -3.641  -0.564  24.862  0.00  0.00    +0.255 C 
ATOM     33  O   UNL     1      -4.315  -0.201  25.168  0.00  0.00    -0.269 OA
ENDROOT
BRANCH  10   7
ATOM      4  C   UNL     1       0.967   0.177  23.016  0.00  0.00    +0.048 A 
ATOM      5  C   UNL     1       0.272   0.200  22.572  0.00  0.00    +0.015 A 
ATOM      6  C   UNL     1      -0.402   0.563  22.878  0.00  0.00    +0.006 A 
ATOM      7  C   UNL     1      -0.382   0.904  23.629  0.00  0.00    +0.054 A 
ATOM      8  C   UNL     1       0.313   0.882  24.074  0.00  0.00    +0.006 A 
ATOM      9  C   UNL     1       0.987   0.518  23.767  0.00  0.00    +0.015 A 
BRANCH   4   2
ATOM      1  C   UNL     1       1.633  -0.494  21.946  0.00  0.00    +0.112 C 
ATOM      2  N   UNL     1       1.641  -0.186  22.710  0.00  0.00    -0.304 N 
ATOM      3  C   UNL     1       2.324  -0.241  23.169  0.00  0.00    +0.112 C 
ENDBRANCH   4   2
ENDBRANCH  10   7
BRANCH  32  34
ATOM     34  C   UNL     1      -3.613  -1.385  24.786  0.00  0.00    +0.083 A 
ATOM     35  C   UNL     1      -3.856  -1.820  24.129  0.00  0.00    +0.012 A 
ATOM     36  C   UNL     1      -3.730  -2.620  24.291  0.00  0.00    +0.008 A 
ATOM     37  C   UNL     1      -3.409  -2.678  25.049  0.00  0.00    +0.036 A 
ATOM     38  S   UNL     1      -3.337  -1.915  25.355  0.00  0.00    -0.082 S 
ENDBRANCH  32  34
BRANCH  16  18
ATOM     18  C   UNL     1      -3.697   1.078  25.012  0.00  0.00    +0.262 C 
ATOM     19  O   UNL     1      -4.165   0.682  25.563  0.00  0.00    -0.271 OA
ATOM     20  N   UNL     1      -3.903   1.839  24.767  0.00  0.00    -0.196 NA
BRANCH  20  21
ATOM     21  C   UNL     1      -4.578   2.202  25.073  0.00  0.00    +0.174 C 
BRANCH  21  29
ATOM     29  C   UNL     1      -5.308   2.096  24.704  0.00  0.00    +0.281 C 
ATOM     30  N   UNL     1      -5.979   1.940  25.156  0.00  0.00    -0.086 NA
ATOM     31  O   UNL     1      -5.365   2.147  23.882  0.00  0.00    -0.270 OA
ENDBRANCH  21  29
BRANCH  21  22
ATOM     22  C   UNL     1      -4.521   2.672  25.749  0.00  0.00    +0.031 C 
BRANCH  22  23
ATOM     23  C   UNL     1      -4.074   3.366  25.733  0.00  0.00    +0.002 C 
ATOM     24  C   UNL     1      -4.173   3.905  25.116  0.00  0.00    +0.000 C 
ATOM     25  C   UNL     1      -3.727   4.599  25.099  0.00  0.00    +0.000 C 
ATOM     26  C   UNL     1      -3.182   4.753  25.699  0.00  0.00    +0.000 C 
ATOM     27  C   UNL     1      -3.084   4.214  26.316  0.00  0.00    +0.000 C 
ATOM     28  C   UNL     1      -3.529   3.520  26.333  0.00  0.00    +0.000 C 
ENDBRANCH  22  23
ENDBRANCH  21  22
ENDBRANCH  20  21
ENDBRANCH  16  18
TORSDOF 8
ENDMDL
MODEL 5
REMARK VINA RESULT:      -8.5      2.324      4.807
REMARK  Name = 
REMARK  8 active torsions:
REMARK  status: ('A' for Active; 'I' for Inactive)
REMARK    1  A    between atoms: N_2  and  C_4
REMARK    2  A    between atoms: C_7  and  C_10
REMARK    3  A    between atoms: C_16  and  C_18
REMARK    4  A    between atoms: N_20  and  C_21
REMARK    5  A    between atoms: C_21  and  C_22
REMARK    6  A    between atoms: C_21  and  C_29
REMARK    7  A    between atoms: C_22  and  C_23
REMARK    8  A    between atoms: C_32  and  C_34
REMARK                            x       y       z     vdW  Elec       q    Type
REMARK                         _______ _______ _______ _____ _____    ______ ____
ROOT
ATOM     10  C   UNL     1      -4.145   1.500  24.858  0.00  0.00    +0.249 C 
ATOM     11  O   UNL     1      -4.575   0.828  24.649  0.00  0.00    -0.270 OA
ATOM     12  N   UNL     1      -3.323   1.465  24.912  0.00  0.00    -0.272 N 
ATOM     13  C   UNL     1      -2.893   2.137  25.120  0.00  0.00    +0.115 C 
ATOM     14  C   UNL     1      -2.070   2.100  25.174  0.00  0.00    +0.116 C 
ATOM     15  N   UNL     1      -1.678   1.392  25.020  0.00  0.00    -0.266 N 
ATOM     16  C   UNL     1      -2.108   0.719  24.812  0.00  0.00    +0.174 C 
ATOM     17  C   UNL     1      -2.930   0.755  24.758  0.00  0.00    +0.123 C 
ATOM     32  C   UNL     1      -0.855   1.354  25.074  0.00  0.00    +0.255 C 
ATOM     33  O   UNL     1      -0.463   0.646  24.920  0.00  0.00    -0.269 OA
ENDROOT
BRANCH  10   7
ATOM      4  C   UNL     1      -5.322   3.628  25.321  0.00  0.00    +0.048 A 
ATOM      5  C   UNL     1      -4.919   3.526  24.608  0.00  0.00    +0.015 A 
ATOM      6  C   UNL     1      -4.527   2.817  24.454  0.00  0.00    +0.006 A 
ATOM      7  C   UNL     1      -4.538   2.210  25.012  0.00  0.00    +0.054 A 
ATOM      8  C   UNL     1      -4.940   2.311  25.725  0.00  0.00    +0.006 A 
ATOM      9  C   UNL     1      -5.333   3.021  25.879  0.00  0.00    +0.015 A 
BRANCH   4   2
ATOM      1  C   UNL     1      -6.508   4.329  25.701  0.00  0.00    +0.112 C 
ATOM      2  N   UNL     1      -5.715   4.337  25.476  0.00  0.00    -0.304 N 
ATOM      3  C   UNL     1      -5.313   5.054  25.405  0.00  0.00    +0.112 C 
ENDBRANCH   4   2
ENDBRANCH  10   7
BRANCH  32  34
ATOM     34  C   UNL     1      -0.425   2.027  25.283  0.00  0.00    +0.083 A 
ATOM     35  C   UNL     1      -0.222   2.254  26.050  0.00  0.00    +0.012 A 
ATOM     36  C   UNL     1       0.206   2.958  26.002  0.00  0.00    +0.008 A 
ATOM     37  C   UNL     1       0.267   3.166  25.206  0.00  0.00    +0.036 A 
ATOM     38  S   UNL     1      -0.123   2.590  24.762  0.00  0.00    -0.082 S 
ENDBRANCH  32  34
BRANCH  16  18
ATOM     18  C   UNL     1      -1.715   0.009  24.657  0.00  0.00    +0.262 C 
ATOM     19  O   UNL     1      -1.094  -0.009  24.114  0.00  0.00    -0.271 OA
ATOM     20  N   UNL     1      -1.944  -0.681  25.047  0.00  0.00    -0.196 NA
BRANCH  20  21
ATOM     21  C   UNL     1      -1.551  -1.391  24.892  0.00  0.00    +0.174 C 
BRANCH  21  29
ATOM     29  C   UNL     1      -0.903  -1.612  25.352  0.00  0.00    +0.281 C 
ATOM     30  N   UNL     1      -0.228  -1.918  24.992  0.00  0.00    -0.086 NA
ATOM     31  O   UNL     1      -0.932  -1.528  26.172  0.00  0.00    -0.270 OA
ENDBRANCH  21  29
BRANCH  21  22
ATOM     22  C   UNL     1      -1.808  -1.878  24.278  0.00  0.00    +0.031 C 
BRANCH  22  23
ATOM     23  C   UNL     1      -2.530  -2.273  24.339  0.00  0.00    +0.002 C 
ATOM     24  C   UNL     1      -3.123  -2.136  23.782  0.00  0.00    +0.000 C 
ATOM     25  C   UNL     1      -3.845  -2.532  23.844  0.00  0.00    +0.000 C 
ATOM     26  C   UNL     1      -3.974  -3.063  24.462  0.00  0.00    +0.000 C 
ATOM     27  C   UNL     1      -3.379  -3.199  25.018  0.00  0.00    +0.000 C 
ATOM     28  C   UNL     1      -2.658  -2.805  24.957  0.00  0.00    +0.000 C 
ENDBRANCH  22  23
ENDBRANCH  21  22
ENDBRANCH  20  21
ENDBRANCH  16  18
TORSDOF 8
ENDMDL
MODEL 6
REMARK VINA RESULT:      -8.4      1.730      5.001
REMARK  Name = 
REMARK  8 active torsions:
REMARK  status: ('A' for Active; 'I' for Inactive)
REMARK    1  A    between atoms: N_2  and  C_4
REMARK    2  A    between atoms: C_7  and  C_10
REMARK    3  A    between atoms: C_16  and  C_18
REMARK    4  A    between atoms: N_20  and  C_21
REMARK    5  A    between atoms: C_21  and  C_22
REMARK    6  A    between atoms: C_21  and  C_29
REMARK    7  A    between atoms: C_22  and  C_23
REMARK    8  A    between atoms: C_32  and  C_34
REMARK                            x       y       z     vdW  Elec       q    Type
REMARK                         _______ _______ _______ _____ _____    ______ ____
ROOT
ATOM     10  C   UNL     1      -3.271   0.033  24.690  0.00  0.00    +0.249 C 
ATOM     11  O   UNL     1      -3.849   0.537  24.996  0.00  0.00    -0.270 OA
ATOM     12  N   UNL     1      -2.536   0.334  24.469  0.00  0.00    -0.272 N 
ATOM     13  C   UNL     1      -1.958  -0.169  24.164  0.00  0.00    +0.115 C 
ATOM     14  C   UNL     1      -1.223   0.133  23.942  0.00  0.00    +0.116 C 
ATOM     15  N   UNL     1      -1.066   0.938  24.025  0.00  0.00    -0.266 N 
ATOM     16  C   UNL     1      -1.643   1.442  24.330  0.00  0.00    +0.174 C 
ATOM     17  C   UNL     1      -2.378   1.141  24.552  0.00  0.00    +0.123 C 
ATOM     32  C   UNL     1      -0.330   1.240  23.804  0.00  0.00    +0.255 C 
ATOM     33  O   UNL     1      -0.173   2.045  23.887  0.00  0.00    -0.269 OA
ENDROOT
BRANCH  10   7
ATOM      4  C   UNL     1      -3.743  -2.384  24.440  0.00  0.00    +0.048 A 
ATOM      5  C   UNL     1      -3.999  -1.851  23.865  0.00  0.00    +0.015 A 
ATOM      6  C   UNL     1      -3.842  -1.046  23.948  0.00  0.00    +0.006 A 
ATOM      7  C   UNL     1      -3.428  -0.773  24.607  0.00  0.00    +0.054 A 
ATOM      8  C   UNL     1      -3.172  -1.304  25.183  0.00  0.00    +0.006 A 
ATOM      9  C   UNL     1      -3.329  -2.111  25.100  0.00  0.00    +0.015 A 
BRANCH   4   2
ATOM      1  C   UNL     1      -4.425  -3.449  23.777  0.00  0.00    +0.112 C 
ATOM      2  N   UNL     1      -3.900  -3.189  24.357  0.00  0.00    -0.304 N 
ATOM      3  C   UNL     1      -3.532  -3.734  24.855  0.00  0.00    +0.112 C 
ENDBRANCH   4   2
ENDBRANCH  10   7
BRANCH  32  34
ATOM     34  C   UNL     1       0.247   0.737  23.498  0.00  0.00    +0.083 A 
ATOM     35  C   UNL     1       0.205   0.328  22.782  0.00  0.00    +0.012 A 
ATOM     36  C   UNL     1       0.901  -0.108  22.697  0.00  0.00    +0.008 A 
ATOM     37  C   UNL     1       1.372   0.031  23.360  0.00  0.00    +0.036 A 
ATOM     38  S   UNL     1       0.968   0.553  23.855  0.00  0.00    -0.082 S 
ENDBRANCH  32  34
BRANCH  16  18
ATOM     18  C   UNL     1      -1.486   2.248  24.414  0.00  0.00    +0.262 C 
ATOM     19  O   UNL     1      -1.098   2.657  23.811  0.00  0.00    -0.271 OA
ATOM     20  N   UNL     1      -1.716   2.644  25.100  0.00  0.00    -0.196 NA
BRANCH  20  21
ATOM     21  C   UNL     1      -1.559   3.450  25.183  0.00  0.00    +0.174 C 
BRANCH  21  29
ATOM     29  C   UNL     1      -0.857   3.699  25.538  0.00  0.00    +0.281 C 
ATOM     30  N   UNL     1      -0.438   4.335  25.222  0.00  0.00    -0.086 NA
ATOM     31  O   UNL     1      -0.574   3.311  26.209  0.00  0.00    -0.270 OA
ENDBRANCH  21  29
BRANCH  21  22
ATOM     22  C   UNL     1      -2.104   4.006  24.912  0.00  0.00    +0.031 C 
BRANCH  22  23
ATOM     23  C   UNL     1      -2.849   4.059  25.264  0.00  0.00    +0.002 C 
ATOM     24  C   UNL     1      -3.529   4.012  24.800  0.00  0.00    +0.000 C 
ATOM     25  C   UNL     1      -4.274   4.065  25.152  0.00  0.00    +0.000 C 
ATOM     26  C   UNL     1      -4.338   4.165  25.969  0.00  0.00    +0.000 C 
ATOM     27  C   UNL     1      -3.657   4.212  26.433  0.00  0.00    +0.000 C 
ATOM     28  C   UNL     1      -2.913   4.159  26.081  0.00  0.00    +0.000 C 
ENDBRANCH  22  23
ENDBRANCH  21  22
ENDBRANCH  20  21
ENDBRANCH  16  18
TORSDOF 8
ENDMDL
MODEL 7
REMARK VINA RESULT:      -7.9      2.546      5.184
REMARK  Name = 
REMARK  8 active torsions:
REMARK  status: ('A' for Active; 'I' for Inactive)
REMARK    1  A    between atoms: N_2  and  C_4
REMARK    2  A    between atoms: C_7  and  C_10
REMARK    3  A    between atoms: C_16  and  C_18
REMARK    4  A    between atoms: N_20  and  C_21
REMARK    5  A    between atoms: C_21  and  C_22
REMARK    6  A    between atoms: C_21  and  C_29
REMARK    7  A    between atoms: C_22  and  C_23
REMARK    8  A    between atoms: C_32  and  C_34
REMARK                            x       y       z     vdW  Elec       q    Type
REMARK                         _______ _______ _______ _____ _____    ______ ____
ROOT
ATOM     10  C   UNL     1      -2.672  -0.066  24.512  0.00  0.00    +0.249 C 
ATOM     11  O   UNL     1      -1.869   0.078  24.393  0.00  0.00    -0.270 OA
ATOM     12  N   UNL     1      -3.184   0.561  24.672  0.00  0.00    -0.272 N 
ATOM     13  C   UNL     1      -3.988   0.418  24.790  0.00  0.00    +0.115 C 
ATOM     14  C   UNL     1      -4.499   1.045  24.951  0.00  0.00    +0.116 C 
ATOM     15  N   UNL     1      -4.208   1.815  24.992  0.00  0.00    -0.266 N 
ATOM     16  C   UNL     1      -3.404   1.958  24.874  0.00  0.00    +0.174 C 
ATOM     17  C   UNL     1      -2.892   1.332  24.714  0.00  0.00    +0.123 C 
ATOM     32  C   UNL     1      -4.719   2.443  25.152  0.00  0.00    +0.255 C 
ATOM     33  O   UNL     1      -4.427   3.213  25.194  0.00  0.00    -0.269 OA
ENDROOT
BRANCH  10   7
ATOM      4  C   UNL     1      -3.550  -2.377  24.387  0.00  0.00    +0.048 A 
ATOM      5  C   UNL     1      -3.146  -2.125  25.060  0.00  0.00    +0.015 A 
ATOM      6  C   UNL     1      -2.853  -1.355  25.102  0.00  0.00    +0.006 A 
ATOM      7  C   UNL     1      -2.965  -0.837  24.470  0.00  0.00    +0.054 A 
ATOM      8  C   UNL     1      -3.369  -1.088  23.796  0.00  0.00    +0.006 A 
ATOM      9  C   UNL     1      -3.662  -1.859  23.755  0.00  0.00    +0.015 A 
BRANCH   4   2
ATOM      1  C   UNL     1      -3.539  -3.731  24.841  0.00  0.00    +0.112 C 
ATOM      2  N   UNL     1      -3.842  -3.147  24.345  0.00  0.00    -0.304 N 
ATOM      3  C   UNL     1      -4.438  -3.333  23.805  0.00  0.00    +0.112 C 
ENDBRANCH   4   2
ENDBRANCH  10   7
BRANCH  32  34
ATOM     34  C   UNL     1      -5.523   2.300  25.271  0.00  0.00    +0.083 A 
ATOM     35  C   UNL     1      -6.071   2.103  24.687  0.00  0.00    +0.012 A 
ATOM     36  C   UNL     1      -6.807   2.010  25.049  0.00  0.00    +0.008 A 
ATOM     37  C   UNL     1      -6.713   2.148  25.857  0.00  0.00    +0.036 A 
ATOM     38  S   UNL     1      -5.919   2.327  25.994  0.00  0.00    -0.082 S 
ENDBRANCH  32  34
BRANCH  16  18
ATOM     18  C   UNL     1      -3.111   2.729  24.916  0.00  0.00    +0.262 C 
ATOM     19  O   UNL     1      -3.444   3.323  24.449  0.00  0.00    -0.271 OA
ATOM     20  N   UNL     1      -2.486   2.906  25.424  0.00  0.00    -0.196 NA
BRANCH  20  21
ATOM     21  C   UNL     1      -2.193   3.677  25.465  0.00  0.00    +0.174 C 
BRANCH  21  29
ATOM     29  C   UNL     1      -2.518   4.213  26.002  0.00  0.00    +0.281 C 
ATOM     30  N   UNL     1      -2.676   4.987  25.766  0.00  0.00    -0.086 NA
ATOM     31  O   UNL     1      -2.685   3.974  26.773  0.00  0.00    -0.270 OA
ENDBRANCH  21  29
BRANCH  21  22
ATOM     22  C   UNL     1      -1.576   3.910  24.971  0.00  0.00    +0.031 C 
BRANCH  22  23
ATOM     23  C   UNL     1      -0.853   3.511  24.996  0.00  0.00    +0.002 C 
ATOM     24  C   UNL     1      -0.460   3.326  24.296  0.00  0.00    +0.000 C 
ATOM     25  C   UNL     1       0.263   2.927  24.321  0.00  0.00    +0.000 C 
ATOM     26  C   UNL     1       0.590   2.713  25.048  0.00  0.00    +0.000 C 
ATOM     27  C   UNL     1       0.195   2.898  25.748  0.00  0.00    +0.000 C 
ATOM     28  C   UNL     1      -0.526   3.296  25.723  0.00  0.00    +0.000 C 
ENDBRANCH  22  23
ENDBRANCH  21  22
ENDBRANCH  20  21
ENDBRANCH  16  18
TORSDOF 8
ENDMDL
MODEL 8
REMARK VINA RESULT:      -7.8      1.559      3.903
REMARK  Name = 
REMARK  8 active torsions:
REMARK  status: ('A' for Active; 'I' for Inactive)
REMARK    1  A    between atoms: N_2  and  C_4
REMARK    2  A    between atoms: C_7  and  C_10
REMARK    3  A    between atoms: C_16  and  C_18
REMARK    4  A    between atoms: N_20  and  C_21
REMARK    5  A    between atoms: C_21  and  C_22
REMARK    6  A    between atoms: C_21  and  C_29
REMARK    7  A    between atoms: C_22  and  C_23
REMARK    8  A    between atoms: C_32  and  C_34
REMARK                            x       y       z     vdW  Elec       q    Type
REMARK                         _______ _______ _______ _____ _____    ______ ____
ROOT
ATOM     10  C   UNL     1      -2.017   2.241  25.433  0.00  0.00    +0.249 C 
ATOM     11  O   UNL     1      -2.663   2.062  25.914  0.00  0.00    -0.270 OA
ATOM     12  N   UNL     1      -1.574   1.634  25.094  0.00  0.00    -0.272 N 
ATOM     13  C   UNL     1      -0.928   1.814  24.613  0.00  0.00    +0.115 C 
ATOM     14  C   UNL     1      -0.485   1.205  24.274  0.00  0.00    +0.116 C 
ATOM     15  N   UNL     1      -0.687   0.419  24.415  0.00  0.00    -0.266 N 
ATOM     16  C   UNL     1      -1.334   0.240  24.896  0.00  0.00    +0.174 C 
ATOM     17  C   UNL     1      -1.777   0.847  25.235  0.00  0.00    +0.123 C 
ATOM     32  C   UNL     1      -0.245  -0.189  24.076  0.00  0.00    +0.255 C 
ATOM     33  O   UNL     1      -0.447  -0.976  24.218  0.00  0.00    -0.269 OA
ENDROOT
BRANCH  10   7
ATOM      4  C   UNL     1      -1.407   4.603  25.008  0.00  0.00    +0.048 A 
ATOM      5  C   UNL     1      -2.037   4.259  24.601  0.00  0.00    +0.015 A 
ATOM      6  C   UNL     1      -2.241   3.473  24.742  0.00  0.00    +0.006 A 
ATOM      7  C   UNL     1      -1.814   3.029  25.291  0.00  0.00    +0.054 A 
ATOM      8  C   UNL     1      -1.184   3.371  25.699  0.00  0.00    +0.006 A 
ATOM      9  C   UNL     1      -0.981   4.159  25.557  0.00  0.00    +0.015 A 
BRANCH   4   2
ATOM      1  C   UNL     1      -1.735   5.992  25.053  0.00  0.00    +0.112 C 
ATOM      2  N   UNL     1      -1.204   5.389  24.867  0.00  0.00    -0.304 N 
ATOM      3  C   UNL     1      -0.470   5.573  24.540  0.00  0.00    +0.112 C 
ENDBRANCH   4   2
ENDBRANCH  10   7
BRANCH  32  34
ATOM     34  C   UNL     1       0.401  -0.010  23.596  0.00  0.00    +0.083 A 
ATOM     35  C   UNL     1       1.082   0.395  23.829  0.00  0.00    +0.012 A 
ATOM     36  C   UNL     1       1.582   0.451  23.175  0.00  0.00    +0.008 A 
ATOM     37  C   UNL     1       1.210   0.081  22.538  0.00  0.00    +0.036 A 
ATOM     38  S   UNL     1       0.481  -0.204  22.798  0.00  0.00    -0.082 S 
ENDBRANCH  32  34
BRANCH  16  18
ATOM     18  C   UNL     1      -1.537  -0.548  25.038  0.00  0.00    +0.262 C 
ATOM     19  O   UNL     1      -0.947  -1.107  25.181  0.00  0.00    -0.271 OA
ATOM     20  N   UNL     1      -2.330  -0.775  25.036  0.00  0.00    -0.196 NA
BRANCH  20  21
ATOM     21  C   UNL     1      -2.533  -1.563  25.178  0.00  0.00    +0.174 C 
BRANCH  21  29
ATOM     29  C   UNL     1      -2.664  -1.823  25.950  0.00  0.00    +0.281 C 
ATOM     30  N   UNL     1      -3.145  -1.386  26.456  0.00  0.00    -0.086 NA
ATOM     31  O   UNL     1      -2.312  -2.521  26.214  0.00  0.00    -0.270 OA
ENDBRANCH  21  29
BRANCH  21  22
ATOM     22  C   UNL     1      -2.605  -2.090  24.547  0.00  0.00    +0.031 C 
BRANCH  22  23
ATOM     23  C   UNL     1      -3.344  -2.222  24.203  0.00  0.00    +0.002 C 
ATOM     24  C   UNL     1      -3.632  -2.992  24.131  0.00  0.00    +0.000 C 
ATOM     25  C   UNL     1      -4.371  -3.125  23.787  0.00  0.00    +0.000 C 
ATOM     26  C   UNL     1      -4.821  -2.488  23.517  0.00  0.00    +0.000 C 
ATOM     27  C   UNL     1      -4.532  -1.719  23.590  0.00  0.00    +0.000 C 
ATOM     28  C   UNL     1      -3.794  -1.586  23.933  0.00  0.00    +0.000 C 
ENDBRANCH  22  23
ENDBRANCH  21  22
ENDBRANCH  20  21
ENDBRANCH  16  18
TORSDOF 8
ENDMDL
