MODEL 1
REMARK VINA RESULT:     -10.5      0.000      0.000
REMARK  Name = 
REMARK  7 active torsions:
REMARK  status: ('A' for Active; 'I' for Inactive)
REMARK    1  A    between atoms: O_2  and  C_3
REMARK    2  A    between atoms: C_8  and  O_9
REMARK    3  A    between atoms: C_11  and  C_12
REMARK    4  A    between atoms: C_12  and  C_13
REMARK    5  A    between atoms: C_18  and  C_19
REMARK    6  A    between atoms: C_19  and  C_20
REMARK    7  A    between atoms: C_23  and  C_25
REMARK                            x       y       z     vdW  Elec       q    Type
REMARK                         _______ _______ _______ _____ _____    ______ ____
ROOT
ATOM     13  C   UNL     1      -3.596   2.291  25.062  0.00  0.00    +0.026 C 
ATOM     14  C   UNL     1      -3.091   2.908  25.271  0.00  0.00    +0.094 C 
ATOM     15  N   UNL     1      -3.402   3.621  25.548  0.00  0.00    -0.280 N 
ATOM     16  C   UNL     1      -4.218   3.716  25.615  0.00  0.00    +0.093 C 
ATOM     17  C   UNL     1      -4.724   3.099  25.407  0.00  0.00    +0.022 C 
ATOM     18  C   UNL     1      -4.413   2.386  25.130  0.00  0.00    +0.015 C 
ATOM     23  C   UNL     1      -2.896   4.239  25.756  0.00  0.00    +0.225 C 
ATOM     24  O   UNL     1      -3.207   4.951  26.033  0.00  0.00    -0.275 OA
ENDROOT
BRANCH  23  25
ATOM     25  C   UNL     1      -2.079   4.143  25.688  0.00  0.00    +0.069 C 
ATOM     26  C   UNL     1      -1.263   4.048  25.619  0.00  0.00    +0.009 C 
ATOM     27  C   UNL     1      -2.090   4.566  24.979  0.00  0.00    +0.009 C 
ATOM     28  C   UNL     1      -2.069   3.721  26.396  0.00  0.00    +0.009 C 
ENDBRANCH  23  25
BRANCH  13  12
ATOM     12  C   UNL     1      -3.285   1.579  24.786  0.00  0.00    +0.047 C 
BRANCH  12  11
ATOM      3  C   UNL     1      -0.744   0.239  24.012  0.00  0.00    +0.172 A 
ATOM      4  C   UNL     1      -0.988   0.668  23.351  0.00  0.00    +0.036 A 
ATOM      5  C   UNL     1      -1.684   1.110  23.378  0.00  0.00    -0.016 A 
ATOM      6  C   UNL     1      -2.138   1.124  24.068  0.00  0.00    +0.012 A 
ATOM      7  C   UNL     1      -1.894   0.695  24.730  0.00  0.00    +0.041 A 
ATOM      8  C   UNL     1      -1.198   0.252  24.702  0.00  0.00    +0.172 A 
ATOM     11  C   UNL     1      -2.833   1.566  24.096  0.00  0.00    +0.054 C 
ATOM     29  N   UNL     1      -3.076   1.994  23.435  0.00  0.00    -0.274 NA
ATOM     30  C   UNL     1      -2.623   1.981  22.745  0.00  0.00    +0.130 C 
ATOM     31  C   UNL     1      -1.928   1.539  22.717  0.00  0.00    +0.053 C 
BRANCH   3   2
ATOM      1  C   UNL     1       0.483  -0.096  23.364  0.00  0.00    +0.253 C 
ATOM      2  O   UNL     1      -0.049  -0.203  23.984  0.00  0.00    -0.468 OA
ENDBRANCH   3   2
BRANCH   8   9
ATOM      9  O   UNL     1      -0.954  -0.176  25.363  0.00  0.00    -0.468 OA
ATOM     10  C   UNL     1      -1.500  -0.625  25.788  0.00  0.00    +0.253 C 
ENDBRANCH   8   9
ENDBRANCH  12  11
ENDBRANCH  13  12
BRANCH  18  19
ATOM     19  C   UNL     1      -4.919   1.769  24.922  0.00  0.00    +0.114 C 
BRANCH  19  20
ATOM     20  C   UNL     1      -5.702   1.773  25.179  0.00  0.00    +0.365 C 
ATOM     21  O   UNL     1      -5.887   1.526  25.945  0.00  0.00    -0.246 OA
ATOM     22  O   UNL     1      -6.303   2.023  24.670  0.00  0.00    -0.246 OA
ENDBRANCH  19  20
ENDBRANCH  18  19
TORSDOF 7
ENDMDL
MODEL 2
REMARK VINA RESULT:     -10.4      1.962      4.264
REMARK  Name = 
REMARK  7 active torsions:
REMARK  status: ('A' for Active; 'I' for Inactive)
REMARK    1  A    between atoms: O_2  and  C_3
REMARK    2  A    between atoms: C_8  and  O_9
REMARK    3  A    between atoms: C_11  and  C_12
REMARK    4  A    between atoms: C_12  and  C_13
REMARK    5  A    between atoms: C_18  and  C_19
REMARK    6  A    between atoms: C_19  and  C_20
REMARK    7  A    between atoms: C_23  and  C_25
REMARK                            x       y       z     vdW  Elec       q    Type
REMARK                         _______ _______ _______ _____ _____    ______ ____
ROOT
ATOM     13  C   UNL     1      -3.154  -0.519  24.580  0.00  0.00    +0.026 C 
ATOM     14  C   UNL     1      -2.409  -0.345  24.886  0.00  0.00    +0.094 C 
ATOM     15  N   UNL     1      -1.830  -0.932  24.922  0.00  0.00    -0.280 N 
ATOM     16  C   UNL     1      -1.997  -1.693  24.652  0.00  0.00    +0.093 C 
ATOM     17  C   UNL     1      -2.742  -1.867  24.346  0.00  0.00    +0.022 C 
ATOM     18  C   UNL     1      -3.321  -1.281  24.309  0.00  0.00    +0.015 C 
ATOM     23  C   UNL     1      -1.084  -0.757  25.229  0.00  0.00    +0.225 C 
ATOM     24  O   UNL     1      -0.506  -1.344  25.265  0.00  0.00    -0.275 OA
ENDROOT
BRANCH  23  25
ATOM     25  C   UNL     1      -0.918   0.004  25.500  0.00  0.00    +0.069 C 
ATOM     26  C   UNL     1      -0.751   0.766  25.769  0.00  0.00    +0.009 C 
ATOM     27  C   UNL     1      -0.546   0.177  24.783  0.00  0.00    +0.009 C 
ATOM     28  C   UNL     1      -1.289  -0.168  26.215  0.00  0.00    +0.009 C 
ENDBRANCH  23  25
BRANCH  13  12
ATOM     12  C   UNL     1      -3.733   0.067  24.544  0.00  0.00    +0.047 C 
BRANCH  12  11
ATOM      3  C   UNL     1      -4.615   2.897  24.804  0.00  0.00    +0.172 A 
ATOM      4  C   UNL     1      -4.147   2.864  24.126  0.00  0.00    +0.036 A 
ATOM      5  C   UNL     1      -3.809   2.149  23.890  0.00  0.00    -0.016 A 
ATOM      6  C   UNL     1      -3.940   1.465  24.335  0.00  0.00    +0.012 A 
ATOM      7  C   UNL     1      -4.408   1.498  25.013  0.00  0.00    +0.041 A 
ATOM      8  C   UNL     1      -4.746   2.213  25.248  0.00  0.00    +0.172 A 
ATOM     11  C   UNL     1      -3.602   0.750  24.100  0.00  0.00    +0.054 C 
ATOM     29  N   UNL     1      -3.134   0.718  23.422  0.00  0.00    -0.274 NA
ATOM     30  C   UNL     1      -3.003   1.402  22.978  0.00  0.00    +0.130 C 
ATOM     31  C   UNL     1      -3.341   2.116  23.212  0.00  0.00    +0.053 C 
BRANCH   3   2
ATOM      1  C   UNL     1      -4.520   4.311  24.979  0.00  0.00    +0.253 C 
ATOM      2  O   UNL     1      -4.952   3.612  25.039  0.00  0.00    -0.468 OA
ENDBRANCH   3   2
BRANCH   8   9
ATOM      9  O   UNL     1      -5.214   2.246  25.926  0.00  0.00    -0.468 OA
ATOM     10  C   UNL     1      -5.877   1.760  25.994  0.00  0.00    +0.253 C 
ENDBRANCH   8   9
ENDBRANCH  12  11
ENDBRANCH  13  12
BRANCH  18  19
ATOM     19  C   UNL     1      -4.067  -1.455  24.003  0.00  0.00    +0.114 C 
BRANCH  19  20
ATOM     20  C   UNL     1      -4.271  -2.236  23.834  0.00  0.00    +0.365 C 
ATOM     21  O   UNL     1      -4.391  -2.774  24.448  0.00  0.00    -0.246 OA
ATOM     22  O   UNL     1      -4.354  -2.480  23.049  0.00  0.00    -0.246 OA
ENDBRANCH  19  20
ENDBRANCH  18  19
TORSDOF 7
ENDMDL
MODEL 3
REMARK VINA RESULT:     -10.4      1.435      4.707
REMARK  Name = 
REMARK  7 active torsions:
REMARK  status: ('A' for Active; 'I' for Inactive)
REMARK    1  A    between atoms: O_2  and  C_3
REMARK    2  A    between atoms: C_8  and  O_9
REMARK    3  A    between atoms: C_11  and  C_12
REMARK    4  A    between atoms: C_12  and  C_13
REMARK    5  A    between atoms: C_18  and  C_19
REMARK    6  A    between atoms: C_19  and  C_20
REMARK    7  A    between atoms: C_23  and  C_25
REMARK                            x       y       z     vdW  Elec       q    Type
REMARK                         _______ _______ _______ _____ _____    ______ ____
ROOT
ATOM     13  C   UNL     1      -1.540   1.057  24.640  0.00  0.00    +0.026 C 
ATOM     14  C   UNL     1      -1.979   0.387  24.835  0.00  0.00    +0.094 C 
ATOM     15  N   UNL     1      -1.637  -0.362  24.775  0.00  0.00    -0.280 N 
ATOM     16  C   UNL     1      -0.857  -0.439  24.519  0.00  0.00    +0.093 C 
ATOM     17  C   UNL     1      -0.418   0.230  24.324  0.00  0.00    +0.022 C 
ATOM     18  C   UNL     1      -0.759   0.979  24.384  0.00  0.00    +0.015 C 
ATOM     23  C   UNL     1      -2.076  -1.033  24.970  0.00  0.00    +0.225 C 
ATOM     24  O   UNL     1      -1.734  -1.781  24.909  0.00  0.00    -0.275 OA
ENDROOT
BRANCH  23  25
ATOM     25  C   UNL     1      -2.857  -0.954  25.225  0.00  0.00    +0.069 C 
ATOM     26  C   UNL     1      -3.637  -0.876  25.480  0.00  0.00    +0.009 C 
ATOM     27  C   UNL     1      -3.123  -1.128  24.463  0.00  0.00    +0.009 C 
ATOM     28  C   UNL     1      -2.590  -0.781  25.986  0.00  0.00    +0.009 C 
ENDBRANCH  23  25
BRANCH  13  12
ATOM     12  C   UNL     1      -1.881   1.806  24.701  0.00  0.00    +0.047 C 
BRANCH  12  11
ATOM      3  C   UNL     1      -4.265   3.555  25.030  0.00  0.00    +0.172 A 
ATOM      4  C   UNL     1      -4.309   3.249  24.265  0.00  0.00    +0.036 A 
ATOM      5  C   UNL     1      -3.724   2.735  23.991  0.00  0.00    -0.016 A 
ATOM      6  C   UNL     1      -3.095   2.527  24.483  0.00  0.00    +0.012 A 
ATOM      7  C   UNL     1      -3.051   2.832  25.248  0.00  0.00    +0.041 A 
ATOM      8  C   UNL     1      -3.635   3.346  25.522  0.00  0.00    +0.172 A 
ATOM     11  C   UNL     1      -2.510   2.014  24.209  0.00  0.00    +0.054 C 
ATOM     29  N   UNL     1      -2.554   1.709  23.445  0.00  0.00    -0.274 NA
ATOM     30  C   UNL     1      -3.184   1.917  22.953  0.00  0.00    +0.130 C 
ATOM     31  C   UNL     1      -3.768   2.430  23.226  0.00  0.00    +0.053 C 
BRANCH   3   2
ATOM      1  C   UNL     1      -5.639   3.830  25.307  0.00  0.00    +0.253 C 
ATOM      2  O   UNL     1      -4.850   4.068  25.304  0.00  0.00    -0.468 OA
ENDBRANCH   3   2
BRANCH   8   9
ATOM      9  O   UNL     1      -3.591   3.651  26.287  0.00  0.00    -0.468 OA
ATOM     10  C   UNL     1      -2.910   4.042  26.537  0.00  0.00    +0.253 C 
ENDBRANCH   8   9
ENDBRANCH  12  11
ENDBRANCH  13  12
BRANCH  18  19
ATOM     19  C   UNL     1      -0.320   1.650  24.189  0.00  0.00    +0.114 C 
BRANCH  19  20
ATOM     20  C   UNL     1       0.495   1.658  24.309  0.00  0.00    +0.365 C 
ATOM     21  O   UNL     1       0.805   1.919  25.029  0.00  0.00    -0.246 OA
ATOM     22  O   UNL     1       1.004   1.405  23.710  0.00  0.00    -0.246 OA
ENDBRANCH  19  20
ENDBRANCH  18  19
TORSDOF 7
ENDMDL
MODEL 4
REMARK VINA RESULT:     -10.4      1.734      2.464
REMARK  Name = 
REMARK  7 active torsions:
REMARK  status: ('A' for Active; 'I' for Inactive)
REMARK    1  A    between atoms: O_2  and  C_3
REMARK    2  A    between atoms: C_8  and  O_9
REMARK    3  A    between atoms: C_11  and  C_12
REMARK    4  A    between atoms: C_12  and  C_13
REMARK    5  A    between atoms: C_18  and  C_19
REMARK    6  A    between atoms: C_19  and  C_20
REMARK    7  A    between atoms: C_23  and  C_25
REMARK                            x       y       z     vdW  Elec       q    Type
REMARK                         _______ _______ _______ _____ _____    ______ ____
ROOT
ATOM     13  C   UNL     1      -4.139   1.344  24.824  0.00  0.00    +0.026 C 
ATOM     14  C   UNL     1      -3.622   1.646  24.258  0.00  0.00    +0.094 C 
ATOM     15  N   UNL     1      -3.797   2.357  23.877  0.00  0.00    -0.280 N 
ATOM     16  C   UNL     1      -4.489   2.764  24.063  0.00  0.00    +0.093 C 
ATOM     17  C   UNL     1      -5.006   2.462  24.629  0.00  0.00    +0.022 C 
ATOM     18  C   UNL     1      -4.832   1.752  25.010  0.00  0.00    +0.015 C 
ATOM     23  C   UNL     1      -3.279   2.659  23.310  0.00  0.00    +0.225 C 
ATOM     24  O   UNL     1      -3.454   3.369  22.930  0.00  0.00    -0.275 OA
ENDROOT
BRANCH  23  25
ATOM     25  C   UNL     1      -2.586   2.251  23.125  0.00  0.00    +0.069 C 
ATOM     26  C   UNL     1      -1.895   1.842  22.938  0.00  0.00    +0.009 C 
ATOM     27  C   UNL     1      -2.960   1.917  22.468  0.00  0.00    +0.009 C 
ATOM     28  C   UNL     1      -2.214   2.584  23.780  0.00  0.00    +0.009 C 
ENDBRANCH  23  25
BRANCH  13  12
ATOM     12  C   UNL     1      -3.965   0.633  25.205  0.00  0.00    +0.047 C 
BRANCH  12  11
ATOM      3  C   UNL     1      -2.122  -1.699  25.071  0.00  0.00    +0.172 A 
ATOM      4  C   UNL     1      -2.741  -1.865  24.551  0.00  0.00    +0.036 A 
ATOM      5  C   UNL     1      -3.357  -1.324  24.454  0.00  0.00    -0.016 A 
ATOM      6  C   UNL     1      -3.353  -0.616  24.878  0.00  0.00    +0.012 A 
ATOM      7  C   UNL     1      -2.735  -0.450  25.398  0.00  0.00    +0.041 A 
ATOM      8  C   UNL     1      -2.119  -0.991  25.495  0.00  0.00    +0.172 A 
ATOM     11  C   UNL     1      -3.968  -0.075  24.781  0.00  0.00    +0.054 C 
ATOM     29  N   UNL     1      -4.586  -0.241  24.262  0.00  0.00    -0.274 NA
ATOM     30  C   UNL     1      -4.589  -0.950  23.837  0.00  0.00    +0.130 C 
ATOM     31  C   UNL     1      -3.974  -1.490  23.934  0.00  0.00    +0.053 C 
BRANCH   3   2
ATOM      1  C   UNL     1      -1.403  -2.847  24.620  0.00  0.00    +0.253 C 
ATOM      2  O   UNL     1      -1.508  -2.240  25.167  0.00  0.00    -0.468 OA
ENDBRANCH   3   2
BRANCH   8   9
ATOM      9  O   UNL     1      -1.501  -0.825  26.015  0.00  0.00    -0.468 OA
ATOM     10  C   UNL     1      -1.046  -0.145  25.911  0.00  0.00    +0.253 C 
ENDBRANCH   8   9
ENDBRANCH  12  11
ENDBRANCH  13  12
BRANCH  18  19
ATOM     19  C   UNL     1      -5.350   1.449  25.577  0.00  0.00    +0.114 C 
BRANCH  19  20
ATOM     20  C   UNL     1      -5.980   1.908  25.845  0.00  0.00    +0.365 C 
ATOM     21  O   UNL     1      -6.708   1.876  25.459  0.00  0.00    -0.246 OA
ATOM     22  O   UNL     1      -5.883   2.399  26.502  0.00  0.00    -0.246 OA
ENDBRANCH  19  20
ENDBRANCH  18  19
TORSDOF 7
ENDMDL
MODEL 5
REMARK VINA RESULT:     -10.3      1.767      2.158
REMARK  Name = 
REMARK  7 active torsions:
REMARK  status: ('A' for Active; 'I' for Inactive)
REMARK    1  A    between atoms: O_2  and  C_3
REMARK    2  A    between atoms: C_8  and  O_9
REMARK    3  A    between atoms: C_11  and  C_12
REMARK    4  A    between atoms: C_12  and  C_13
REMARK    5  A    between atoms: C_18  and  C_19
REMARK    6  A    between atoms: C_19  and  C_20
REMARK    7  A    between atoms: C_23  and  C_25
REMARK                            x       y       z     vdW  Elec       q    Type
REMARK                         _______ _______ _______ _____ _____    ______ ____
ROOT
ATOM     13  C   UNL     1      -3.232   2.478  25.236  0.00  0.00    +0.026 C 
ATOM     14  C   UNL     1      -2.419   2.610  25.244  0.00  0.00    +0.094 C 
ATOM     15  N   UNL     1      -2.126   3.380  25.302  0.00  0.00    -0.280 N 
ATOM     16  C   UNL     1      -2.649   4.016  25.352  0.00  0.00    +0.093 C 
ATOM     17  C   UNL     1      -3.462   3.884  25.344  0.00  0.00    +0.022 C 
ATOM     18  C   UNL     1      -3.755   3.115  25.286  0.00  0.00    +0.015 C 
ATOM     23  C   UNL     1      -1.312   3.512  25.310  0.00  0.00    +0.225 C 
ATOM     24  O   UNL     1      -1.020   4.281  25.369  0.00  0.00    -0.275 OA
ENDROOT
BRANCH  23  25
ATOM     25  C   UNL     1      -0.790   2.875  25.260  0.00  0.00    +0.069 C 
ATOM     26  C   UNL     1      -0.269   2.238  25.208  0.00  0.00    +0.009 C 
ATOM     27  C   UNL     1      -0.699   3.015  24.451  0.00  0.00    +0.009 C 
ATOM     28  C   UNL     1      -0.882   2.735  26.067  0.00  0.00    +0.009 C 
ENDBRANCH  23  25
BRANCH  13  12
ATOM     12  C   UNL     1      -3.525   1.709  25.177  0.00  0.00    +0.047 C 
BRANCH  12  11
ATOM      3  C   UNL     1      -3.607  -1.174  24.447  0.00  0.00    +0.172 A 
ATOM      4  C   UNL     1      -3.501  -0.761  23.740  0.00  0.00    +0.036 A 
ATOM      5  C   UNL     1      -3.454   0.062  23.745  0.00  0.00    -0.016 A 
ATOM      6  C   UNL     1      -3.513   0.474  24.459  0.00  0.00    +0.012 A 
ATOM      7  C   UNL     1      -3.619   0.061  25.165  0.00  0.00    +0.041 A 
ATOM      8  C   UNL     1      -3.666  -0.762  25.160  0.00  0.00    +0.172 A 
ATOM     11  C   UNL     1      -3.466   1.297  24.465  0.00  0.00    +0.054 C 
ATOM     29  N   UNL     1      -3.360   1.709  23.758  0.00  0.00    -0.274 NA
ATOM     30  C   UNL     1      -3.301   1.297  23.045  0.00  0.00    +0.130 C 
ATOM     31  C   UNL     1      -3.348   0.474  23.039  0.00  0.00    +0.053 C 
BRANCH   3   2
ATOM      1  C   UNL     1      -4.031  -2.385  23.819  0.00  0.00    +0.253 C 
ATOM      2  O   UNL     1      -3.654  -1.997  24.441  0.00  0.00    -0.468 OA
ENDBRANCH   3   2
BRANCH   8   9
ATOM      9  O   UNL     1      -3.772  -1.174  25.866  0.00  0.00    -0.468 OA
ATOM     10  C   UNL     1      -3.184  -1.160  26.444  0.00  0.00    +0.253 C 
ENDBRANCH   8   9
ENDBRANCH  12  11
ENDBRANCH  13  12
BRANCH  18  19
ATOM     19  C   UNL     1      -4.569   2.983  25.278  0.00  0.00    +0.114 C 
BRANCH  19  20
ATOM     20  C   UNL     1      -5.074   3.498  25.676  0.00  0.00    +0.365 C 
ATOM     21  O   UNL     1      -5.287   3.347  26.459  0.00  0.00    -0.246 OA
ATOM     22  O   UNL     1      -5.368   4.167  25.291  0.00  0.00    -0.246 OA
ENDBRANCH  19  20
ENDBRANCH  18  19
TORSDOF 7
ENDMDL
MODEL 6
REMARK VINA RESULT:     -10.2      1.802      3.128
REMARK  Name = 
REMARK  7 active torsions:
REMARK  status: ('A' for Active; 'I' for Inactive)
REMARK    1  A    between atoms: O_2  and  C_3
REMARK    2  A    between atoms: C_8  and  O_9
REMARK    3  A    between atoms: C_11  and  C_12
REMARK    4  A    between atoms: C_12  and  C_13
REMARK    5  A    between atoms: C_18  and  C_19
REMARK    6  A    between atoms: C_19  and  C_20
REMARK    7  A    between atoms: C_23  and  C_25
REMARK                            x       y       z     vdW  Elec       q    Type
REMARK                         _______ _______ _______ _____ _____    ______ ____
ROOT
ATOM     13  C   UNL     1      -1.988   2.191  25.288  0.00  0.00    +0.026 C 
ATOM     14  C   UNL     1      -2.627   2.707  25.351  0.00  0.00    +0.094 C 
ATOM     15  N   UNL     1      -2.497   3.511  25.489  0.00  0.00    -0.280 N 
ATOM     16  C   UNL     1      -1.727   3.797  25.562  0.00  0.00    +0.093 C 
ATOM     17  C   UNL     1      -1.088   3.281  25.499  0.00  0.00    +0.022 C 
ATOM     18  C   UNL     1      -1.217   2.478  25.361  0.00  0.00    +0.015 C 
ATOM     23  C   UNL     1      -3.138   4.027  25.553  0.00  0.00    +0.225 C 
ATOM     24  O   UNL     1      -3.008   4.830  25.690  0.00  0.00    -0.275 OA
ENDROOT
BRANCH  23  25
ATOM     25  C   UNL     1      -3.908   3.740  25.479  0.00  0.00    +0.069 C 
ATOM     26  C   UNL     1      -4.677   3.453  25.404  0.00  0.00    +0.009 C 
ATOM     27  C   UNL     1      -3.914   3.962  24.684  0.00  0.00    +0.009 C 
ATOM     28  C   UNL     1      -3.901   3.518  26.273  0.00  0.00    +0.009 C 
ENDBRANCH  23  25
BRANCH  13  12
ATOM     12  C   UNL     1      -2.117   1.388  25.151  0.00  0.00    +0.047 C 
BRANCH  12  11
ATOM      3  C   UNL     1      -3.890  -0.887  24.421  0.00  0.00    +0.172 A 
ATOM      4  C   UNL     1      -3.769  -0.458  23.726  0.00  0.00    +0.036 A 
ATOM      5  C   UNL     1      -3.296   0.218  23.734  0.00  0.00    -0.016 A 
ATOM      6  C   UNL     1      -2.943   0.466  24.439  0.00  0.00    +0.012 A 
ATOM      7  C   UNL     1      -3.063   0.037  25.133  0.00  0.00    +0.041 A 
ATOM      8  C   UNL     1      -3.536  -0.639  25.125  0.00  0.00    +0.172 A 
ATOM     11  C   UNL     1      -2.470   1.141  24.447  0.00  0.00    +0.054 C 
ATOM     29  N   UNL     1      -2.350   1.569  23.753  0.00  0.00    -0.274 NA
ATOM     30  C   UNL     1      -2.703   1.321  23.049  0.00  0.00    +0.130 C 
ATOM     31  C   UNL     1      -3.176   0.646  23.040  0.00  0.00    +0.053 C 
BRANCH   3   2
ATOM      1  C   UNL     1      -4.407  -2.026  23.732  0.00  0.00    +0.253 C 
ATOM      2  O   UNL     1      -4.363  -1.562  24.412  0.00  0.00    -0.468 OA
ENDBRANCH   3   2
BRANCH   8   9
ATOM      9  O   UNL     1      -3.657  -1.067  25.819  0.00  0.00    -0.468 OA
ATOM     10  C   UNL     1      -3.018  -1.250  26.307  0.00  0.00    +0.253 C 
ENDBRANCH   8   9
ENDBRANCH  12  11
ENDBRANCH  13  12
BRANCH  18  19
ATOM     19  C   UNL     1      -0.577   1.962  25.298  0.00  0.00    +0.114 C 
BRANCH  19  20
ATOM     20  C   UNL     1       0.191   2.241  25.412  0.00  0.00    +0.365 C 
ATOM     21  O   UNL     1       0.671   2.407  24.763  0.00  0.00    -0.246 OA
ATOM     22  O   UNL     1       0.479   2.354  26.178  0.00  0.00    -0.246 OA
ENDBRANCH  19  20
ENDBRANCH  18  19
TORSDOF 7
ENDMDL
MODEL 7
REMARK VINA RESULT:     -10.0      1.833      5.011
REMARK  Name = 
REMARK  7 active torsions:
REMARK  status: ('A' for Active; 'I' for Inactive)
REMARK    1  A    between atoms: O_2  and  C_3
REMARK    2  A    between atoms: C_8  and  O_9
REMARK    3  A    between atoms: C_11  and  C_12
REMARK    4  A    between atoms: C_12  and  C_13
REMARK    5  A    between atoms: C_18  and  C_19
REMARK    6  A    between atoms: C_19  and  C_20
REMARK    7  A    between atoms: C_23  and  C_25
REMARK                            x       y       z     vdW  Elec       q    Type
REMARK                         _______ _______ _______ _____ _____    ______ ____
ROOT
ATOM     13  C   UNL     1      -0.882   0.330  24.189  0.00  0.00    +0.026 C 
ATOM     14  C   UNL     1      -1.447  -0.129  24.575  0.00  0.00    +0.094 C 
ATOM     15  N   UNL     1      -1.343  -0.946  24.638  0.00  0.00    -0.280 N 
ATOM     16  C   UNL     1      -0.673  -1.302  24.314  0.00  0.00    +0.093 C 
ATOM     17  C   UNL     1      -0.108  -0.843  23.929  0.00  0.00    +0.022 C 
ATOM     18  C   UNL     1      -0.211  -0.027  23.865  0.00  0.00    +0.015 C 
ATOM     23  C   UNL     1      -1.909  -1.405  25.024  0.00  0.00    +0.225 C 
ATOM     24  O   UNL     1      -1.804  -2.221  25.087  0.00  0.00    -0.275 OA
ENDROOT
BRANCH  23  25
ATOM     25  C   UNL     1      -2.579  -1.048  25.348  0.00  0.00    +0.069 C 
ATOM     26  C   UNL     1      -3.248  -0.691  25.672  0.00  0.00    +0.009 C 
ATOM     27  C   UNL     1      -2.204  -1.013  26.083  0.00  0.00    +0.009 C 
ATOM     28  C   UNL     1      -2.952  -1.084  24.614  0.00  0.00    +0.009 C 
ENDBRANCH  23  25
BRANCH  13  12
ATOM     12  C   UNL     1      -0.986   1.146  24.126  0.00  0.00    +0.047 C 
BRANCH  12  11
ATOM      3  C   UNL     1      -2.473   3.518  25.133  0.00  0.00    +0.172 A 
ATOM      4  C   UNL     1      -1.882   3.365  25.688  0.00  0.00    +0.036 A 
ATOM      5  C   UNL     1      -1.362   2.734  25.576  0.00  0.00    -0.016 A 
ATOM      6  C   UNL     1      -1.433   2.255  24.907  0.00  0.00    +0.012 A 
ATOM      7  C   UNL     1      -2.024   2.408  24.352  0.00  0.00    +0.041 A 
ATOM      8  C   UNL     1      -2.544   3.039  24.464  0.00  0.00    +0.172 A 
ATOM     11  C   UNL     1      -0.914   1.624  24.794  0.00  0.00    +0.054 C 
ATOM     29  N   UNL     1      -0.324   1.471  25.349  0.00  0.00    -0.274 NA
ATOM     30  C   UNL     1      -0.253   1.951  26.018  0.00  0.00    +0.130 C 
ATOM     31  C   UNL     1      -0.772   2.581  26.131  0.00  0.00    +0.053 C 
BRANCH   3   2
ATOM      1  C   UNL     1      -3.013   4.541  25.970  0.00  0.00    +0.253 C 
ATOM      2  O   UNL     1      -2.992   4.148  25.245  0.00  0.00    -0.468 OA
ENDBRANCH   3   2
BRANCH   8   9
ATOM      9  O   UNL     1      -3.134   3.191  23.909  0.00  0.00    -0.468 OA
ATOM     10  C   UNL     1      -3.603   2.575  23.625  0.00  0.00    +0.253 C 
ENDBRANCH   8   9
ENDBRANCH  12  11
ENDBRANCH  13  12
BRANCH  18  19
ATOM     19  C   UNL     1       0.355   0.433  23.479  0.00  0.00    +0.114 C 
BRANCH  19  20
ATOM     20  C   UNL     1       0.909   0.075  22.985  0.00  0.00    +0.365 C 
ATOM     21  O   UNL     1       0.695  -0.155  22.222  0.00  0.00    -0.246 OA
ATOM     22  O   UNL     1       1.679  -0.055  23.254  0.00  0.00    -0.246 OA
ENDBRANCH  19  20
ENDBRANCH  18  19
TORSDOF 7
ENDMDL
MODEL 8
REMARK VINA RESULT:      -9.9      1.763      3.082
REMARK  Name = 
REMARK  7 active torsions:
REMARK  status: ('A' for Active; 'I' for Inactive)
REMARK    1  A    between atoms: O_2  and  C_3
REMARK    2  A    between atoms: C_8  and  O_9
REMARK    3  A    between atoms: C_11  and  C_12
REMARK    4  A    between atoms: C_12  and  C_13
REMARK    5  A    between atoms: C_18  and  C_19
REMARK    6  A    between atoms: C_19  and  C_20
REMARK    7  A    between atoms: C_23  and  C_25
REMARK                            x       y       z     vdW  Elec       q    Type
REMARK                         _______ _______ _______ _____ _____    ______ ____
ROOT
ATOM     13  C   UNL     1      -3.608   0.853  24.896  0.00  0.00    +0.026 C 
ATOM     14  C   UNL     1      -4.171   1.445  25.002  0.00  0.00    +0.094 C 
ATOM     15  N   UNL     1      -4.974   1.253  25.019  0.00  0.00    -0.280 N 
ATOM     16  C   UNL     1      -5.212   0.468  24.930  0.00  0.00    +0.093 C 
ATOM     17  C   UNL     1      -4.649  -0.124  24.824  0.00  0.00    +0.022 C 
ATOM     18  C   UNL     1      -3.846   0.067  24.806  0.00  0.00    +0.015 C 
ATOM     23  C   UNL     1      -5.538   1.845  25.126  0.00  0.00    +0.225 C 
ATOM     24  O   UNL     1      -6.340   1.653  25.143  0.00  0.00    -0.275 OA
ENDROOT
BRANCH  23  25
ATOM     25  C   UNL     1      -5.299   2.630  25.215  0.00  0.00    +0.069 C 
ATOM     26  C   UNL     1      -5.060   3.414  25.305  0.00  0.00    +0.009 C 
ATOM     27  C   UNL     1      -5.221   2.513  26.028  0.00  0.00    +0.009 C 
ATOM     28  C   UNL     1      -5.378   2.747  24.403  0.00  0.00    +0.009 C 
ENDBRANCH  23  25
BRANCH  13  12
ATOM     12  C   UNL     1      -2.806   1.044  24.878  0.00  0.00    +0.047 C 
BRANCH  12  11
ATOM      3  C   UNL     1      -0.849   3.283  24.786  0.00  0.00    +0.172 A 
ATOM      4  C   UNL     1      -1.104   3.169  24.010  0.00  0.00    +0.036 A 
ATOM      5  C   UNL     1      -1.657   2.581  23.838  0.00  0.00    -0.016 A 
ATOM      6  C   UNL     1      -1.955   2.106  24.444  0.00  0.00    +0.012 A 
ATOM      7  C   UNL     1      -1.701   2.220  25.220  0.00  0.00    +0.041 A 
ATOM      8  C   UNL     1      -1.148   2.808  25.392  0.00  0.00    +0.172 A 
ATOM     11  C   UNL     1      -2.508   1.519  24.273  0.00  0.00    +0.054 C 
ATOM     29  N   UNL     1      -2.762   1.405  23.497  0.00  0.00    -0.274 NA
ATOM     30  C   UNL     1      -2.463   1.880  22.891  0.00  0.00    +0.130 C 
ATOM     31  C   UNL     1      -1.911   2.467  23.062  0.00  0.00    +0.053 C 
BRANCH   3   2
ATOM      1  C   UNL     1      -0.401   4.633  24.661  0.00  0.00    +0.253 C 
ATOM      2  O   UNL     1      -0.297   3.871  24.957  0.00  0.00    -0.468 OA
ENDBRANCH   3   2
BRANCH   8   9
ATOM      9  O   UNL     1      -0.894   2.922  26.168  0.00  0.00    -0.468 OA
ATOM     10  C   UNL     1      -0.441   2.344  26.543  0.00  0.00    +0.253 C 
ENDBRANCH   8   9
ENDBRANCH  12  11
ENDBRANCH  13  12
BRANCH  18  19
ATOM     19  C   UNL     1      -3.283  -0.526  24.700  0.00  0.00    +0.114 C 
BRANCH  19  20
ATOM     20  C   UNL     1      -3.490  -1.316  24.809  0.00  0.00    +0.365 C 
ATOM     21  O   UNL     1      -3.730  -1.773  24.166  0.00  0.00    -0.246 OA
ATOM     22  O   UNL     1      -3.457  -1.651  25.564  0.00  0.00    -0.246 OA
ENDBRANCH  19  20
ENDBRANCH  18  19
TORSDOF 7
ENDMDL
MODEL 9
REMARK VINA RESULT:      -9.9      1.637      2.981
REMARK  Name = 
REMARK  7 active torsions:
REMARK  status: ('A' for Active; 'I' for Inactive)
REMARK    1  A    between atoms: O_2  and  C_3
REMARK    2  A    between atoms: C_8  and  O_9
REMARK    3  A    between atoms: C_11  and  C_12
REMARK    4  A    between atoms: C_12  and  C_13
REMARK    5  A    between atoms: C_18  and  C_19
REMARK    6  A    between atoms: C_19  and  C_20
REMARK    7  A    between atoms: C_23  and  C_25
REMARK                            x       y       z     vdW  Elec       q    Type
REMARK                         _______ _______ _______ _____ _____    ______ ____
ROOT
ATOM     13  C   UNL     1      -3.716   1.469  24.926  0.00  0.00    +0.026 C 
ATOM     14  C   UNL     1      -3.685   0.653  24.819  0.00  0.00    +0.094 C 
ATOM     15  N   UNL     1      -4.382   0.210  24.824  0.00  0.00    -0.280 N 
ATOM     16  C   UNL     1      -5.108   0.585  24.936  0.00  0.00    +0.093 C 
ATOM     17  C   UNL     1      -5.138   1.401  25.043  0.00  0.00    +0.022 C 
ATOM     18  C   UNL     1      -4.443   1.844  25.038  0.00  0.00    +0.015 C 
ATOM     23  C   UNL     1      -4.352  -0.608  24.717  0.00  0.00    +0.225 C 
ATOM     24  O   UNL     1      -5.047  -1.050  24.722  0.00  0.00    -0.275 OA
ENDROOT
BRANCH  23  25
ATOM     25  C   UNL     1      -3.625  -0.982  24.605  0.00  0.00    +0.069 C 
ATOM     26  C   UNL     1      -2.898  -1.356  24.492  0.00  0.00    +0.009 C 
ATOM     27  C   UNL     1      -3.752  -0.984  23.790  0.00  0.00    +0.009 C 
ATOM     28  C   UNL     1      -3.498  -0.980  25.420  0.00  0.00    +0.009 C 
ENDBRANCH  23  25
BRANCH  13  12
ATOM     12  C   UNL     1      -3.020   1.913  24.922  0.00  0.00    +0.047 C 
BRANCH  12  11
ATOM      3  C   UNL     1      -0.089   1.943  24.409  0.00  0.00    +0.172 A 
ATOM      4  C   UNL     1      -0.452   1.984  23.669  0.00  0.00    +0.036 A 
ATOM      5  C   UNL     1      -1.276   1.987  23.611  0.00  0.00    -0.016 A 
ATOM      6  C   UNL     1      -1.737   1.948  24.295  0.00  0.00    +0.012 A 
ATOM      7  C   UNL     1      -1.374   1.907  25.035  0.00  0.00    +0.041 A 
ATOM      8  C   UNL     1      -0.551   1.905  25.093  0.00  0.00    +0.172 A 
ATOM     11  C   UNL     1      -2.559   1.951  24.238  0.00  0.00    +0.054 C 
ATOM     29  N   UNL     1      -2.921   1.992  23.499  0.00  0.00    -0.274 NA
ATOM     30  C   UNL     1      -2.460   2.030  22.815  0.00  0.00    +0.130 C 
ATOM     31  C   UNL     1      -1.638   2.028  22.872  0.00  0.00    +0.053 C 
BRANCH   3   2
ATOM      1  C   UNL     1       1.186   1.583  23.878  0.00  0.00    +0.253 C 
ATOM      2  O   UNL     1       0.733   1.940  24.466  0.00  0.00    -0.468 OA
ENDBRANCH   3   2
BRANCH   8   9
ATOM      9  O   UNL     1      -0.189   1.864  25.832  0.00  0.00    -0.468 OA
ATOM     10  C   UNL     1      -0.368   2.423  26.411  0.00  0.00    +0.253 C 
ENDBRANCH   8   9
ENDBRANCH  12  11
ENDBRANCH  13  12
BRANCH  18  19
ATOM     19  C   UNL     1      -4.473   2.662  25.145  0.00  0.00    +0.114 C 
BRANCH  19  20
ATOM     20  C   UNL     1      -5.122   3.004  25.521  0.00  0.00    +0.365 C 
ATOM     21  O   UNL     1      -5.776   3.246  25.080  0.00  0.00    -0.246 OA
ATOM     22  O   UNL     1      -5.117   3.106  26.341  0.00  0.00    -0.246 OA
ENDBRANCH  19  20
ENDBRANCH  18  19
TORSDOF 7
ENDMDL
