MODEL 1
REMARK VINA RESULT:     -10.1      0.000      0.000
REMARK  Name = 
REMARK  5 active torsions:
REMARK  status: ('A' for Active; 'I' for Inactive)
REMARK    1  A    between atoms: C_3  and  C_4
REMARK    2  A    between atoms: C_4  and  N_5
REMARK    3  A    between atoms: C_6  and  C_8
REMARK    4  A    between atoms: C_13  and  N_14
REMARK    5  A    between atoms: N_14  and  C_15
REMARK                            x       y       z     vdW  Elec       q    Type
REMARK                         _______ _______ _______ _____ _____    ______ ____
ROOT
ATOM      1  O   UNL     1      -4.769   1.681  25.390  0.00  0.00    -0.219 OA
ATOM      2  C   UNL     1      -4.083   1.468  24.983  0.00  0.00    +0.199 C 
ATOM      3  C   UNL     1      -3.431   1.953  24.843  0.00  0.00    +0.169 C 
ATOM     11  O   UNL     1      -2.875   1.516  24.418  0.00  0.00    -0.350 OA
ATOM     12  C   UNL     1      -3.184   0.760  24.296  0.00  0.00    +0.162 C 
ATOM     13  C   UNL     1      -3.930   0.730  24.645  0.00  0.00    +0.135 C 
ENDROOT
BRANCH   3   4
ATOM      4  C   UNL     1      -3.350   2.737  25.085  0.00  0.00    +0.147 C 
BRANCH   4   5
ATOM      5  N   UNL     1      -2.629   3.128  24.982  0.00  0.00    -0.203 NA
ATOM      6  C   UNL     1      -2.521   3.882  25.298  0.00  0.00    +0.241 C 
ATOM      7  O   UNL     1      -3.132   4.247  25.716  0.00  0.00    -0.273 OA
BRANCH   6   8
ATOM      8  C   UNL     1      -1.801   4.272  25.195  0.00  0.00    +0.078 C 
ATOM      9  C   UNL     1      -1.377   4.972  25.092  0.00  0.00    +0.010 C 
ATOM     10  C   UNL     1      -0.981   4.249  25.121  0.00  0.00    +0.010 C 
ENDBRANCH   6   8
ENDBRANCH   4   5
ENDBRANCH   3   4
BRANCH  13  14
ATOM     14  N   UNL     1      -4.436   0.079  24.655  0.00  0.00    -0.216 NA
BRANCH  14  15
ATOM     15  C   UNL     1      -4.125  -0.685  24.679  0.00  0.00    +0.073 C 
ATOM     16  C   UNL     1      -4.137  -1.156  24.001  0.00  0.00    +0.017 C 
ATOM     17  C   UNL     1      -3.826  -1.919  24.024  0.00  0.00    +0.001 C 
ATOM     18  C   UNL     1      -3.502  -2.212  24.725  0.00  0.00    +0.000 C 
ATOM     19  C   UNL     1      -3.490  -1.741  25.402  0.00  0.00    +0.001 C 
ATOM     20  C   UNL     1      -3.801  -0.977  25.378  0.00  0.00    +0.017 C 
ENDBRANCH  14  15
ENDBRANCH  13  14
TORSDOF 5
ENDMDL
MODEL 2
REMARK VINA RESULT:      -9.3      1.525      5.128
REMARK  Name = 
REMARK  5 active torsions:
REMARK  status: ('A' for Active; 'I' for Inactive)
REMARK    1  A    between atoms: C_3  and  C_4
REMARK    2  A    between atoms: C_4  and  N_5
REMARK    3  A    between atoms: C_6  and  C_8
REMARK    4  A    between atoms: C_13  and  N_14
REMARK    5  A    between atoms: N_14  and  C_15
REMARK                            x       y       z     vdW  Elec       q    Type
REMARK                         _______ _______ _______ _____ _____    ______ ____
ROOT
ATOM      1  O   UNL     1      -0.657   0.792  25.757  0.00  0.00    -0.219 OA
ATOM      2  C   UNL     1      -1.313   1.111  25.370  0.00  0.00    +0.199 C 
ATOM      3  C   UNL     1      -1.854   0.694  24.907  0.00  0.00    +0.169 C 
ATOM     11  O   UNL     1      -2.418   1.229  24.630  0.00  0.00    -0.350 OA
ATOM     12  C   UNL     1      -2.225   1.977  24.923  0.00  0.00    +0.162 C 
ATOM     13  C   UNL     1      -1.543   1.904  25.380  0.00  0.00    +0.135 C 
ENDROOT
BRANCH   3   4
ATOM      4  C   UNL     1      -1.834  -0.115  24.749  0.00  0.00    +0.147 C 
BRANCH   4   5
ATOM      5  N   UNL     1      -2.539  -0.534  24.652  0.00  0.00    -0.203 NA
ATOM      6  C   UNL     1      -2.519  -1.344  24.503  0.00  0.00    +0.241 C 
ATOM      7  O   UNL     1      -1.796  -1.737  24.451  0.00  0.00    -0.273 OA
BRANCH   6   8
ATOM      8  C   UNL     1      -3.224  -1.763  24.406  0.00  0.00    +0.078 C 
ATOM      9  C   UNL     1      -3.983  -1.819  24.088  0.00  0.00    +0.010 C 
ATOM     10  C   UNL     1      -3.684  -2.430  24.556  0.00  0.00    +0.010 C 
ENDBRANCH   6   8
ENDBRANCH   4   5
ENDBRANCH   3   4
BRANCH  13  14
ATOM     14  N   UNL     1      -1.157   2.516  25.777  0.00  0.00    -0.216 NA
BRANCH  14  15
ATOM     15  C   UNL     1      -1.291   3.299  25.558  0.00  0.00    +0.073 C 
ATOM     16  C   UNL     1      -0.764   3.680  25.049  0.00  0.00    +0.017 C 
ATOM     17  C   UNL     1      -0.898   4.464  24.829  0.00  0.00    +0.001 C 
ATOM     18  C   UNL     1      -1.558   4.867  25.118  0.00  0.00    +0.000 C 
ATOM     19  C   UNL     1      -2.083   4.486  25.627  0.00  0.00    +0.001 C 
ATOM     20  C   UNL     1      -1.950   3.702  25.846  0.00  0.00    +0.017 C 
ENDBRANCH  14  15
ENDBRANCH  13  14
TORSDOF 5
ENDMDL
MODEL 3
REMARK VINA RESULT:      -9.2      1.036      4.799
REMARK  Name = 
REMARK  5 active torsions:
REMARK  status: ('A' for Active; 'I' for Inactive)
REMARK    1  A    between atoms: C_3  and  C_4
REMARK    2  A    between atoms: C_4  and  N_5
REMARK    3  A    between atoms: C_6  and  C_8
REMARK    4  A    between atoms: C_13  and  N_14
REMARK    5  A    between atoms: N_14  and  C_15
REMARK                            x       y       z     vdW  Elec       q    Type
REMARK                         _______ _______ _______ _____ _____    ______ ____
ROOT
ATOM      1  O   UNL     1      -4.822   1.737  24.285  0.00  0.00    -0.219 OA
ATOM      2  C   UNL     1      -4.017   1.600  24.408  0.00  0.00    +0.199 C 
ATOM      3  C   UNL     1      -3.652   0.862  24.446  0.00  0.00    +0.169 C 
ATOM     11  O   UNL     1      -2.846   0.983  24.576  0.00  0.00    -0.350 OA
ATOM     12  C   UNL     1      -2.715   1.797  24.618  0.00  0.00    +0.162 C 
ATOM     13  C   UNL     1      -3.438   2.178  24.514  0.00  0.00    +0.135 C 
ENDROOT
BRANCH   3   4
ATOM      4  C   UNL     1      -4.026   0.131  24.367  0.00  0.00    +0.147 C 
BRANCH   4   5
ATOM      5  N   UNL     1      -3.626  -0.561  24.576  0.00  0.00    -0.203 NA
ATOM      6  C   UNL     1      -3.960  -1.296  24.409  0.00  0.00    +0.241 C 
ATOM      7  O   UNL     1      -4.694  -1.341  24.033  0.00  0.00    -0.273 OA
BRANCH   6   8
ATOM      8  C   UNL     1      -3.561  -1.988  24.617  0.00  0.00    +0.078 C 
ATOM      9  C   UNL     1      -3.386  -2.570  25.174  0.00  0.00    +0.010 C 
ATOM     10  C   UNL     1      -3.047  -2.602  24.422  0.00  0.00    +0.010 C 
ENDBRANCH   6   8
ENDBRANCH   4   5
ENDBRANCH   3   4
BRANCH  13  14
ATOM     14  N   UNL     1      -3.562   2.994  24.517  0.00  0.00    -0.216 NA
BRANCH  14  15
ATOM     15  C   UNL     1      -3.072   3.484  24.962  0.00  0.00    +0.073 C 
ATOM     16  C   UNL     1      -3.278   3.680  25.737  0.00  0.00    +0.017 C 
ATOM     17  C   UNL     1      -2.788   4.171  26.183  0.00  0.00    +0.001 C 
ATOM     18  C   UNL     1      -2.090   4.466  25.854  0.00  0.00    +0.000 C 
ATOM     19  C   UNL     1      -1.884   4.270  25.080  0.00  0.00    +0.001 C 
ATOM     20  C   UNL     1      -2.375   3.779  24.634  0.00  0.00    +0.017 C 
ENDBRANCH  14  15
ENDBRANCH  13  14
TORSDOF 5
ENDMDL
MODEL 4
REMARK VINA RESULT:      -9.0      1.497      1.946
REMARK  Name = 
REMARK  5 active torsions:
REMARK  status: ('A' for Active; 'I' for Inactive)
REMARK    1  A    between atoms: C_3  and  C_4
REMARK    2  A    between atoms: C_4  and  N_5
REMARK    3  A    between atoms: C_6  and  C_8
REMARK    4  A    between atoms: C_13  and  N_14
REMARK    5  A    between atoms: N_14  and  C_15
REMARK                            x       y       z     vdW  Elec       q    Type
REMARK                         _______ _______ _______ _____ _____    ______ ____
ROOT
ATOM      1  O   UNL     1      -0.601   0.283  24.866  0.00  0.00    -0.219 OA
ATOM      2  C   UNL     1      -1.388   0.533  24.886  0.00  0.00    +0.199 C 
ATOM      3  C   UNL     1      -1.653   1.282  25.109  0.00  0.00    +0.169 C 
ATOM     11  O   UNL     1      -2.476   1.289  25.046  0.00  0.00    -0.350 OA
ATOM     12  C   UNL     1      -2.718   0.545  24.784  0.00  0.00    +0.162 C 
ATOM     13  C   UNL     1      -2.046   0.078  24.685  0.00  0.00    +0.135 C 
ENDROOT
BRANCH   3   4
ATOM      4  C   UNL     1      -1.180   1.911  25.352  0.00  0.00    +0.147 C 
BRANCH   4   5
ATOM      5  N   UNL     1      -1.404   2.687  25.179  0.00  0.00    -0.203 NA
ATOM      6  C   UNL     1      -0.942   3.318  25.440  0.00  0.00    +0.241 C 
ATOM      7  O   UNL     1      -0.255   3.174  25.875  0.00  0.00    -0.273 OA
BRANCH   6   8
ATOM      8  C   UNL     1      -1.166   4.093  25.268  0.00  0.00    +0.078 C 
ATOM      9  C   UNL     1      -1.706   4.712  25.338  0.00  0.00    +0.010 C 
ATOM     10  C   UNL     1      -1.015   4.815  24.900  0.00  0.00    +0.010 C 
ENDBRANCH   6   8
ENDBRANCH   4   5
ENDBRANCH   3   4
BRANCH  13  14
ATOM     14  N   UNL     1      -2.033  -0.707  24.430  0.00  0.00    -0.216 NA
BRANCH  14  15
ATOM     15  C   UNL     1      -2.701  -1.181  24.520  0.00  0.00    +0.073 C 
ATOM     16  C   UNL     1      -2.770  -1.676  25.178  0.00  0.00    +0.017 C 
ATOM     17  C   UNL     1      -3.438  -2.150  25.268  0.00  0.00    +0.001 C 
ATOM     18  C   UNL     1      -4.039  -2.131  24.702  0.00  0.00    +0.000 C 
ATOM     19  C   UNL     1      -3.969  -1.636  24.045  0.00  0.00    +0.001 C 
ATOM     20  C   UNL     1      -3.301  -1.162  23.954  0.00  0.00    +0.017 C 
ENDBRANCH  14  15
ENDBRANCH  13  14
TORSDOF 5
ENDMDL
