REMARK  Name = 
REMARK  5 active torsions:
REMARK  status: ('A' for Active; 'I' for Inactive)
REMARK    1  A    between atoms: C_7  and  N_10
REMARK    2  A    between atoms: N_10  and  C_11
REMARK    3  A    between atoms: C_14  and  C_15
REMARK    4  A    between atoms: C_15  and  N_16
REMARK    5  A    between atoms: C_17  and  C_19
REMARK                            x       y       z     vdW  Elec       q    Type
REMARK                         _______ _______ _______ _____ _____    ______ ____
ROOT
ATOM     11  C   UNL     1      -3.049   9.923   0.000  0.00  0.00    +0.135 C 
ATOM     12  C   UNL     1      -2.637  10.638   0.000  0.00  0.00    +0.162 C 
ATOM     13  O   UNL     1      -1.830  10.466   0.000  0.00  0.00    -0.350 OA
ATOM     14  C   UNL     1      -1.743   9.646   0.000  0.00  0.00    +0.169 C 
ATOM     22  C   UNL     1      -2.497   9.310   0.000  0.00  0.00    +0.199 C 
ATOM     23  O   UNL     1      -2.669   8.503   0.000  0.00  0.00    -0.219 OA
ENDROOT
BRANCH  11  10
ATOM     10  N   UNL     1      -3.870   9.837   0.000  0.00  0.00    -0.216 NA
BRANCH  10   7
ATOM      1  C   UNL     1      -6.630  12.421   0.000  0.00  0.00    +0.095 C 
ATOM      2  C   UNL     1      -5.809  12.507   0.000  0.00  0.00    +0.226 C 
ATOM      3  O   UNL     1      -5.474  13.261   0.000  0.00  0.00    -0.275 OA
ATOM      4  N   UNL     1      -5.324  11.839   0.000  0.00  0.00    -0.279 N 
ATOM      5  C   UNL     1      -4.504  11.926   0.000  0.00  0.00    +0.095 C 
ATOM      6  C   UNL     1      -4.019  11.258   0.000  0.00  0.00    +0.039 C 
ATOM      7  C   UNL     1      -4.355  10.505   0.000  0.00  0.00    +0.076 C 
ATOM      8  C   UNL     1      -5.175  10.418   0.000  0.00  0.00    +0.039 C 
ATOM      9  C   UNL     1      -5.660  11.086   0.000  0.00  0.00    +0.095 C 
ENDBRANCH  10   7
ENDBRANCH  11  10
BRANCH  14  15
ATOM     15  C   UNL     1      -1.029   9.233   0.000  0.00  0.00    +0.147 C 
BRANCH  15  16
ATOM     16  N   UNL     1      -1.029   8.408   0.000  0.00  0.00    -0.203 NA
ATOM     17  C   UNL     1      -0.315   7.996   0.000  0.00  0.00    +0.241 C 
ATOM     18  O   UNL     1       0.400   8.408   0.000  0.00  0.00    -0.273 OA
BRANCH  17  19
ATOM     19  C   UNL     1      -0.315   7.171   0.000  0.00  0.00    +0.078 C 
ATOM     20  C   UNL     1       0.098   6.456   0.000  0.00  0.00    +0.010 C 
ATOM     21  C   UNL     1      -0.727   6.456   0.000  0.00  0.00    +0.010 C 
ENDBRANCH  17  19
ENDBRANCH  15  16
ENDBRANCH  14  15
TORSDOF 5
