REMARK  Name = 
REMARK  5 active torsions:
REMARK  status: ('A' for Active; 'I' for Inactive)
REMARK    1  A    between atoms: C_2  and  C_4
REMARK    2  A    between atoms: C_4  and  N_5
REMARK    3  A    between atoms: C_6  and  C_8
REMARK    4  A    between atoms: C_10  and  N_11
REMARK    5  A    between atoms: N_14  and  C_15
REMARK                            x       y       z     vdW  Elec       q    Type
REMARK                         _______ _______ _______ _____ _____    ______ ____
ROOT
ATOM      8  C   UNL     1       5.716  -6.600   0.000  0.00  0.00    +0.033 C 
ATOM      9  C   UNL     1       6.430  -6.188   0.000  0.00  0.00    -0.002 C 
ATOM     10  C   UNL     1       7.145  -6.600   0.000  0.00  0.00    +0.152 C 
ATOM     22  C   UNL     1       7.145  -7.425   0.000  0.00  0.00    +0.206 C 
ATOM     23  O   UNL     1       7.859  -7.838   0.000  0.00  0.00    -0.218 OA
ATOM     24  C   UNL     1       6.430  -7.838   0.000  0.00  0.00    +0.189 C 
ATOM     25  O   UNL     1       6.430  -8.662   0.000  0.00  0.00    -0.220 OA
ATOM     26  C   UNL     1       5.716  -7.425   0.000  0.00  0.00    +0.066 C 
ENDROOT
BRANCH  10  11
ATOM     11  N   UNL     1       7.859  -6.188   0.000  0.00  0.00    -0.181 NA
ATOM     12  C   UNL     1       8.574  -6.600   0.000  0.00  0.00    +0.344 C 
ATOM     13  O   UNL     1       8.574  -7.425   0.000  0.00  0.00    -0.249 OA
ATOM     14  N   UNL     1       9.288  -6.188   0.000  0.00  0.00    -0.160 NA
BRANCH  14  15
ATOM     15  C   UNL     1      10.003  -6.600   0.000  0.00  0.00    +0.081 A 
ATOM     16  C   UNL     1      10.717  -6.188   0.000  0.00  0.00    +0.017 A 
ATOM     17  C   UNL     1      11.431  -6.600   0.000  0.00  0.00    +0.001 A 
ATOM     18  C   UNL     1      11.431  -7.425   0.000  0.00  0.00    +0.001 A 
ATOM     19  C   UNL     1      10.717  -7.838   0.000  0.00  0.00    +0.008 A 
ATOM     20  C   UNL     1      10.003  -7.425   0.000  0.00  0.00    +0.050 A 
ATOM     21 BR   UNL     1       9.288  -7.838   0.000  0.00  0.00    -0.048 Br
ENDBRANCH  14  15
ENDBRANCH  10  11
BRANCH   8   6
ATOM      5  N   UNL     1       4.287  -6.600   0.000  0.00  0.00    -0.192 NA
ATOM      6  C   UNL     1       5.001  -6.188   0.000  0.00  0.00    +0.261 C 
ATOM      7  O   UNL     1       5.001  -5.362   0.000  0.00  0.00    -0.269 OA
BRANCH   5   4
ATOM      4  C   UNL     1       3.572  -6.188   0.000  0.00  0.00    +0.203 C 
BRANCH   4   2
ATOM      1  N   UNL     1       2.143  -6.188   0.000  0.00  0.00    -0.086 NA
ATOM      2  C   UNL     1       2.858  -6.600   0.000  0.00  0.00    +0.283 C 
ATOM      3  O   UNL     1       2.858  -7.425   0.000  0.00  0.00    -0.270 OA
ENDBRANCH   4   2
ENDBRANCH   5   4
ENDBRANCH   8   6
TORSDOF 5
