MODEL 1
REMARK VINA RESULT:     -15.8      0.000      0.000
REMARK  Name = 
REMARK  5 active torsions:
REMARK  status: ('A' for Active; 'I' for Inactive)
REMARK    1  A    between atoms: C_3  and  C_4
REMARK    2  A    between atoms: C_4  and  N_5
REMARK    3  A    between atoms: C_14  and  C_19
REMARK    4  A    between atoms: C_22  and  O_23
REMARK    5  A    between atoms: O_23  and  C_24
REMARK                            x       y       z     vdW  Elec       q    Type
REMARK                         _______ _______ _______ _____ _____    ______ ____
ROOT
ATOM      5  N   UNL     1      -3.511   2.987  25.018  0.00  0.00    -0.268 NA
ATOM      6  C   UNL     1      -3.710   3.788  25.149  0.00  0.00    +0.074 C 
ATOM      7  C   UNL     1      -4.673   3.690  25.344  0.00  0.00    +0.039 C 
ATOM      8  C   UNL     1      -5.463   3.779  25.523  0.00  0.00    +0.011 C 
ATOM      9  C   UNL     1      -5.021   3.255  25.371  0.00  0.00    +0.054 C 
ATOM     10  C   UNL     1      -4.091   3.366  25.184  0.00  0.00    +0.078 C 
ATOM     11  C   UNL     1      -4.994   2.343  25.264  0.00  0.00    +0.041 A 
ATOM     12  C   UNL     1      -5.484   1.680  25.295  0.00  0.00    +0.013 A 
ATOM     13  C   UNL     1      -5.172   0.931  25.146  0.00  0.00    +0.006 A 
ATOM     14  C   UNL     1      -4.372   0.845  24.965  0.00  0.00    +0.056 A 
ATOM     15  C   UNL     1      -3.883   1.508  24.934  0.00  0.00    +0.261 A 
ATOM     16  O   UNL     1      -3.082   1.422  24.753  0.00  0.00    -0.267 OA
ATOM     17  N   UNL     1      -4.194   2.257  25.083  0.00  0.00    -0.299 N 
ATOM     18  C   UNL     1      -4.635   2.738  25.231  0.00  0.00    +0.110 C 
ENDROOT
BRANCH  14  19
ATOM     19  C   UNL     1      -4.062   0.095  24.816  0.00  0.00    +0.005 A 
ATOM     20  C   UNL     1      -3.759  -0.356  25.436  0.00  0.00    +0.003 A 
ATOM     21  C   UNL     1      -3.448  -1.106  25.288  0.00  0.00    +0.037 A 
ATOM     22  C   UNL     1      -3.441  -1.404  24.519  0.00  0.00    +0.147 A 
ATOM     28  C   UNL     1      -3.743  -0.953  23.898  0.00  0.00    +0.037 A 
ATOM     29  C   UNL     1      -4.054  -0.203  24.047  0.00  0.00    +0.003 A 
BRANCH  22  23
ATOM     23  O   UNL     1      -3.130  -2.155  24.370  0.00  0.00    -0.404 OA
BRANCH  23  24
ATOM     24  C   UNL     1      -3.594  -2.825  24.496  0.00  0.00    +0.575 C 
ATOM     25  F   UNL     1      -4.058  -3.495  24.623  0.00  0.00    -0.133 F 
ATOM     26  F   UNL     1      -3.284  -2.895  25.258  0.00  0.00    -0.133 F 
ATOM     27  F   UNL     1      -3.903  -2.755  23.735  0.00  0.00    -0.133 F 
ENDBRANCH  23  24
ENDBRANCH  22  23
ENDBRANCH  14  19
BRANCH   5   4
ATOM      4  C   UNL     1      -3.046   2.328  24.846  0.00  0.00    +0.102 C 
BRANCH   4   3
ATOM      1  O   UNL     1      -2.253   2.453  23.404  0.00  0.00    -0.287 OA
ATOM      2  C   UNL     1      -1.828   2.458  24.111  0.00  0.00    +0.193 A 
ATOM      3  C   UNL     1      -2.224   2.395  24.832  0.00  0.00    +0.033 A 
ATOM     30  C   UNL     1      -1.799   2.400  25.538  0.00  0.00    +0.000 A 
ATOM     31  C   UNL     1      -0.976   2.468  25.524  0.00  0.00    -0.000 A 
ATOM     32  C   UNL     1      -0.580   2.530  24.803  0.00  0.00    +0.003 A 
ATOM     33  C   UNL     1      -1.005   2.525  24.097  0.00  0.00    +0.042 A 
ENDBRANCH   4   3
ENDBRANCH   5   4
TORSDOF 5
ENDMDL
MODEL 2
REMARK VINA RESULT:     -14.5      1.140      2.708
REMARK  Name = 
REMARK  5 active torsions:
REMARK  status: ('A' for Active; 'I' for Inactive)
REMARK    1  A    between atoms: C_3  and  C_4
REMARK    2  A    between atoms: C_4  and  N_5
REMARK    3  A    between atoms: C_14  and  C_19
REMARK    4  A    between atoms: C_22  and  O_23
REMARK    5  A    between atoms: O_23  and  C_24
REMARK                            x       y       z     vdW  Elec       q    Type
REMARK                         _______ _______ _______ _____ _____    ______ ____
ROOT
ATOM      5  N   UNL     1      -1.958   2.899  25.288  0.00  0.00    -0.268 NA
ATOM      6  C   UNL     1      -1.449   3.532  25.481  0.00  0.00    +0.074 C 
ATOM      7  C   UNL     1      -0.632   3.025  25.708  0.00  0.00    +0.039 C 
ATOM      8  C   UNL     1       0.108   2.760  25.924  0.00  0.00    +0.011 C 
ATOM      9  C   UNL     1      -0.503   2.482  25.719  0.00  0.00    +0.054 C 
ATOM     10  C   UNL     1      -1.285   2.987  25.503  0.00  0.00    +0.078 C 
ATOM     11  C   UNL     1      -0.906   1.674  25.548  0.00  0.00    +0.041 A 
ATOM     12  C   UNL     1      -0.746   0.865  25.554  0.00  0.00    +0.013 A 
ATOM     13  C   UNL     1      -1.334   0.327  25.341  0.00  0.00    +0.006 A 
ATOM     14  C   UNL     1      -2.082   0.598  25.122  0.00  0.00    +0.056 A 
ATOM     15  C   UNL     1      -2.242   1.408  25.117  0.00  0.00    +0.261 A 
ATOM     16  O   UNL     1      -2.990   1.679  24.899  0.00  0.00    -0.267 OA
ATOM     17  N   UNL     1      -1.654   1.945  25.330  0.00  0.00    -0.299 N 
ATOM     18  C   UNL     1      -1.061   2.185  25.528  0.00  0.00    +0.110 C 
ENDROOT
BRANCH  14  19
ATOM     19  C   UNL     1      -2.670   0.060  24.910  0.00  0.00    +0.005 A 
ATOM     20  C   UNL     1      -3.136  -0.293  25.492  0.00  0.00    +0.003 A 
ATOM     21  C   UNL     1      -3.723  -0.831  25.280  0.00  0.00    +0.037 A 
ATOM     22  C   UNL     1      -3.845  -1.017  24.486  0.00  0.00    +0.147 A 
ATOM     28  C   UNL     1      -3.379  -0.665  23.903  0.00  0.00    +0.037 A 
ATOM     29  C   UNL     1      -2.791  -0.126  24.115  0.00  0.00    +0.003 A 
BRANCH  22  23
ATOM     23  O   UNL     1      -4.433  -1.556  24.273  0.00  0.00    -0.404 OA
BRANCH  23  24
ATOM     24  C   UNL     1      -4.225  -2.309  24.005  0.00  0.00    +0.575 C 
ATOM     25  F   UNL     1      -4.018  -3.060  23.736  0.00  0.00    -0.133 F 
ATOM     26  F   UNL     1      -4.362  -2.068  23.227  0.00  0.00    -0.133 F 
ATOM     27  F   UNL     1      -4.089  -2.549  24.782  0.00  0.00    -0.133 F 
ENDBRANCH  23  24
ENDBRANCH  22  23
ENDBRANCH  14  19
BRANCH   5   4
ATOM      4  C   UNL     1      -2.646   2.508  25.052  0.00  0.00    +0.102 C 
BRANCH   4   3
ATOM      1  O   UNL     1      -3.230   3.033  23.600  0.00  0.00    -0.287 OA
ATOM      2  C   UNL     1      -3.653   3.180  24.293  0.00  0.00    +0.193 A 
ATOM      3  C   UNL     1      -3.361   2.917  25.019  0.00  0.00    +0.033 A 
ATOM     30  C   UNL     1      -3.785   3.065  25.711  0.00  0.00    +0.000 A 
ATOM     31  C   UNL     1      -4.501   3.474  25.678  0.00  0.00    -0.000 A 
ATOM     32  C   UNL     1      -4.792   3.736  24.952  0.00  0.00    +0.003 A 
ATOM     33  C   UNL     1      -4.369   3.590  24.260  0.00  0.00    +0.042 A 
ENDBRANCH   4   3
ENDBRANCH   5   4
TORSDOF 5
ENDMDL
MODEL 3
REMARK VINA RESULT:     -14.5      1.976      3.637
REMARK  Name = 
REMARK  5 active torsions:
REMARK  status: ('A' for Active; 'I' for Inactive)
REMARK    1  A    between atoms: C_3  and  C_4
REMARK    2  A    between atoms: C_4  and  N_5
REMARK    3  A    between atoms: C_14  and  C_19
REMARK    4  A    between atoms: C_22  and  O_23
REMARK    5  A    between atoms: O_23  and  C_24
REMARK                            x       y       z     vdW  Elec       q    Type
REMARK                         _______ _______ _______ _____ _____    ______ ____
ROOT
ATOM      5  N   UNL     1      -4.564   0.631  25.020  0.00  0.00    -0.268 NA
ATOM      6  C   UNL     1      -5.369   0.754  25.207  0.00  0.00    +0.074 C 
ATOM      7  C   UNL     1      -5.389   1.742  25.208  0.00  0.00    +0.039 C 
ATOM      8  C   UNL     1      -5.570   2.535  25.247  0.00  0.00    +0.011 C 
ATOM      9  C   UNL     1      -5.007   2.137  25.117  0.00  0.00    +0.054 C 
ATOM     10  C   UNL     1      -5.003   1.182  25.120  0.00  0.00    +0.078 C 
ATOM     11  C   UNL     1      -4.114   2.198  24.909  0.00  0.00    +0.041 A 
ATOM     12  C   UNL     1      -3.525   2.759  24.770  0.00  0.00    +0.013 A 
ATOM     13  C   UNL     1      -2.757   2.516  24.592  0.00  0.00    +0.006 A 
ATOM     14  C   UNL     1      -2.578   1.712  24.553  0.00  0.00    +0.056 A 
ATOM     15  C   UNL     1      -3.166   1.150  24.692  0.00  0.00    +0.261 A 
ATOM     16  O   UNL     1      -2.987   0.346  24.654  0.00  0.00    -0.267 OA
ATOM     17  N   UNL     1      -3.934   1.394  24.870  0.00  0.00    -0.299 N 
ATOM     18  C   UNL     1      -4.456   1.796  24.990  0.00  0.00    +0.110 C 
ENDROOT
BRANCH  14  19
ATOM     19  C   UNL     1      -1.810   1.469  24.375  0.00  0.00    +0.005 A 
ATOM     20  C   UNL     1      -1.583   1.365  23.589  0.00  0.00    +0.003 A 
ATOM     21  C   UNL     1      -0.815   1.123  23.410  0.00  0.00    +0.037 A 
ATOM     22  C   UNL     1      -0.274   0.984  24.017  0.00  0.00    +0.147 A 
ATOM     28  C   UNL     1      -0.501   1.088  24.804  0.00  0.00    +0.037 A 
ATOM     29  C   UNL     1      -1.270   1.330  24.983  0.00  0.00    +0.003 A 
BRANCH  22  23
ATOM     23  O   UNL     1       0.495   0.741  23.838  0.00  0.00    -0.404 OA
BRANCH  23  24
ATOM     24  C   UNL     1       0.618   0.046  23.411  0.00  0.00    +0.575 C 
ATOM     25  F   UNL     1       0.742  -0.649  22.984  0.00  0.00    -0.133 F 
ATOM     26  F   UNL     1       0.805   0.492  22.742  0.00  0.00    -0.133 F 
ATOM     27  F   UNL     1       0.431  -0.399  24.080  0.00  0.00    -0.133 F 
ENDBRANCH  23  24
ENDBRANCH  22  23
ENDBRANCH  14  19
BRANCH   5   4
ATOM      4  C   UNL     1      -3.866   0.222  24.859  0.00  0.00    +0.102 C 
BRANCH   4   3
ATOM      1  O   UNL     1      -3.434  -0.855  26.033  0.00  0.00    -0.287 OA
ATOM      2  C   UNL     1      -3.672  -1.126  25.291  0.00  0.00    +0.193 A 
ATOM      3  C   UNL     1      -3.888  -0.588  24.704  0.00  0.00    +0.033 A 
ATOM     30  C   UNL     1      -4.126  -0.859  23.962  0.00  0.00    +0.000 A 
ATOM     31  C   UNL     1      -4.148  -1.670  23.807  0.00  0.00    -0.000 A 
ATOM     32  C   UNL     1      -3.932  -2.208  24.394  0.00  0.00    +0.003 A 
ATOM     33  C   UNL     1      -3.695  -1.937  25.135  0.00  0.00    +0.042 A 
ENDBRANCH   4   3
ENDBRANCH   5   4
TORSDOF 5
ENDMDL
MODEL 4
REMARK VINA RESULT:     -14.3      2.648      4.629
REMARK  Name = 
REMARK  5 active torsions:
REMARK  status: ('A' for Active; 'I' for Inactive)
REMARK    1  A    between atoms: C_3  and  C_4
REMARK    2  A    between atoms: C_4  and  N_5
REMARK    3  A    between atoms: C_14  and  C_19
REMARK    4  A    between atoms: C_22  and  O_23
REMARK    5  A    between atoms: O_23  and  C_24
REMARK                            x       y       z     vdW  Elec       q    Type
REMARK                         _______ _______ _______ _____ _____    ______ ____
ROOT
ATOM      5  N   UNL     1      -3.855  -0.702  24.323  0.00  0.00    -0.268 NA
ATOM      6  C   UNL     1      -4.441  -1.274  24.160  0.00  0.00    +0.074 C 
ATOM      7  C   UNL     1      -3.898  -2.095  24.239  0.00  0.00    +0.039 C 
ATOM      8  C   UNL     1      -3.596  -2.851  24.266  0.00  0.00    +0.011 C 
ATOM      9  C   UNL     1      -3.361  -2.196  24.354  0.00  0.00    +0.054 C 
ATOM     10  C   UNL     1      -3.900  -1.411  24.275  0.00  0.00    +0.078 C 
ATOM     11  C   UNL     1      -2.598  -1.723  24.550  0.00  0.00    +0.041 A 
ATOM     12  C   UNL     1      -1.800  -1.839  24.724  0.00  0.00    +0.013 A 
ATOM     13  C   UNL     1      -1.312  -1.190  24.868  0.00  0.00    +0.006 A 
ATOM     14  C   UNL     1      -1.621  -0.426  24.839  0.00  0.00    +0.056 A 
ATOM     15  C   UNL     1      -2.419  -0.310  24.666  0.00  0.00    +0.261 A 
ATOM     16  O   UNL     1      -2.728   0.455  24.638  0.00  0.00    -0.267 OA
ATOM     17  N   UNL     1      -2.908  -0.959  24.522  0.00  0.00    -0.299 N 
ATOM     18  C   UNL     1      -3.106  -1.593  24.443  0.00  0.00    +0.110 C 
ENDROOT
BRANCH  14  19
ATOM     19  C   UNL     1      -1.132   0.222  24.984  0.00  0.00    +0.005 A 
ATOM     20  C   UNL     1      -0.697   0.556  24.367  0.00  0.00    +0.003 A 
ATOM     21  C   UNL     1      -0.207   1.204  24.511  0.00  0.00    +0.037 A 
ATOM     22  C   UNL     1      -0.153   1.519  25.271  0.00  0.00    +0.147 A 
ATOM     28  C   UNL     1      -0.587   1.186  25.889  0.00  0.00    +0.037 A 
ATOM     29  C   UNL     1      -1.077   0.537  25.744  0.00  0.00    +0.003 A 
BRANCH  22  23
ATOM     23  O   UNL     1       0.337   2.168  25.416  0.00  0.00    -0.404 OA
BRANCH  23  24
ATOM     24  C   UNL     1       0.006   2.902  25.597  0.00  0.00    +0.575 C 
ATOM     25  F   UNL     1      -0.324   3.635  25.779  0.00  0.00    -0.133 F 
ATOM     26  F   UNL     1       0.127   2.756  26.400  0.00  0.00    -0.133 F 
ATOM     27  F   UNL     1      -0.114   3.047  24.794  0.00  0.00    -0.133 F 
ENDBRANCH  23  24
ENDBRANCH  22  23
ENDBRANCH  14  19
BRANCH   5   4
ATOM      4  C   UNL     1      -3.516   0.042  24.439  0.00  0.00    +0.102 C 
BRANCH   4   3
ATOM      1  O   UNL     1      -3.578   1.191  23.255  0.00  0.00    -0.287 OA
ATOM      2  C   UNL     1      -4.029   1.279  23.941  0.00  0.00    +0.193 A 
ATOM      3  C   UNL     1      -3.998   0.704  24.532  0.00  0.00    +0.033 A 
ATOM     30  C   UNL     1      -4.450   0.793  25.217  0.00  0.00    +0.000 A 
ATOM     31  C   UNL     1      -4.932   1.456  25.311  0.00  0.00    -0.000 A 
ATOM     32  C   UNL     1      -4.963   2.030  24.719  0.00  0.00    +0.003 A 
ATOM     33  C   UNL     1      -4.512   1.942  24.035  0.00  0.00    +0.042 A 
ENDBRANCH   4   3
ENDBRANCH   5   4
TORSDOF 5
ENDMDL
MODEL 5
REMARK VINA RESULT:     -14.2      2.572      4.247
REMARK  Name = 
REMARK  5 active torsions:
REMARK  status: ('A' for Active; 'I' for Inactive)
REMARK    1  A    between atoms: C_3  and  C_4
REMARK    2  A    between atoms: C_4  and  N_5
REMARK    3  A    between atoms: C_14  and  C_19
REMARK    4  A    between atoms: C_22  and  O_23
REMARK    5  A    between atoms: O_23  and  C_24
REMARK                            x       y       z     vdW  Elec       q    Type
REMARK                         _______ _______ _______ _____ _____    ______ ____
ROOT
ATOM      5  N   UNL     1      -1.612  -0.854  24.723  0.00  0.00    -0.268 NA
ATOM      6  C   UNL     1      -1.135  -1.539  24.688  0.00  0.00    +0.074 C 
ATOM      7  C   UNL     1      -1.834  -2.222  24.546  0.00  0.00    +0.039 C 
ATOM      8  C   UNL     1      -2.280  -2.893  24.428  0.00  0.00    +0.011 C 
ATOM      9  C   UNL     1      -2.389  -2.204  24.497  0.00  0.00    +0.054 C 
ATOM     10  C   UNL     1      -1.702  -1.555  24.634  0.00  0.00    +0.078 C 
ATOM     11  C   UNL     1      -3.063  -1.578  24.507  0.00  0.00    +0.041 A 
ATOM     12  C   UNL     1      -3.882  -1.518  24.438  0.00  0.00    +0.013 A 
ATOM     13  C   UNL     1      -4.247  -0.780  24.490  0.00  0.00    +0.006 A 
ATOM     14  C   UNL     1      -3.793  -0.102  24.609  0.00  0.00    +0.056 A 
ATOM     15  C   UNL     1      -2.973  -0.162  24.678  0.00  0.00    +0.261 A 
ATOM     16  O   UNL     1      -2.518   0.516  24.797  0.00  0.00    -0.267 OA
ATOM     17  N   UNL     1      -2.608  -0.900  24.626  0.00  0.00    -0.299 N 
ATOM     18  C   UNL     1      -2.531  -1.561  24.558  0.00  0.00    +0.110 C 
ENDROOT
BRANCH  14  19
ATOM     19  C   UNL     1      -4.158   0.635  24.660  0.00  0.00    +0.005 A 
ATOM     20  C   UNL     1      -4.552   0.853  25.352  0.00  0.00    +0.003 A 
ATOM     21  C   UNL     1      -4.918   1.591  25.404  0.00  0.00    +0.037 A 
ATOM     22  C   UNL     1      -4.891   2.110  24.764  0.00  0.00    +0.147 A 
ATOM     28  C   UNL     1      -4.498   1.893  24.072  0.00  0.00    +0.037 A 
ATOM     29  C   UNL     1      -4.132   1.155  24.020  0.00  0.00    +0.003 A 
BRANCH  22  23
ATOM     23  O   UNL     1      -5.257   2.848  24.815  0.00  0.00    -0.404 OA
BRANCH  23  24
ATOM     24  C   UNL     1      -4.923   3.443  25.280  0.00  0.00    +0.575 C 
ATOM     25  F   UNL     1      -4.589   4.036  25.746  0.00  0.00    -0.133 F 
ATOM     26  F   UNL     1      -5.427   3.238  25.902  0.00  0.00    -0.133 F 
ATOM     27  F   UNL     1      -4.420   3.646  24.659  0.00  0.00    -0.133 F 
ENDBRANCH  23  24
ENDBRANCH  22  23
ENDBRANCH  14  19
BRANCH   5   4
ATOM      4  C   UNL     1      -1.809  -0.056  24.797  0.00  0.00    +0.102 C 
BRANCH   4   3
ATOM      1  O   UNL     1      -1.219   0.631  26.176  0.00  0.00    -0.287 OA
ATOM      2  C   UNL     1      -0.925   0.863  25.440  0.00  0.00    +0.193 A 
ATOM      3  C   UNL     1      -1.221   0.519  24.751  0.00  0.00    +0.033 A 
ATOM     30  C   UNL     1      -0.927   0.752  24.016  0.00  0.00    +0.000 A 
ATOM     31  C   UNL     1      -0.338   1.329  23.970  0.00  0.00    -0.000 A 
ATOM     32  C   UNL     1      -0.043   1.672  24.660  0.00  0.00    +0.003 A 
ATOM     33  C   UNL     1      -0.336   1.440  25.394  0.00  0.00    +0.042 A 
ENDBRANCH   4   3
ENDBRANCH   5   4
TORSDOF 5
ENDMDL
