REMARK  Name = 
REMARK  8 active torsions:
REMARK  status: ('A' for Active; 'I' for Inactive)
REMARK    1  A    between atoms: C_5  and  S_8
REMARK    2  A    between atoms: S_8  and  N_11
REMARK    3  A    between atoms: N_11  and  C_12
REMARK    4  A    between atoms: C_12  and  C_13
REMARK    5  A    between atoms: C_20  and  C_21
REMARK    6  A    between atoms: C_21  and  N_22
REMARK    7  A    between atoms: N_25  and  S_28
REMARK    8  A    between atoms: S_28  and  C_31
REMARK                            x       y       z     vdW  Elec       q    Type
REMARK                         _______ _______ _______ _____ _____    ______ ____
ROOT
ATOM     13  C   UNL     1       1.814  -2.106   0.000  0.00  0.00    +0.077 C 
ATOM     14  C   UNL     1       1.661  -1.343   0.000  0.00  0.00    +0.018 C 
ATOM     15  C   UNL     1       0.923  -1.010   0.000  0.00  0.00    +0.005 C 
ATOM     16  C   UNL     1       0.961  -0.114   0.000  0.00  0.00    +0.017 C 
ATOM     17  C   UNL     1       1.205  -0.720   0.000  0.00  0.00    +0.072 C 
ATOM     18  N   UNL     1       1.065  -1.759   0.000  0.00  0.00    -0.272 NA
ATOM     19  C   UNL     1       0.226  -2.118   0.000  0.00  0.00    +0.073 C 
ATOM     20  C   UNL     1       0.119  -1.362   0.000  0.00  0.00    +0.032 C 
ENDROOT
BRANCH  13  12
ATOM     12  C   UNL     1       2.324  -2.754   0.000  0.00  0.00    +0.131 C 
BRANCH  12  11
ATOM     11  N   UNL     1       2.018  -3.520   0.000  0.00  0.00    -0.076 NA
BRANCH  11   8
ATOM      8  S   UNL     1       2.529  -4.168   0.000  0.00  0.00    +0.077 S 
ATOM      9  O   UNL     1       3.177  -3.658   0.000  0.00  0.00    -0.152 OA
ATOM     10  O   UNL     1       1.881  -4.678   0.000  0.00  0.00    -0.152 OA
BRANCH   8   5
ATOM      1 CL   UNL     1       4.571  -6.760   0.000  0.00  0.00    -0.082 Cl
ATOM      2  C   UNL     1       4.060  -6.112   0.000  0.00  0.00    +0.058 A 
ATOM      3  C   UNL     1       3.244  -6.230   0.000  0.00  0.00    +0.013 A 
ATOM      4  C   UNL     1       2.733  -5.582   0.000  0.00  0.00    +0.021 A 
ATOM      5  C   UNL     1       3.039  -4.816   0.000  0.00  0.00    +0.124 A 
ATOM      6  C   UNL     1       3.856  -4.698   0.000  0.00  0.00    +0.021 A 
ATOM      7  C   UNL     1       4.366  -5.346   0.000  0.00  0.00    +0.013 A 
ENDBRANCH   8   5
ENDBRANCH  11   8
ENDBRANCH  12  11
ENDBRANCH  13  12
BRANCH  20  21
ATOM     21  C   UNL     1      -0.602  -0.960   0.000  0.00  0.00    +0.074 C 
BRANCH  21  22
ATOM     22  N   UNL     1      -0.614  -0.136   0.000  0.00  0.00    -0.270 NA
ATOM     23  C   UNL     1      -1.335   0.266   0.000  0.00  0.00    +0.092 C 
ATOM     24  C   UNL     1      -1.347   1.091   0.000  0.00  0.00    +0.113 C 
ATOM     25  N   UNL     1      -0.639   1.514   0.000  0.00  0.00    -0.153 NA
ATOM     26  C   UNL     1       0.082   1.113   0.000  0.00  0.00    +0.113 C 
ATOM     27  C   UNL     1       0.094   0.288   0.000  0.00  0.00    +0.092 C 
BRANCH  25  28
ATOM     28  S   UNL     1      -0.651   2.339   0.000  0.00  0.00    +0.063 S 
ATOM     29  O   UNL     1       0.174   2.352   0.000  0.00  0.00    -0.153 OA
ATOM     30  O   UNL     1      -1.476   2.327   0.000  0.00  0.00    -0.153 OA
BRANCH  28  31
ATOM     31  C   UNL     1      -0.663   3.164   0.000  0.00  0.00    +0.122 A 
ATOM     32  C   UNL     1      -1.384   3.566   0.000  0.00  0.00    +0.021 A 
ATOM     33  C   UNL     1      -1.397   4.391   0.000  0.00  0.00    +0.013 A 
ATOM     34  C   UNL     1      -0.688   4.814   0.000  0.00  0.00    +0.058 A 
ATOM     35 CL   UNL     1      -0.701   5.639   0.000  0.00  0.00    -0.082 Cl
ATOM     36  C   UNL     1       0.032   4.412   0.000  0.00  0.00    +0.013 A 
ATOM     37  C   UNL     1       0.045   3.587   0.000  0.00  0.00    +0.021 A 
ENDBRANCH  28  31
ENDBRANCH  25  28
ENDBRANCH  21  22
ENDBRANCH  20  21
TORSDOF 8
