MODEL 1
REMARK VINA RESULT:     -12.6      0.000      0.000
REMARK  Name = 
REMARK  3 active torsions:
REMARK  status: ('A' for Active; 'I' for Inactive)
REMARK    1  A    between atoms: C_7  and  C_8
REMARK    2  A    between atoms: C_8  and  N_9
REMARK    3  A    between atoms: C_12  and  C_14
REMARK                            x       y       z     vdW  Elec       q    Type
REMARK                         _______ _______ _______ _____ _____    ______ ____
ROOT
ATOM      9  N   UNL     1      -4.239   2.220  24.555  0.00  0.00    -0.268 NA
ATOM     10  C   UNL     1      -4.964   2.062  24.917  0.00  0.00    +0.073 C 
ATOM     11  C   UNL     1      -5.029   1.245  25.011  0.00  0.00    +0.028 C 
ATOM     12  C   UNL     1      -4.345   0.897  24.707  0.00  0.00    +0.094 C 
ATOM     13  C   UNL     1      -3.857   1.500  24.425  0.00  0.00    +0.082 C 
ENDROOT
BRANCH  12  14
ATOM     14  C   UNL     1      -4.178   0.090  24.688  0.00  0.00    +0.207 A 
ATOM     15  N   UNL     1      -3.780  -0.337  25.270  0.00  0.00    -0.212 NA
ATOM     16  C   UNL     1      -3.737  -1.123  25.025  0.00  0.00    +0.119 A 
ATOM     17  C   UNL     1      -4.108  -1.183  24.291  0.00  0.00    +0.164 A 
ATOM     18  O   UNL     1      -4.381  -0.433  24.082  0.00  0.00    -0.438 OA
ATOM     19  C   UNL     1      -4.149  -1.912  23.908  0.00  0.00    +0.039 A 
ATOM     20  C   UNL     1      -3.819  -2.582  24.258  0.00  0.00    +0.003 A 
ATOM     21  C   UNL     1      -3.448  -2.522  24.993  0.00  0.00    +0.002 A 
ATOM     22  C   UNL     1      -3.407  -1.794  25.377  0.00  0.00    +0.022 A 
ENDBRANCH  12  14
BRANCH   9   8
ATOM      8  C   UNL     1      -3.948   2.966  24.357  0.00  0.00    +0.101 C 
BRANCH   8   7
ATOM      1  F   UNL     1      -2.402   3.368  23.943  0.00  0.00    -0.204 F 
ATOM      2  C   UNL     1      -2.699   3.578  24.683  0.00  0.00    +0.137 A 
ATOM      3  C   UNL     1      -2.223   3.991  25.217  0.00  0.00    +0.029 A 
ATOM      4  C   UNL     1      -2.521   4.201  25.957  0.00  0.00    +0.002 A 
ATOM      5  C   UNL     1      -3.293   4.000  26.164  0.00  0.00    -0.000 A 
ATOM      6  C   UNL     1      -3.769   3.588  25.631  0.00  0.00    -0.001 A 
ATOM      7  C   UNL     1      -3.472   3.377  24.890  0.00  0.00    +0.021 A 
ENDBRANCH   8   7
ENDBRANCH   9   8
TORSDOF 3
ENDMDL
MODEL 2
REMARK VINA RESULT:     -12.2      1.617      4.811
REMARK  Name = 
REMARK  3 active torsions:
REMARK  status: ('A' for Active; 'I' for Inactive)
REMARK    1  A    between atoms: C_7  and  C_8
REMARK    2  A    between atoms: C_8  and  N_9
REMARK    3  A    between atoms: C_12  and  C_14
REMARK                            x       y       z     vdW  Elec       q    Type
REMARK                         _______ _______ _______ _____ _____    ______ ____
ROOT
ATOM      9  N   UNL     1      -4.010   0.719  24.986  0.00  0.00    -0.268 NA
ATOM     10  C   UNL     1      -4.324   1.065  24.306  0.00  0.00    +0.073 C 
ATOM     11  C   UNL     1      -3.916   1.768  24.165  0.00  0.00    +0.028 C 
ATOM     12  C   UNL     1      -3.349   1.857  24.759  0.00  0.00    +0.094 C 
ATOM     13  C   UNL     1      -3.408   1.209  25.266  0.00  0.00    +0.082 C 
ENDROOT
BRANCH  12  14
ATOM     14  C   UNL     1      -2.818   2.484  24.833  0.00  0.00    +0.207 A 
ATOM     15  N   UNL     1      -2.993   3.237  25.120  0.00  0.00    -0.212 NA
ATOM     16  C   UNL     1      -2.302   3.685  25.097  0.00  0.00    +0.119 A 
ATOM     17  C   UNL     1      -1.699   3.210  24.794  0.00  0.00    +0.164 A 
ATOM     18  O   UNL     1      -2.018   2.467  24.631  0.00  0.00    -0.438 OA
ATOM     19  C   UNL     1      -0.938   3.516  24.707  0.00  0.00    +0.039 A 
ATOM     20  C   UNL     1      -0.779   4.296  24.922  0.00  0.00    +0.003 A 
ATOM     21  C   UNL     1      -1.382   4.771  25.224  0.00  0.00    +0.002 A 
ATOM     22  C   UNL     1      -2.143   4.467  25.312  0.00  0.00    +0.022 A 
ENDBRANCH  12  14
BRANCH   9   8
ATOM      8  C   UNL     1      -4.255   0.009  25.326  0.00  0.00    +0.101 C 
BRANCH   8   7
ATOM      1  F   UNL     1      -3.453  -1.106  26.240  0.00  0.00    -0.204 F 
ATOM      2  C   UNL     1      -3.624  -1.267  25.450  0.00  0.00    +0.137 A 
ATOM      3  C   UNL     1      -3.394  -1.986  25.116  0.00  0.00    +0.029 A 
ATOM      4  C   UNL     1      -3.565  -2.146  24.326  0.00  0.00    +0.002 A 
ATOM      5  C   UNL     1      -3.966  -1.589  23.869  0.00  0.00    -0.000 A 
ATOM      6  C   UNL     1      -4.196  -0.871  24.202  0.00  0.00    -0.001 A 
ATOM      7  C   UNL     1      -4.025  -0.710  24.993  0.00  0.00    +0.021 A 
ENDBRANCH   8   7
ENDBRANCH   9   8
TORSDOF 3
ENDMDL
MODEL 3
REMARK VINA RESULT:     -12.2      0.810      1.172
REMARK  Name = 
REMARK  3 active torsions:
REMARK  status: ('A' for Active; 'I' for Inactive)
REMARK    1  A    between atoms: C_7  and  C_8
REMARK    2  A    between atoms: C_8  and  N_9
REMARK    3  A    between atoms: C_12  and  C_14
REMARK                            x       y       z     vdW  Elec       q    Type
REMARK                         _______ _______ _______ _____ _____    ______ ____
ROOT
ATOM      9  N   UNL     1      -3.723   2.245  24.215  0.00  0.00    -0.268 NA
ATOM     10  C   UNL     1      -3.322   2.113  23.507  0.00  0.00    +0.073 C 
ATOM     11  C   UNL     1      -3.226   1.298  23.417  0.00  0.00    +0.028 C 
ATOM     12  C   UNL     1      -3.567   0.927  24.070  0.00  0.00    +0.094 C 
ATOM     13  C   UNL     1      -3.875   1.512  24.563  0.00  0.00    +0.082 C 
ENDROOT
BRANCH  12  14
ATOM     14  C   UNL     1      -3.596   0.114  24.206  0.00  0.00    +0.207 A 
ATOM     15  N   UNL     1      -3.223  -0.289  24.821  0.00  0.00    -0.212 NA
ATOM     16  C   UNL     1      -3.399  -1.090  24.745  0.00  0.00    +0.119 A 
ATOM     17  C   UNL     1      -3.882  -1.184  24.083  0.00  0.00    +0.164 A 
ATOM     18  O   UNL     1      -4.004  -0.440  23.749  0.00  0.00    -0.438 OA
ATOM     19  C   UNL     1      -4.148  -1.935  23.869  0.00  0.00    +0.039 A 
ATOM     20  C   UNL     1      -3.932  -2.592  24.318  0.00  0.00    +0.003 A 
ATOM     21  C   UNL     1      -3.449  -2.499  24.980  0.00  0.00    +0.002 A 
ATOM     22  C   UNL     1      -3.183  -1.749  25.194  0.00  0.00    +0.022 A 
ENDBRANCH  12  14
BRANCH   9   8
ATOM      8  C   UNL     1      -3.936   2.981  24.522  0.00  0.00    +0.101 C 
BRANCH   8   7
ATOM      1  F   UNL     1      -4.402   3.542  26.003  0.00  0.00    -0.204 F 
ATOM      2  C   UNL     1      -3.636   3.682  25.730  0.00  0.00    +0.137 A 
ATOM      3  C   UNL     1      -3.103   4.104  26.198  0.00  0.00    +0.029 A 
ATOM      4  C   UNL     1      -2.337   4.245  25.926  0.00  0.00    +0.002 A 
ATOM      5  C   UNL     1      -2.104   3.965  25.186  0.00  0.00    -0.000 A 
ATOM      6  C   UNL     1      -2.637   3.543  24.718  0.00  0.00    -0.001 A 
ATOM      7  C   UNL     1      -3.403   3.402  24.991  0.00  0.00    +0.021 A 
ENDBRANCH   8   7
ENDBRANCH   9   8
TORSDOF 3
ENDMDL
