MODEL 1
REMARK VINA RESULT:     -12.3      0.000      0.000
REMARK  Name = 
REMARK  6 active torsions:
REMARK  status: ('A' for Active; 'I' for Inactive)
REMARK    1  A    between atoms: C_2  and  C_3
REMARK    2  A    between atoms: C_3  and  C_4
REMARK    3  A    between atoms: C_9  and  C_10
REMARK    4  A    between atoms: C_10  and  C_11
REMARK    5  A    between atoms: C_14  and  C_15
REMARK    6  A    between atoms: C_15  and  C_16
REMARK                            x       y       z     vdW  Elec       q    Type
REMARK                         _______ _______ _______ _____ _____    ______ ____
ROOT
ATOM      4  C   UNL     1      -4.132   2.794  25.147  0.00  0.00    +0.012 C 
ATOM      5  C   UNL     1      -4.609   3.345  25.535  0.00  0.00    +0.019 C 
ATOM      6  C   UNL     1      -5.408   3.184  25.659  0.00  0.00    +0.089 C 
ATOM      7  N   UNL     1      -5.731   2.473  25.395  0.00  0.00    -0.218 NA
ATOM      8  C   UNL     1      -5.255   1.921  25.008  0.00  0.00    +0.089 C 
ATOM      9  C   UNL     1      -4.455   2.082  24.884  0.00  0.00    +0.024 C 
ENDROOT
BRANCH   4   3
ATOM      3  C   UNL     1      -3.333   2.955  25.023  0.00  0.00    +0.085 C 
BRANCH   3   2
ATOM      1  O   UNL     1      -3.614   4.314  24.685  0.00  0.00    -0.275 OA
ATOM      2  C   UNL     1      -3.078   3.733  24.921  0.00  0.00    +0.226 C 
ATOM     23  N   UNL     1      -2.289   3.930  25.056  0.00  0.00    -0.274 N 
ATOM     24  C   UNL     1      -2.035   4.709  24.954  0.00  0.00    +0.125 C 
ATOM     25  C   UNL     1      -1.246   4.906  25.088  0.00  0.00    +0.164 C 
ATOM     26  O   UNL     1      -0.710   4.325  25.325  0.00  0.00    -0.350 OA
ATOM     27  C   UNL     1      -0.963   3.547  25.427  0.00  0.00    +0.164 C 
ATOM     28  C   UNL     1      -1.753   3.350  25.292  0.00  0.00    +0.125 C 
ENDBRANCH   3   2
ENDBRANCH   4   3
BRANCH   9  10
ATOM     10  C   UNL     1      -3.979   1.531  24.496  0.00  0.00    +0.051 C 
BRANCH  10  11
ATOM     11  C   UNL     1      -4.086   0.724  24.634  0.00  0.00    +0.100 A 
ATOM     12  N   UNL     1      -4.670   0.248  24.298  0.00  0.00    -0.082 NA
ATOM     13  O   UNL     1      -4.572  -0.517  24.588  0.00  0.00    -0.358 OA
ATOM     14  C   UNL     1      -3.927  -0.515  25.102  0.00  0.00    +0.154 A 
ATOM     22  C   UNL     1      -3.627   0.252  25.131  0.00  0.00    +0.054 A 
BRANCH  14  15
ATOM     15  C   UNL     1      -3.635  -1.166  25.516  0.00  0.00    +0.067 C 
BRANCH  15  16
ATOM     16  C   UNL     1      -3.202  -1.746  25.120  0.00  0.00    +0.008 C 
ATOM     17  C   UNL     1      -2.384  -1.675  25.049  0.00  0.00    +0.000 C 
ATOM     18  C   UNL     1      -1.951  -2.255  24.653  0.00  0.00    +0.000 C 
ATOM     19  C   UNL     1      -2.338  -2.907  24.326  0.00  0.00    +0.000 C 
ATOM     20  C   UNL     1      -3.158  -2.977  24.397  0.00  0.00    +0.000 C 
ATOM     21  C   UNL     1      -3.589  -2.398  24.793  0.00  0.00    +0.000 C 
ENDBRANCH  15  16
ENDBRANCH  14  15
ENDBRANCH  10  11
ENDBRANCH   9  10
TORSDOF 6
ENDMDL
MODEL 2
REMARK VINA RESULT:     -12.0      2.092      3.060
REMARK  Name = 
REMARK  6 active torsions:
REMARK  status: ('A' for Active; 'I' for Inactive)
REMARK    1  A    between atoms: C_2  and  C_3
REMARK    2  A    between atoms: C_3  and  C_4
REMARK    3  A    between atoms: C_9  and  C_10
REMARK    4  A    between atoms: C_10  and  C_11
REMARK    5  A    between atoms: C_14  and  C_15
REMARK    6  A    between atoms: C_15  and  C_16
REMARK                            x       y       z     vdW  Elec       q    Type
REMARK                         _______ _______ _______ _____ _____    ______ ____
ROOT
ATOM      4  C   UNL     1      -0.614   1.500  24.574  0.00  0.00    +0.012 C 
ATOM      5  C   UNL     1      -0.217   1.629  23.863  0.00  0.00    +0.019 C 
ATOM      6  C   UNL     1       0.094   0.993  23.441  0.00  0.00    +0.089 C 
ATOM      7  N   UNL     1       0.007   0.225  23.730  0.00  0.00    -0.218 NA
ATOM      8  C   UNL     1      -0.390   0.094  24.442  0.00  0.00    +0.089 C 
ATOM      9  C   UNL     1      -0.700   0.732  24.864  0.00  0.00    +0.024 C 
ENDROOT
BRANCH   4   3
ATOM      3  C   UNL     1      -0.924   2.136  24.996  0.00  0.00    +0.085 C 
BRANCH   3   2
ATOM      1  O   UNL     1       0.091   3.012  24.501  0.00  0.00    -0.275 OA
ATOM      2  C   UNL     1      -0.646   2.900  24.855  0.00  0.00    +0.226 C 
ATOM     23  N   UNL     1      -1.103   3.552  25.068  0.00  0.00    -0.274 N 
ATOM     24  C   UNL     1      -0.825   4.316  24.928  0.00  0.00    +0.125 C 
ATOM     25  C   UNL     1      -1.282   4.968  25.141  0.00  0.00    +0.164 C 
ATOM     26  O   UNL     1      -2.019   4.857  25.495  0.00  0.00    -0.350 OA
ATOM     27  C   UNL     1      -2.298   4.094  25.636  0.00  0.00    +0.164 C 
ATOM     28  C   UNL     1      -1.840   3.441  25.422  0.00  0.00    +0.125 C 
ENDBRANCH   3   2
ENDBRANCH   4   3
BRANCH   9  10
ATOM     10  C   UNL     1      -1.097   0.601  25.575  0.00  0.00    +0.051 C 
BRANCH  10  11
ATOM     11  C   UNL     1      -1.537  -0.089  25.681  0.00  0.00    +0.100 A 
ATOM     12  N   UNL     1      -1.235  -0.831  25.878  0.00  0.00    -0.082 NA
ATOM     13  O   UNL     1      -1.867  -1.358  25.929  0.00  0.00    -0.358 OA
ATOM     14  C   UNL     1      -2.560  -0.942  25.763  0.00  0.00    +0.154 A 
ATOM     22  C   UNL     1      -2.356  -0.158  25.610  0.00  0.00    +0.054 A 
BRANCH  14  15
ATOM     15  C   UNL     1      -3.323  -1.256  25.751  0.00  0.00    +0.067 C 
BRANCH  15  16
ATOM     16  C   UNL     1      -3.595  -1.655  25.083  0.00  0.00    +0.008 C 
ATOM     17  C   UNL     1      -3.452  -2.463  24.996  0.00  0.00    +0.000 C 
ATOM     18  C   UNL     1      -3.724  -2.861  24.327  0.00  0.00    +0.000 C 
ATOM     19  C   UNL     1      -4.139  -2.452  23.743  0.00  0.00    +0.000 C 
ATOM     20  C   UNL     1      -4.282  -1.643  23.830  0.00  0.00    +0.000 C 
ATOM     21  C   UNL     1      -4.010  -1.245  24.499  0.00  0.00    +0.000 C 
ENDBRANCH  15  16
ENDBRANCH  14  15
ENDBRANCH  10  11
ENDBRANCH   9  10
TORSDOF 6
ENDMDL
MODEL 3
REMARK VINA RESULT:     -11.4      1.001      4.967
REMARK  Name = 
REMARK  6 active torsions:
REMARK  status: ('A' for Active; 'I' for Inactive)
REMARK    1  A    between atoms: C_2  and  C_3
REMARK    2  A    between atoms: C_3  and  C_4
REMARK    3  A    between atoms: C_9  and  C_10
REMARK    4  A    between atoms: C_10  and  C_11
REMARK    5  A    between atoms: C_14  and  C_15
REMARK    6  A    between atoms: C_15  and  C_16
REMARK                            x       y       z     vdW  Elec       q    Type
REMARK                         _______ _______ _______ _____ _____    ______ ____
ROOT
ATOM      4  C   UNL     1      -4.741   0.966  24.902  0.00  0.00    +0.012 C 
ATOM      5  C   UNL     1      -5.418   0.665  25.265  0.00  0.00    +0.019 C 
ATOM      6  C   UNL     1      -6.061   1.159  25.416  0.00  0.00    +0.089 C 
ATOM      7  N   UNL     1      -6.027   1.956  25.204  0.00  0.00    -0.218 NA
ATOM      8  C   UNL     1      -5.350   2.258  24.842  0.00  0.00    +0.089 C 
ATOM      9  C   UNL     1      -4.707   1.763  24.691  0.00  0.00    +0.024 C 
ENDROOT
BRANCH   4   3
ATOM      3  C   UNL     1      -4.099   0.472  24.751  0.00  0.00    +0.085 C 
BRANCH   3   2
ATOM      1  O   UNL     1      -4.935  -0.541  24.190  0.00  0.00    -0.275 OA
ATOM      2  C   UNL     1      -4.224  -0.316  24.542  0.00  0.00    +0.226 C 
ATOM     23  N   UNL     1      -3.639  -0.879  24.686  0.00  0.00    -0.274 N 
ATOM     24  C   UNL     1      -3.764  -1.668  24.477  0.00  0.00    +0.125 C 
ATOM     25  C   UNL     1      -3.179  -2.231  24.620  0.00  0.00    +0.164 C 
ATOM     26  O   UNL     1      -2.468  -2.006  24.973  0.00  0.00    -0.350 OA
ATOM     27  C   UNL     1      -2.342  -1.218  25.182  0.00  0.00    +0.164 C 
ATOM     28  C   UNL     1      -2.928  -0.654  25.038  0.00  0.00    +0.125 C 
ENDBRANCH   3   2
ENDBRANCH   4   3
BRANCH   9  10
ATOM     10  C   UNL     1      -4.031   2.066  24.328  0.00  0.00    +0.051 C 
BRANCH  10  11
ATOM     11  C   UNL     1      -3.743   2.808  24.544  0.00  0.00    +0.100 A 
ATOM     12  N   UNL     1      -3.986   3.532  24.232  0.00  0.00    -0.082 NA
ATOM     13  O   UNL     1      -3.555   4.128  24.605  0.00  0.00    -0.358 OA
ATOM     14  C   UNL     1      -3.047   3.772  25.149  0.00  0.00    +0.154 A 
ATOM     22  C   UNL     1      -3.163   2.957  25.111  0.00  0.00    +0.054 A 
BRANCH  14  15
ATOM     15  C   UNL     1      -2.515   4.165  25.643  0.00  0.00    +0.067 C 
BRANCH  15  16
ATOM     16  C   UNL     1      -1.788   4.418  25.348  0.00  0.00    +0.008 C 
ATOM     17  C   UNL     1      -1.164   3.885  25.272  0.00  0.00    +0.000 C 
ATOM     18  C   UNL     1      -0.437   4.139  24.976  0.00  0.00    +0.000 C 
ATOM     19  C   UNL     1      -0.333   4.928  24.757  0.00  0.00    +0.000 C 
ATOM     20  C   UNL     1      -0.958   5.462  24.833  0.00  0.00    +0.000 C 
ATOM     21  C   UNL     1      -1.685   5.207  25.128  0.00  0.00    +0.000 C 
ENDBRANCH  15  16
ENDBRANCH  14  15
ENDBRANCH  10  11
ENDBRANCH   9  10
TORSDOF 6
ENDMDL
MODEL 4
REMARK VINA RESULT:     -10.9      1.653      2.987
REMARK  Name = 
REMARK  6 active torsions:
REMARK  status: ('A' for Active; 'I' for Inactive)
REMARK    1  A    between atoms: C_2  and  C_3
REMARK    2  A    between atoms: C_3  and  C_4
REMARK    3  A    between atoms: C_9  and  C_10
REMARK    4  A    between atoms: C_10  and  C_11
REMARK    5  A    between atoms: C_14  and  C_15
REMARK    6  A    between atoms: C_15  and  C_16
REMARK                            x       y       z     vdW  Elec       q    Type
REMARK                         _______ _______ _______ _____ _____    ______ ____
ROOT
ATOM      4  C   UNL     1      -1.665   2.512  25.230  0.00  0.00    +0.012 C 
ATOM      5  C   UNL     1      -1.365   3.065  25.765  0.00  0.00    +0.019 C 
ATOM      6  C   UNL     1      -0.575   3.029  25.997  0.00  0.00    +0.089 C 
ATOM      7  N   UNL     1      -0.083   2.440  25.694  0.00  0.00    -0.218 NA
ATOM      8  C   UNL     1      -0.381   1.887  25.160  0.00  0.00    +0.089 C 
ATOM      9  C   UNL     1      -1.172   1.923  24.928  0.00  0.00    +0.024 C 
ENDROOT
BRANCH   4   3
ATOM      3  C   UNL     1      -2.455   2.548  24.998  0.00  0.00    +0.085 C 
BRANCH   3   2
ATOM      1  O   UNL     1      -2.530   3.947  25.276  0.00  0.00    -0.275 OA
ATOM      2  C   UNL     1      -2.904   3.220  25.162  0.00  0.00    +0.226 C 
ATOM     23  N   UNL     1      -3.725   3.167  25.212  0.00  0.00    -0.274 N 
ATOM     24  C   UNL     1      -4.174   3.839  25.377  0.00  0.00    +0.125 C 
ATOM     25  C   UNL     1      -4.995   3.785  25.427  0.00  0.00    +0.164 C 
ATOM     26  O   UNL     1      -5.368   3.059  25.313  0.00  0.00    -0.350 OA
ATOM     27  C   UNL     1      -4.921   2.386  25.149  0.00  0.00    +0.164 C 
ATOM     28  C   UNL     1      -4.098   2.440  25.099  0.00  0.00    +0.125 C 
ENDBRANCH   3   2
ENDBRANCH   4   3
BRANCH   9  10
ATOM     10  C   UNL     1      -1.470   1.370  24.393  0.00  0.00    +0.051 C 
BRANCH  10  11
ATOM     11  C   UNL     1      -1.279   0.572  24.475  0.00  0.00    +0.100 A 
ATOM     12  N   UNL     1      -0.670   0.176  24.083  0.00  0.00    -0.082 NA
ATOM     13  O   UNL     1      -0.678  -0.611  24.329  0.00  0.00    -0.358 OA
ATOM     14  C   UNL     1      -1.291  -0.702  24.873  0.00  0.00    +0.154 A 
ATOM     22  C   UNL     1      -1.663   0.028  24.963  0.00  0.00    +0.054 A 
BRANCH  14  15
ATOM     15  C   UNL     1      -1.497  -1.402  25.259  0.00  0.00    +0.067 C 
BRANCH  15  16
ATOM     16  C   UNL     1      -2.170  -1.818  25.027  0.00  0.00    +0.008 C 
ATOM     17  C   UNL     1      -2.898  -1.654  25.377  0.00  0.00    +0.000 C 
ATOM     18  C   UNL     1      -3.571  -2.070  25.145  0.00  0.00    +0.000 C 
ATOM     19  C   UNL     1      -3.516  -2.652  24.562  0.00  0.00    +0.000 C 
ATOM     20  C   UNL     1      -2.787  -2.816  24.212  0.00  0.00    +0.000 C 
ATOM     21  C   UNL     1      -2.114  -2.400  24.444  0.00  0.00    +0.000 C 
ENDBRANCH  15  16
ENDBRANCH  14  15
ENDBRANCH  10  11
ENDBRANCH   9  10
TORSDOF 6
ENDMDL
MODEL 5
REMARK VINA RESULT:     -10.6      1.813      5.278
REMARK  Name = 
REMARK  6 active torsions:
REMARK  status: ('A' for Active; 'I' for Inactive)
REMARK    1  A    between atoms: C_2  and  C_3
REMARK    2  A    between atoms: C_3  and  C_4
REMARK    3  A    between atoms: C_9  and  C_10
REMARK    4  A    between atoms: C_10  and  C_11
REMARK    5  A    between atoms: C_14  and  C_15
REMARK    6  A    between atoms: C_15  and  C_16
REMARK                            x       y       z     vdW  Elec       q    Type
REMARK                         _______ _______ _______ _____ _____    ______ ____
ROOT
ATOM      4  C   UNL     1      -1.739  -0.024  24.872  0.00  0.00    +0.012 C 
ATOM      5  C   UNL     1      -1.383  -0.279  25.571  0.00  0.00    +0.019 C 
ATOM      6  C   UNL     1      -0.867   0.218  25.978  0.00  0.00    +0.089 C 
ATOM      7  N   UNL     1      -0.706   0.973  25.686  0.00  0.00    -0.218 NA
ATOM      8  C   UNL     1      -1.061   1.229  24.987  0.00  0.00    +0.089 C 
ATOM      9  C   UNL     1      -1.577   0.730  24.580  0.00  0.00    +0.024 C 
ENDROOT
BRANCH   4   3
ATOM      3  C   UNL     1      -2.255  -0.522  24.465  0.00  0.00    +0.085 C 
BRANCH   3   2
ATOM      1  O   UNL     1      -1.523  -1.685  24.858  0.00  0.00    -0.275 OA
ATOM      2  C   UNL     1      -2.219  -1.338  24.581  0.00  0.00    +0.226 C 
ATOM     23  N   UNL     1      -2.877  -1.807  24.420  0.00  0.00    -0.274 N 
ATOM     24  C   UNL     1      -2.841  -2.624  24.535  0.00  0.00    +0.125 C 
ATOM     25  C   UNL     1      -3.499  -3.093  24.374  0.00  0.00    +0.164 C 
ATOM     26  O   UNL     1      -4.195  -2.747  24.097  0.00  0.00    -0.350 OA
ATOM     27  C   UNL     1      -4.232  -1.931  23.981  0.00  0.00    +0.164 C 
ATOM     28  C   UNL     1      -3.573  -1.461  24.143  0.00  0.00    +0.125 C 
ENDBRANCH   3   2
ENDBRANCH   4   3
BRANCH   9  10
ATOM     10  C   UNL     1      -1.932   0.987  23.880  0.00  0.00    +0.051 C 
BRANCH  10  11
ATOM     11  C   UNL     1      -2.322   1.713  23.858  0.00  0.00    +0.100 A 
ATOM     12  N   UNL     1      -1.964   2.456  23.851  0.00  0.00    -0.082 NA
ATOM     13  O   UNL     1      -2.560   3.026  23.827  0.00  0.00    -0.358 OA
ATOM     14  C   UNL     1      -3.286   2.635  23.819  0.00  0.00    +0.154 A 
ATOM     22  C   UNL     1      -3.140   1.824  23.838  0.00  0.00    +0.054 A 
BRANCH  14  15
ATOM     15  C   UNL     1      -4.030   2.994  23.796  0.00  0.00    +0.067 C 
BRANCH  15  16
ATOM     16  C   UNL     1      -4.503   3.004  24.470  0.00  0.00    +0.008 C 
ATOM     17  C   UNL     1      -4.416   3.605  25.028  0.00  0.00    +0.000 C 
ATOM     18  C   UNL     1      -4.889   3.616  25.703  0.00  0.00    +0.000 C 
ATOM     19  C   UNL     1      -5.452   3.023  25.821  0.00  0.00    +0.000 C 
ATOM     20  C   UNL     1      -5.540   2.422  25.263  0.00  0.00    +0.000 C 
ATOM     21  C   UNL     1      -5.066   2.412  24.588  0.00  0.00    +0.000 C 
ENDBRANCH  15  16
ENDBRANCH  14  15
ENDBRANCH  10  11
ENDBRANCH   9  10
TORSDOF 6
ENDMDL
