REMARK  Name = 
REMARK  8 active torsions:
REMARK  status: ('A' for Active; 'I' for Inactive)
REMARK    1  A    between atoms: C_5  and  C_8
REMARK    2  A    between atoms: N_10  and  C_11
REMARK    3  A    between atoms: C_13  and  C_19
REMARK    4  A    between atoms: N_21  and  C_22
REMARK    5  A    between atoms: C_22  and  C_23
REMARK    6  A    between atoms: C_22  and  C_29
REMARK    7  A    between atoms: C_23  and  C_24
REMARK    8  A    between atoms: C_24  and  S_25
REMARK                            x       y       z     vdW  Elec       q    Type
REMARK                         _______ _______ _______ _____ _____    ______ ____
ROOT
ATOM     11  C   UNL     1      -3.572  -0.412   0.000  0.00  0.00    +0.150 C 
ATOM     12  C   UNL     1      -2.858   0.000   0.000  0.00  0.00    -0.002 C 
ATOM     13  C   UNL     1      -2.143  -0.412   0.000  0.00  0.00    +0.033 C 
ATOM     14  C   UNL     1      -2.143  -1.238   0.000  0.00  0.00    +0.066 C 
ATOM     15  C   UNL     1      -2.858  -1.650   0.000  0.00  0.00    +0.189 C 
ATOM     16  O   UNL     1      -2.858  -2.475   0.000  0.00  0.00    -0.220 OA
ATOM     17  C   UNL     1      -3.572  -1.238   0.000  0.00  0.00    +0.206 C 
ATOM     18  O   UNL     1      -4.287  -1.650   0.000  0.00  0.00    -0.218 OA
ENDROOT
BRANCH  11  10
ATOM      8  C   UNL     1      -5.001  -0.412   0.000  0.00  0.00    +0.265 C 
ATOM      9  O   UNL     1      -5.001  -1.238   0.000  0.00  0.00    -0.268 OA
ATOM     10  N   UNL     1      -4.287   0.000   0.000  0.00  0.00    -0.196 NA
BRANCH   8   5
ATOM      1  C   UNL     1      -7.859   1.238   0.000  0.00  0.00    +0.031 C 
ATOM      2  C   UNL     1      -7.145   0.825   0.000  0.00  0.00    -0.022 A 
ATOM      3  C   UNL     1      -6.430   1.238   0.000  0.00  0.00    -0.004 A 
ATOM      4  C   UNL     1      -5.716   0.825   0.000  0.00  0.00    +0.004 A 
ATOM      5  C   UNL     1      -5.716   0.000   0.000  0.00  0.00    +0.055 A 
ATOM      6  C   UNL     1      -6.430  -0.412   0.000  0.00  0.00    +0.004 A 
ATOM      7  C   UNL     1      -7.145   0.000   0.000  0.00  0.00    -0.004 A 
ENDBRANCH   8   5
ENDBRANCH  11  10
BRANCH  13  19
ATOM     19  C   UNL     1      -1.429   0.000   0.000  0.00  0.00    +0.261 C 
ATOM     20  O   UNL     1      -0.715  -0.412   0.000  0.00  0.00    -0.269 OA
ATOM     21  N   UNL     1      -1.429   0.825   0.000  0.00  0.00    -0.194 NA
BRANCH  21  22
ATOM     22  C   UNL     1      -0.715   1.238   0.000  0.00  0.00    +0.176 C 
BRANCH  22  29
ATOM     29  C   UNL     1       0.000   0.825   0.000  0.00  0.00    +0.281 C 
ATOM     30  N   UNL     1       0.715   1.238   0.000  0.00  0.00    -0.086 NA
ATOM     31  O   UNL     1       0.000   0.000   0.000  0.00  0.00    -0.270 OA
ENDBRANCH  22  29
BRANCH  22  23
ATOM     23  C   UNL     1      -0.715   2.062   0.000  0.00  0.00    +0.056 C 
BRANCH  23  24
ATOM     24  C   UNL     1       0.000   2.475   0.000  0.00  0.00    +0.153 C 
BRANCH  24  25
ATOM     25  S   UNL     1       0.000   3.300   0.000  0.00  0.00    -0.008 S 
ATOM     26  C   UNL     1       0.000   4.125   0.000  0.00  0.00    +0.176 C 
ATOM     27  O   UNL     1       0.825   3.300   0.000  0.00  0.00    -0.173 OA
ATOM     28  O   UNL     1      -0.825   3.300   0.000  0.00  0.00    -0.173 OA
ENDBRANCH  24  25
ENDBRANCH  23  24
ENDBRANCH  22  23
ENDBRANCH  21  22
ENDBRANCH  13  19
TORSDOF 8
