MODEL 1
REMARK VINA RESULT:     -10.1      0.000      0.000
REMARK  Name = 
REMARK  3 active torsions:
REMARK  status: ('A' for Active; 'I' for Inactive)
REMARK    1  A    between atoms: C_3  and  N_7
REMARK    2  A    between atoms: C_12  and  C_13
REMARK    3  A    between atoms: C_15  and  C_18
REMARK                            x       y       z     vdW  Elec       q    Type
REMARK                         _______ _______ _______ _____ _____    ______ ____
ROOT
ATOM      7  N   UNL     1      -3.064  -1.502  24.590  0.00  0.00    -0.265 NA
ATOM      8  C   UNL     1      -3.008  -2.325  24.608  0.00  0.00    +0.105 C 
ATOM      9  C   UNL     1      -3.613  -2.787  24.288  0.00  0.00    +0.160 C 
ATOM     10  O   UNL     1      -4.273  -2.425  23.952  0.00  0.00    -0.350 OA
ATOM     11  C   UNL     1      -4.330  -1.602  23.934  0.00  0.00    +0.166 C 
ATOM     12  C   UNL     1      -3.725  -1.141  24.253  0.00  0.00    +0.147 C 
ENDROOT
BRANCH   7   3
ATOM      1  C   UNL     1      -1.251  -0.297  24.743  0.00  0.00    +0.090 C 
ATOM      2  C   UNL     1      -1.855  -0.758  24.424  0.00  0.00    +0.035 C 
ATOM      3  C   UNL     1      -2.459  -1.041  24.909  0.00  0.00    +0.061 C 
ATOM      4  C   UNL     1      -2.457  -0.862  25.715  0.00  0.00    +0.035 C 
ATOM      5  C   UNL     1      -1.853  -0.402  26.035  0.00  0.00    +0.090 C 
ATOM      6  N   UNL     1      -1.250  -0.119  25.549  0.00  0.00    -0.218 NA
ENDBRANCH   7   3
BRANCH  12  13
ATOM     13  C   UNL     1      -3.781  -0.317  24.235  0.00  0.00    +0.156 A 
ATOM     14  N   UNL     1      -4.233   0.148  24.744  0.00  0.00    -0.228 NA
ATOM     15  C   UNL     1      -4.126   0.938  24.529  0.00  0.00    +0.102 A 
ATOM     16  C   UNL     1      -3.609   0.959  23.886  0.00  0.00    +0.119 A 
ATOM     17  N   UNL     1      -3.396   0.183  23.705  0.00  0.00    -0.226 NA
BRANCH  15  18
ATOM     18  C   UNL     1      -4.476   1.591  24.892  0.00  0.00    +0.022 A 
ATOM     19  C   UNL     1      -4.057   2.299  24.955  0.00  0.00    +0.022 A 
ATOM     20  C   UNL     1      -4.407   2.953  25.319  0.00  0.00    +0.099 A 
ATOM     21  N   UNL     1      -5.173   2.898  25.618  0.00  0.00    -0.242 NA
ATOM     22  C   UNL     1      -5.592   2.189  25.554  0.00  0.00    +0.099 A 
ATOM     23  C   UNL     1      -5.242   1.536  25.191  0.00  0.00    +0.022 A 
ENDBRANCH  15  18
ENDBRANCH  12  13
TORSDOF 3
ENDMDL
MODEL 2
REMARK VINA RESULT:     -10.0      1.547      3.789
REMARK  Name = 
REMARK  3 active torsions:
REMARK  status: ('A' for Active; 'I' for Inactive)
REMARK    1  A    between atoms: C_3  and  N_7
REMARK    2  A    between atoms: C_12  and  C_13
REMARK    3  A    between atoms: C_15  and  C_18
REMARK                            x       y       z     vdW  Elec       q    Type
REMARK                         _______ _______ _______ _____ _____    ______ ____
ROOT
ATOM      7  N   UNL     1      -4.017   2.092  24.517  0.00  0.00    -0.265 NA
ATOM      8  C   UNL     1      -4.380   2.829  24.445  0.00  0.00    +0.105 C 
ATOM      9  C   UNL     1      -5.113   2.965  24.798  0.00  0.00    +0.160 C 
ATOM     10  O   UNL     1      -5.483   2.363  25.224  0.00  0.00    -0.350 OA
ATOM     11  C   UNL     1      -5.120   1.626  25.297  0.00  0.00    +0.166 C 
ATOM     12  C   UNL     1      -4.387   1.491  24.944  0.00  0.00    +0.147 C 
ENDROOT
BRANCH   7   3
ATOM      1  C   UNL     1      -1.858   1.923  24.244  0.00  0.00    +0.090 C 
ATOM      2  C   UNL     1      -2.590   2.058  24.598  0.00  0.00    +0.035 C 
ATOM      3  C   UNL     1      -3.283   1.957  24.163  0.00  0.00    +0.061 C 
ATOM      4  C   UNL     1      -3.244   1.721  23.373  0.00  0.00    +0.035 C 
ATOM      5  C   UNL     1      -2.512   1.586  23.019  0.00  0.00    +0.090 C 
ATOM      6  N   UNL     1      -1.819   1.686  23.454  0.00  0.00    -0.218 NA
ENDBRANCH   7   3
BRANCH  12  13
ATOM     13  C   UNL     1      -4.024   0.752  25.017  0.00  0.00    +0.156 A 
ATOM     14  N   UNL     1      -4.250   0.061  24.629  0.00  0.00    -0.228 NA
ATOM     15  C   UNL     1      -3.737  -0.541  24.862  0.00  0.00    +0.102 A 
ATOM     16  C   UNL     1      -3.194  -0.222  25.395  0.00  0.00    +0.119 A 
ATOM     17  N   UNL     1      -3.372   0.579  25.491  0.00  0.00    -0.226 NA
BRANCH  15  18
ATOM     18  C   UNL     1      -3.762  -1.326  24.608  0.00  0.00    +0.022 A 
ATOM     19  C   UNL     1      -3.302  -1.896  24.987  0.00  0.00    +0.022 A 
ATOM     20  C   UNL     1      -3.328  -2.681  24.733  0.00  0.00    +0.099 A 
ATOM     21  N   UNL     1      -3.812  -2.895  24.101  0.00  0.00    -0.242 NA
ATOM     22  C   UNL     1      -4.272  -2.324  23.722  0.00  0.00    +0.099 A 
ATOM     23  C   UNL     1      -4.247  -1.539  23.976  0.00  0.00    +0.022 A 
ENDBRANCH  15  18
ENDBRANCH  12  13
TORSDOF 3
ENDMDL
MODEL 3
REMARK VINA RESULT:      -9.9      1.264      2.073
REMARK  Name = 
REMARK  3 active torsions:
REMARK  status: ('A' for Active; 'I' for Inactive)
REMARK    1  A    between atoms: C_3  and  N_7
REMARK    2  A    between atoms: C_12  and  C_13
REMARK    3  A    between atoms: C_15  and  C_18
REMARK                            x       y       z     vdW  Elec       q    Type
REMARK                         _______ _______ _______ _____ _____    ______ ____
ROOT
ATOM      7  N   UNL     1      -1.815  -0.291  24.664  0.00  0.00    -0.265 NA
ATOM      8  C   UNL     1      -1.049  -0.590  24.725  0.00  0.00    +0.105 C 
ATOM      9  C   UNL     1      -0.405  -0.124  24.501  0.00  0.00    +0.160 C 
ATOM     10  O   UNL     1      -0.528   0.640  24.217  0.00  0.00    -0.350 OA
ATOM     11  C   UNL     1      -1.295   0.939  24.157  0.00  0.00    +0.166 C 
ATOM     12  C   UNL     1      -1.938   0.474  24.380  0.00  0.00    +0.147 C 
ENDROOT
BRANCH   7   3
ATOM      1  C   UNL     1      -3.499  -1.674  24.549  0.00  0.00    +0.090 C 
ATOM      2  C   UNL     1      -2.857  -1.208  24.325  0.00  0.00    +0.035 C 
ATOM      3  C   UNL     1      -2.458  -0.757  24.888  0.00  0.00    +0.061 C 
ATOM      4  C   UNL     1      -2.702  -0.772  25.677  0.00  0.00    +0.035 C 
ATOM      5  C   UNL     1      -3.344  -1.238  25.901  0.00  0.00    +0.090 C 
ATOM      6  N   UNL     1      -3.743  -1.689  25.338  0.00  0.00    -0.218 NA
ENDBRANCH   7   3
BRANCH  12  13
ATOM     13  C   UNL     1      -2.705   0.774  24.320  0.00  0.00    +0.156 A 
ATOM     14  N   UNL     1      -3.066   1.291  24.850  0.00  0.00    -0.228 NA
ATOM     15  C   UNL     1      -3.829   1.445  24.576  0.00  0.00    +0.102 A 
ATOM     16  C   UNL     1      -3.939   1.022  23.877  0.00  0.00    +0.119 A 
ATOM     17  N   UNL     1      -3.244   0.607  23.718  0.00  0.00    -0.226 NA
BRANCH  15  18
ATOM     18  C   UNL     1      -4.385   1.936  24.939  0.00  0.00    +0.022 A 
ATOM     19  C   UNL     1      -4.170   2.696  25.175  0.00  0.00    +0.022 A 
ATOM     20  C   UNL     1      -4.726   3.187  25.537  0.00  0.00    +0.099 A 
ATOM     21  N   UNL     1      -5.495   2.918  25.663  0.00  0.00    -0.242 NA
ATOM     22  C   UNL     1      -5.709   2.156  25.427  0.00  0.00    +0.099 A 
ATOM     23  C   UNL     1      -5.154   1.665  25.065  0.00  0.00    +0.022 A 
ENDBRANCH  15  18
ENDBRANCH  12  13
TORSDOF 3
ENDMDL
