REMARK  Name = 
REMARK  7 active torsions:
REMARK  status: ('A' for Active; 'I' for Inactive)
REMARK    1  A    between atoms: O_2  and  C_3
REMARK    2  A    between atoms: C_3  and  C_4
REMARK    3  A    between atoms: C_9  and  C_11
REMARK    4  A    between atoms: C_11  and  C_12
REMARK    5  A    between atoms: C_14  and  C_15
REMARK    6  A    between atoms: C_15  and  N_16
REMARK    7  A    between atoms: N_16  and  S_17
REMARK                            x       y       z     vdW  Elec       q    Type
REMARK                         _______ _______ _______ _____ _____    ______ ____
ROOT
ATOM     12  C   UNL     1      -0.531  -2.488   0.000  0.00  0.00    +0.157 C 
ATOM     13  O   UNL     1      -1.199  -2.973   0.000  0.00  0.00    -0.351 OA
ATOM     14  C   UNL     1      -1.866  -2.488   0.000  0.00  0.00    +0.167 C 
ATOM     21  C   UNL     1      -1.611  -1.704   0.000  0.00  0.00    +0.213 C 
ATOM     22  O   UNL     1      -2.096  -1.036   0.000  0.00  0.00    -0.218 OA
ATOM     23  C   UNL     1      -0.786  -1.704   0.000  0.00  0.00    +0.212 C 
ATOM     24  O   UNL     1      -0.301  -1.036   0.000  0.00  0.00    -0.218 OA
ENDROOT
BRANCH  12  11
ATOM     11  C   UNL     1       0.253  -2.743   0.000  0.00  0.00    +0.117 C 
BRANCH  11   9
ATOM      4  C   UNL     1       2.318  -1.961   0.000  0.00  0.00    +0.105 C 
ATOM      5  C   UNL     1       2.986  -2.446   0.000  0.00  0.00    +0.024 C 
ATOM      6  C   UNL     1       2.731  -3.231   0.000  0.00  0.00    +0.023 C 
ATOM      7  C   UNL     1       1.906  -3.231   0.000  0.00  0.00    +0.093 C 
ATOM      8  N   UNL     1       1.651  -2.446   0.000  0.00  0.00    -0.279 N 
ATOM      9  C   UNL     1       0.866  -2.191   0.000  0.00  0.00    +0.228 C 
ATOM     10  O   UNL     1       0.695  -1.384   0.000  0.00  0.00    -0.275 OA
BRANCH   4   3
ATOM      3  C   UNL     1       2.318  -1.136   0.000  0.00  0.00    +0.162 C 
BRANCH   3   2
ATOM      1  C   UNL     1       3.033   0.101   0.000  0.00  0.00    +0.174 C 
ATOM      2  O   UNL     1       3.033  -0.724   0.000  0.00  0.00    -0.349 OA
ENDBRANCH   3   2
ENDBRANCH   4   3
ENDBRANCH  11   9
ENDBRANCH  12  11
BRANCH  14  15
ATOM     15  C   UNL     1      -2.651  -2.743   0.000  0.00  0.00    +0.147 C 
BRANCH  15  16
ATOM     16  N   UNL     1      -3.264  -2.191   0.000  0.00  0.00    -0.079 NA
BRANCH  16  17
ATOM     17  S   UNL     1      -4.049  -2.446   0.000  0.00  0.00    +0.059 S 
ATOM     18  C   UNL     1      -4.833  -2.701   0.000  0.00  0.00    +0.197 C 
ATOM     19  O   UNL     1      -4.304  -1.662   0.000  0.00  0.00    -0.156 OA
ATOM     20  O   UNL     1      -3.794  -3.231   0.000  0.00  0.00    -0.156 OA
ENDBRANCH  16  17
ENDBRANCH  15  16
ENDBRANCH  14  15
TORSDOF 7
