MODEL 1
REMARK VINA RESULT:     -12.2      0.000      0.000
REMARK  Name = 
REMARK  3 active torsions:
REMARK  status: ('A' for Active; 'I' for Inactive)
REMARK    1  A    between atoms: C_7  and  C_8
REMARK    2  A    between atoms: C_8  and  N_9
REMARK    3  A    between atoms: C_12  and  C_14
REMARK                            x       y       z     vdW  Elec       q    Type
REMARK                         _______ _______ _______ _____ _____    ______ ____
ROOT
ATOM      9  N   UNL     1      -4.076   0.589  24.518  0.00  0.00    -0.269 NA
ATOM     10  C   UNL     1      -4.651   1.035  24.906  0.00  0.00    +0.073 C 
ATOM     11  C   UNL     1      -4.323   1.771  25.088  0.00  0.00    +0.026 C 
ATOM     12  C   UNL     1      -3.546   1.778  24.812  0.00  0.00    +0.076 C 
ATOM     13  C   UNL     1      -3.393   1.048  24.460  0.00  0.00    +0.080 C 
ENDROOT
BRANCH  12  14
ATOM     14  C   UNL     1      -3.014   2.406  24.876  0.00  0.00    +0.142 A 
ATOM     15  N   UNL     1      -2.228   2.404  24.626  0.00  0.00    -0.210 NA
ATOM     16  C   UNL     1      -1.905   3.142  24.798  0.00  0.00    +0.181 A 
ATOM     17  C   UNL     1      -2.490   3.601  25.155  0.00  0.00    +0.118 A 
ATOM     18  N   UNL     1      -3.176   3.147  25.203  0.00  0.00    -0.228 NA
ATOM     19  C   UNL     1      -2.322   4.374  25.389  0.00  0.00    +0.024 A 
ATOM     20  C   UNL     1      -1.570   4.689  25.267  0.00  0.00    +0.022 A 
ATOM     21  C   UNL     1      -0.984   4.230  24.910  0.00  0.00    +0.101 A 
ATOM     22  N   UNL     1      -1.151   3.457  24.676  0.00  0.00    -0.224 NA
ENDBRANCH  12  14
BRANCH   9   8
ATOM      8  C   UNL     1      -4.168  -0.181  24.237  0.00  0.00    +0.099 C 
BRANCH   8   7
ATOM      1  C   UNL     1      -4.145  -1.698  23.588  0.00  0.00    +0.031 C 
ATOM      2  C   UNL     1      -3.891  -1.577  24.363  0.00  0.00    -0.024 A 
ATOM      3  C   UNL     1      -3.625  -2.215  24.815  0.00  0.00    -0.005 A 
ATOM      4  C   UNL     1      -3.370  -2.094  25.590  0.00  0.00    -0.000 A 
ATOM      5  C   UNL     1      -3.382  -1.336  25.914  0.00  0.00    -0.000 A 
ATOM      6  C   UNL     1      -3.648  -0.698  25.464  0.00  0.00    -0.003 A 
ATOM      7  C   UNL     1      -3.902  -0.819  24.688  0.00  0.00    -0.010 A 
ENDBRANCH   8   7
ENDBRANCH   9   8
TORSDOF 3
ENDMDL
MODEL 2
REMARK VINA RESULT:     -11.9      1.140      4.786
REMARK  Name = 
REMARK  3 active torsions:
REMARK  status: ('A' for Active; 'I' for Inactive)
REMARK    1  A    between atoms: C_7  and  C_8
REMARK    2  A    between atoms: C_8  and  N_9
REMARK    3  A    between atoms: C_12  and  C_14
REMARK                            x       y       z     vdW  Elec       q    Type
REMARK                         _______ _______ _______ _____ _____    ______ ____
ROOT
ATOM      9  N   UNL     1      -3.672   2.204  24.195  0.00  0.00    -0.269 NA
ATOM     10  C   UNL     1      -3.219   2.069  23.519  0.00  0.00    +0.073 C 
ATOM     11  C   UNL     1      -3.118   1.254  23.439  0.00  0.00    +0.026 C 
ATOM     12  C   UNL     1      -3.508   0.886  24.066  0.00  0.00    +0.076 C 
ATOM     13  C   UNL     1      -3.850   1.473  24.533  0.00  0.00    +0.080 C 
ENDROOT
BRANCH  12  14
ATOM     14  C   UNL     1      -3.549   0.073  24.201  0.00  0.00    +0.142 A 
ATOM     15  N   UNL     1      -3.186  -0.335  24.820  0.00  0.00    -0.210 NA
ATOM     16  C   UNL     1      -3.372  -1.134  24.743  0.00  0.00    +0.181 A 
ATOM     17  C   UNL     1      -3.851  -1.221  24.076  0.00  0.00    +0.118 A 
ATOM     18  N   UNL     1      -3.960  -0.476  23.741  0.00  0.00    -0.228 NA
ATOM     19  C   UNL     1      -4.125  -1.969  23.861  0.00  0.00    +0.024 A 
ATOM     20  C   UNL     1      -3.921  -2.629  24.311  0.00  0.00    +0.022 A 
ATOM     21  C   UNL     1      -3.443  -2.542  24.977  0.00  0.00    +0.101 A 
ATOM     22  N   UNL     1      -3.168  -1.795  25.194  0.00  0.00    -0.224 NA
ENDBRANCH  12  14
BRANCH   9   8
ATOM      8  C   UNL     1      -3.905   2.941  24.483  0.00  0.00    +0.099 C 
BRANCH   8   7
ATOM      1  C   UNL     1      -4.537   3.774  25.760  0.00  0.00    +0.031 C 
ATOM      2  C   UNL     1      -3.723   3.780  25.626  0.00  0.00    -0.024 A 
ATOM      3  C   UNL     1      -3.224   4.202  26.130  0.00  0.00    -0.005 A 
ATOM      4  C   UNL     1      -2.411   4.208  25.995  0.00  0.00    -0.000 A 
ATOM      5  C   UNL     1      -2.095   3.792  25.357  0.00  0.00    -0.000 A 
ATOM      6  C   UNL     1      -2.593   3.369  24.853  0.00  0.00    -0.003 A 
ATOM      7  C   UNL     1      -3.407   3.364  24.988  0.00  0.00    -0.010 A 
ENDBRANCH   8   7
ENDBRANCH   9   8
TORSDOF 3
ENDMDL
MODEL 3
REMARK VINA RESULT:     -11.2      1.658      2.312
REMARK  Name = 
REMARK  3 active torsions:
REMARK  status: ('A' for Active; 'I' for Inactive)
REMARK    1  A    between atoms: C_7  and  C_8
REMARK    2  A    between atoms: C_8  and  N_9
REMARK    3  A    between atoms: C_12  and  C_14
REMARK                            x       y       z     vdW  Elec       q    Type
REMARK                         _______ _______ _______ _____ _____    ______ ____
ROOT
ATOM      9  N   UNL     1      -2.954  -0.182  24.651  0.00  0.00    -0.269 NA
ATOM     10  C   UNL     1      -2.697   0.211  23.972  0.00  0.00    +0.073 C 
ATOM     11  C   UNL     1      -3.036   0.963  23.969  0.00  0.00    +0.026 C 
ATOM     12  C   UNL     1      -3.503   1.036  24.646  0.00  0.00    +0.076 C 
ATOM     13  C   UNL     1      -3.452   0.329  25.067  0.00  0.00    +0.080 C 
ENDROOT
BRANCH  12  14
ATOM     14  C   UNL     1      -3.942   1.699  24.863  0.00  0.00    +0.142 A 
ATOM     15  N   UNL     1      -3.660   2.472  24.915  0.00  0.00    -0.210 NA
ATOM     16  C   UNL     1      -4.284   2.957  25.150  0.00  0.00    +0.181 A 
ATOM     17  C   UNL     1      -4.953   2.483  25.244  0.00  0.00    +0.118 A 
ATOM     18  N   UNL     1      -4.742   1.706  25.067  0.00  0.00    -0.228 NA
ATOM     19  C   UNL     1      -5.668   2.821  25.480  0.00  0.00    +0.024 A 
ATOM     20  C   UNL     1      -5.714   3.632  25.621  0.00  0.00    +0.022 A 
ATOM     21  C   UNL     1      -5.045   4.106  25.526  0.00  0.00    +0.101 A 
ATOM     22  N   UNL     1      -4.330   3.769  25.291  0.00  0.00    -0.224 NA
ENDBRANCH  12  14
BRANCH   9   8
ATOM      8  C   UNL     1      -2.750  -0.949  24.874  0.00  0.00    +0.099 C 
BRANCH   8   7
ATOM      1  C   UNL     1      -2.045  -2.440  24.830  0.00  0.00    +0.031 C 
ATOM      2  C   UNL     1      -2.812  -2.338  24.545  0.00  0.00    -0.024 A 
ATOM      3  C   UNL     1      -3.228  -2.981  24.238  0.00  0.00    -0.005 A 
ATOM      4  C   UNL     1      -3.995  -2.879  23.953  0.00  0.00    -0.000 A 
ATOM      5  C   UNL     1      -4.347  -2.133  23.975  0.00  0.00    -0.000 A 
ATOM      6  C   UNL     1      -3.933  -1.490  24.282  0.00  0.00    -0.003 A 
ATOM      7  C   UNL     1      -3.165  -1.592  24.567  0.00  0.00    -0.010 A 
ENDBRANCH   8   7
ENDBRANCH   9   8
TORSDOF 3
ENDMDL
MODEL 4
REMARK VINA RESULT:     -11.0      1.542      5.030
REMARK  Name = 
REMARK  3 active torsions:
REMARK  status: ('A' for Active; 'I' for Inactive)
REMARK    1  A    between atoms: C_7  and  C_8
REMARK    2  A    between atoms: C_8  and  N_9
REMARK    3  A    between atoms: C_12  and  C_14
REMARK                            x       y       z     vdW  Elec       q    Type
REMARK                         _______ _______ _______ _____ _____    ______ ____
ROOT
ATOM      9  N   UNL     1      -1.210   1.979  24.926  0.00  0.00    -0.269 NA
ATOM     10  C   UNL     1      -0.746   1.676  25.538  0.00  0.00    +0.073 C 
ATOM     11  C   UNL     1      -0.954   0.884  25.645  0.00  0.00    +0.026 C 
ATOM     12  C   UNL     1      -1.545   0.699  25.100  0.00  0.00    +0.076 C 
ATOM     13  C   UNL     1      -1.703   1.376  24.656  0.00  0.00    +0.080 C 
ENDROOT
BRANCH  12  14
ATOM     14  C   UNL     1      -1.913  -0.035  25.015  0.00  0.00    +0.142 A 
ATOM     15  N   UNL     1      -1.570  -0.717  24.704  0.00  0.00    -0.210 NA
ATOM     16  C   UNL     1      -2.134  -1.317  24.722  0.00  0.00    +0.181 A 
ATOM     17  C   UNL     1      -2.827  -1.007  25.045  0.00  0.00    +0.118 A 
ATOM     18  N   UNL     1      -2.691  -0.214  25.226  0.00  0.00    -0.228 NA
ATOM     19  C   UNL     1      -3.492  -1.488  25.132  0.00  0.00    +0.024 A 
ATOM     20  C   UNL     1      -3.465  -2.277  24.897  0.00  0.00    +0.022 A 
ATOM     21  C   UNL     1      -2.772  -2.588  24.575  0.00  0.00    +0.101 A 
ATOM     22  N   UNL     1      -2.106  -2.108  24.487  0.00  0.00    -0.224 NA
ENDBRANCH  12  14
BRANCH   9   8
ATOM      8  C   UNL     1      -1.184   2.751  24.636  0.00  0.00    +0.099 C 
BRANCH   8   7
ATOM      1  C   UNL     1      -0.589   4.289  24.686  0.00  0.00    +0.031 C 
ATOM      2  C   UNL     1      -1.316   4.116  25.036  0.00  0.00    -0.024 A 
ATOM      3  C   UNL     1      -1.745   4.713  25.412  0.00  0.00    -0.005 A 
ATOM      4  C   UNL     1      -2.472   4.539  25.762  0.00  0.00    -0.000 A 
ATOM      5  C   UNL     1      -2.769   3.771  25.737  0.00  0.00    -0.000 A 
ATOM      6  C   UNL     1      -2.340   3.174  25.361  0.00  0.00    -0.003 A 
ATOM      7  C   UNL     1      -1.613   3.347  25.011  0.00  0.00    -0.010 A 
ENDBRANCH   8   7
ENDBRANCH   9   8
TORSDOF 3
ENDMDL
