MODEL 1
REMARK VINA RESULT:     -15.7      0.000      0.000
REMARK  Name = 
REMARK  1 active torsions:
REMARK  status: ('A' for Active; 'I' for Inactive)
REMARK    1  A    between atoms: C_14  and  C_16
REMARK                            x       y       z     vdW  Elec       q    Type
REMARK                         _______ _______ _______ _____ _____    ______ ____
ROOT
ATOM      1  C   UNL     1      -1.688   5.904  25.231  0.00  0.00    +0.012 C 
ATOM      2  C   UNL     1      -1.583   5.101  25.074  0.00  0.00    +0.103 C 
ATOM      3  C   UNL     1      -2.162   4.516  25.133  0.00  0.00    +0.051 C 
ATOM      4  C   UNL     1      -2.958   4.546  25.347  0.00  0.00    +0.004 C 
ATOM      5  C   UNL     1      -3.410   3.856  25.356  0.00  0.00    +0.001 C 
ATOM      6  C   UNL     1      -3.065   3.135  25.149  0.00  0.00    +0.008 C 
ATOM      7  C   UNL     1      -3.862   3.166  25.364  0.00  0.00    +0.000 C 
ATOM      8  C   UNL     1      -3.517   2.444  25.157  0.00  0.00    +0.034 C 
ATOM      9  C   UNL     1      -3.173   1.724  24.950  0.00  0.00    +0.023 A 
ATOM     10  C   UNL     1      -2.377   1.693  24.736  0.00  0.00    +0.063 A 
ATOM     11  N   UNL     1      -2.190   0.909  24.560  0.00  0.00    -0.227 NA
ATOM     12  C   UNL     1      -2.871   0.455  24.666  0.00  0.00    +0.185 A 
ATOM     13  N   UNL     1      -2.933  -0.360  24.552  0.00  0.00    -0.150 NA
ATOM     14  C   UNL     1      -3.653  -0.740  24.681  0.00  0.00    +0.275 C 
ATOM     15  O   UNL     1      -4.311  -0.307  24.924  0.00  0.00    -0.268 OA
ATOM     24  S   UNL     1      -3.478   0.959  24.908  0.00  0.00    -0.054 S 
ATOM     25  C   UNL     1      -1.925   2.384  24.727  0.00  0.00    +0.044 C 
ATOM     26  C   UNL     1      -1.130   2.353  24.513  0.00  0.00    +0.006 C 
ATOM     27  C   UNL     1      -2.270   3.104  24.934  0.00  0.00    +0.046 C 
ATOM     28  C   UNL     1      -1.817   3.795  24.926  0.00  0.00    +0.170 C 
ATOM     29  O   UNL     1      -1.026   3.934  24.740  0.00  0.00    -0.452 OA
ATOM     30  C   UNL     1      -0.881   4.741  24.831  0.00  0.00    +0.316 C 
ATOM     31  O   UNL     1      -0.161   5.122  24.703  0.00  0.00    -0.250 OA
ENDROOT
BRANCH  14  16
ATOM     16  C   UNL     1      -3.716  -1.555  24.566  0.00  0.00    +0.110 A 
ATOM     17  C   UNL     1      -3.468  -2.076  25.156  0.00  0.00    +0.147 A 
ATOM     18  F   UNL     1      -3.157  -1.781  25.863  0.00  0.00    -0.204 F 
ATOM     19  C   UNL     1      -3.530  -2.890  25.042  0.00  0.00    +0.030 A 
ATOM     20  C   UNL     1      -3.841  -3.185  24.336  0.00  0.00    +0.005 A 
ATOM     21  C   UNL     1      -4.089  -2.664  23.746  0.00  0.00    +0.030 A 
ATOM     22  C   UNL     1      -4.026  -1.849  23.861  0.00  0.00    +0.147 A 
ATOM     23  F   UNL     1      -4.274  -1.330  23.270  0.00  0.00    -0.204 F 
ENDBRANCH  14  16
TORSDOF 1
ENDMDL
MODEL 2
REMARK VINA RESULT:     -15.4      1.935      5.854
REMARK  Name = 
REMARK  1 active torsions:
REMARK  status: ('A' for Active; 'I' for Inactive)
REMARK    1  A    between atoms: C_14  and  C_16
REMARK                            x       y       z     vdW  Elec       q    Type
REMARK                         _______ _______ _______ _____ _____    ______ ____
ROOT
ATOM      1  C   UNL     1      -3.583  -3.435  24.568  0.00  0.00    +0.012 C 
ATOM      2  C   UNL     1      -3.613  -2.625  24.417  0.00  0.00    +0.103 C 
ATOM      3  C   UNL     1      -3.098  -2.056  24.721  0.00  0.00    +0.051 C 
ATOM      4  C   UNL     1      -2.448  -2.113  25.226  0.00  0.00    +0.004 C 
ATOM      5  C   UNL     1      -2.030  -1.434  25.438  0.00  0.00    +0.001 C 
ATOM      6  C   UNL     1      -2.262  -0.698  25.145  0.00  0.00    +0.008 C 
ATOM      7  C   UNL     1      -1.612  -0.756  25.651  0.00  0.00    +0.000 C 
ATOM      8  C   UNL     1      -1.844  -0.019  25.357  0.00  0.00    +0.034 C 
ATOM      9  C   UNL     1      -2.075   0.716  25.065  0.00  0.00    +0.023 A 
ATOM     10  C   UNL     1      -2.725   0.773  24.560  0.00  0.00    +0.063 A 
ATOM     11  N   UNL     1      -2.823   1.568  24.359  0.00  0.00    -0.227 NA
ATOM     12  C   UNL     1      -2.235   2.002  24.740  0.00  0.00    +0.185 A 
ATOM     13  N   UNL     1      -2.127   2.818  24.694  0.00  0.00    -0.150 NA
ATOM     14  C   UNL     1      -1.511   3.177  25.108  0.00  0.00    +0.275 C 
ATOM     15  O   UNL     1      -1.002   2.719  25.568  0.00  0.00    -0.268 OA
ATOM     24  S   UNL     1      -1.772   1.475  25.176  0.00  0.00    -0.054 S 
ATOM     25  C   UNL     1      -3.143   0.094  24.347  0.00  0.00    +0.044 C 
ATOM     26  C   UNL     1      -3.793   0.152  23.842  0.00  0.00    +0.006 C 
ATOM     27  C   UNL     1      -2.912  -0.641  24.640  0.00  0.00    +0.046 C 
ATOM     28  C   UNL     1      -3.330  -1.320  24.428  0.00  0.00    +0.170 C 
ATOM     29  O   UNL     1      -3.988  -1.434  23.943  0.00  0.00    -0.452 OA
ATOM     30  C   UNL     1      -4.163  -2.240  23.937  0.00  0.00    +0.316 C 
ATOM     31  O   UNL     1      -4.779  -2.599  23.523  0.00  0.00    -0.250 OA
ENDROOT
BRANCH  14  16
ATOM     16  C   UNL     1      -1.403   3.993  25.061  0.00  0.00    +0.110 A 
ATOM     17  C   UNL     1      -1.904   4.501  25.476  0.00  0.00    +0.147 A 
ATOM     18  F   UNL     1      -2.514   4.191  25.939  0.00  0.00    -0.204 F 
ATOM     19  C   UNL     1      -1.796   5.317  25.430  0.00  0.00    +0.030 A 
ATOM     20  C   UNL     1      -1.186   5.627  24.968  0.00  0.00    +0.005 A 
ATOM     21  C   UNL     1      -0.685   5.119  24.553  0.00  0.00    +0.030 A 
ATOM     22  C   UNL     1      -0.793   4.303  24.600  0.00  0.00    +0.147 A 
ATOM     23  F   UNL     1      -0.291   3.796  24.184  0.00  0.00    -0.204 F 
ENDBRANCH  14  16
TORSDOF 1
ENDMDL
MODEL 3
REMARK VINA RESULT:     -13.5      0.917      1.561
REMARK  Name = 
REMARK  1 active torsions:
REMARK  status: ('A' for Active; 'I' for Inactive)
REMARK    1  A    between atoms: C_14  and  C_16
REMARK                            x       y       z     vdW  Elec       q    Type
REMARK                         _______ _______ _______ _____ _____    ______ ____
ROOT
ATOM      1  C   UNL     1      -0.641   5.705  24.964  0.00  0.00    +0.012 C 
ATOM      2  C   UNL     1      -1.199   5.097  24.967  0.00  0.00    +0.103 C 
ATOM      3  C   UNL     1      -1.044   4.296  24.838  0.00  0.00    +0.051 C 
ATOM      4  C   UNL     1      -0.346   3.888  24.680  0.00  0.00    +0.004 C 
ATOM      5  C   UNL     1      -0.361   3.069  24.574  0.00  0.00    +0.001 C 
ATOM      6  C   UNL     1      -1.076   2.660  24.627  0.00  0.00    +0.008 C 
ATOM      7  C   UNL     1      -0.377   2.251  24.468  0.00  0.00    +0.000 C 
ATOM      8  C   UNL     1      -1.092   1.842  24.521  0.00  0.00    +0.034 C 
ATOM      9  C   UNL     1      -1.806   1.433  24.574  0.00  0.00    +0.023 A 
ATOM     10  C   UNL     1      -2.505   1.842  24.732  0.00  0.00    +0.063 A 
ATOM     11  N   UNL     1      -3.122   1.294  24.752  0.00  0.00    -0.227 NA
ATOM     12  C   UNL     1      -2.804   0.547  24.606  0.00  0.00    +0.185 A 
ATOM     13  N   UNL     1      -3.225  -0.162  24.575  0.00  0.00    -0.150 NA
ATOM     14  C   UNL     1      -2.831  -0.870  24.423  0.00  0.00    +0.275 C 
ATOM     15  O   UNL     1      -2.015  -0.870  24.301  0.00  0.00    -0.268 OA
ATOM     24  S   UNL     1      -1.991   0.633  24.496  0.00  0.00    -0.054 S 
ATOM     25  C   UNL     1      -2.489   2.660  24.838  0.00  0.00    +0.044 C 
ATOM     26  C   UNL     1      -3.188   3.068  24.996  0.00  0.00    +0.006 C 
ATOM     27  C   UNL     1      -1.775   3.068  24.785  0.00  0.00    +0.046 C 
ATOM     28  C   UNL     1      -1.759   3.887  24.891  0.00  0.00    +0.170 C 
ATOM     29  O   UNL     1      -2.355   4.434  25.053  0.00  0.00    -0.452 OA
ATOM     30  C   UNL     1      -2.009   5.182  25.100  0.00  0.00    +0.316 C 
ATOM     31  O   UNL     1      -2.403   5.890  25.252  0.00  0.00    -0.250 OA
ENDROOT
BRANCH  14  16
ATOM     16  C   UNL     1      -3.253  -1.578  24.392  0.00  0.00    +0.110 A 
ATOM     17  C   UNL     1      -3.038  -2.209  24.879  0.00  0.00    +0.147 A 
ATOM     18  F   UNL     1      -2.400  -2.130  25.399  0.00  0.00    -0.204 F 
ATOM     19  C   UNL     1      -3.459  -2.917  24.849  0.00  0.00    +0.030 A 
ATOM     20  C   UNL     1      -4.096  -2.996  24.330  0.00  0.00    +0.005 A 
ATOM     21  C   UNL     1      -4.310  -2.366  23.843  0.00  0.00    +0.030 A 
ATOM     22  C   UNL     1      -3.889  -1.657  23.873  0.00  0.00    +0.147 A 
ATOM     23  F   UNL     1      -4.105  -1.028  23.385  0.00  0.00    -0.204 F 
ENDBRANCH  14  16
TORSDOF 1
ENDMDL
