MODEL 1
REMARK VINA RESULT:     -12.8      0.000      0.000
REMARK  Name = 
REMARK  8 active torsions:
REMARK  status: ('A' for Active; 'I' for Inactive)
REMARK    1  A    between atoms: N_2  and  C_3
REMARK    2  A    between atoms: N_2  and  C_26
REMARK    3  A    between atoms: C_3  and  C_4
REMARK    4  A    between atoms: C_11  and  C_12
REMARK    5  A    between atoms: C_12  and  N_13
REMARK    6  A    between atoms: C_14  and  C_16
REMARK    7  A    between atoms: C_19  and  C_22
REMARK    8  A    between atoms: C_26  and  C_27
REMARK                            x       y       z     vdW  Elec       q    Type
REMARK                         _______ _______ _______ _____ _____    ______ ____
ROOT
ATOM      4  C   UNL     1      -4.352   2.702  25.111  0.00  0.00    +0.032 C 
ATOM      5  C   UNL     1      -3.877   2.265  24.677  0.00  0.00    +0.073 C 
ATOM      6  N   UNL     1      -4.597   2.026  25.004  0.00  0.00    -0.272 NA
ATOM      7  C   UNL     1      -4.985   2.846  25.529  0.00  0.00    +0.072 C 
ATOM      8  C   UNL     1      -5.453   3.114  25.897  0.00  0.00    +0.017 C 
ATOM      9  C   UNL     1      -5.057   2.461  25.429  0.00  0.00    +0.005 C 
ATOM     10  C   UNL     1      -5.485   1.696  25.395  0.00  0.00    +0.018 C 
ATOM     11  C   UNL     1      -5.048   1.234  24.973  0.00  0.00    +0.079 C 
ENDROOT
BRANCH   4   3
ATOM      3  C   UNL     1      -4.118   3.480  25.262  0.00  0.00    +0.074 C 
BRANCH   3   2
ATOM      1  C   UNL     1      -3.217   3.848  24.215  0.00  0.00    +0.090 C 
ATOM      2  N   UNL     1      -3.374   3.741  25.018  0.00  0.00    -0.268 NA
BRANCH   2  26
ATOM     26  C   UNL     1      -2.787   3.895  25.577  0.00  0.00    +0.099 C 
BRANCH  26  27
ATOM     27  C   UNL     1      -2.106   4.306  25.358  0.00  0.00    -0.006 A 
ATOM     28  C   UNL     1      -1.405   3.895  25.214  0.00  0.00    -0.003 A 
ATOM     29  C   UNL     1      -0.724   4.306  24.995  0.00  0.00    -0.000 A 
ATOM     30  C   UNL     1      -0.745   5.127  24.919  0.00  0.00    -0.000 A 
ATOM     31  C   UNL     1      -1.445   5.538  25.063  0.00  0.00    -0.000 A 
ATOM     32  C   UNL     1      -2.127   5.127  25.282  0.00  0.00    -0.003 A 
ENDBRANCH  26  27
ENDBRANCH   2  26
ENDBRANCH   3   2
ENDBRANCH   4   3
BRANCH  11  12
ATOM     12  C   UNL     1      -5.007   0.468  24.669  0.00  0.00    +0.131 C 
BRANCH  12  13
ATOM     13  N   UNL     1      -4.323   0.019  24.771  0.00  0.00    -0.200 NA
ATOM     14  C   UNL     1      -4.272  -0.734  24.438  0.00  0.00    +0.265 C 
ATOM     15  O   UNL     1      -4.903  -1.037  24.003  0.00  0.00    -0.268 OA
BRANCH  14  16
ATOM     16  C   UNL     1      -3.587  -1.183  24.540  0.00  0.00    +0.055 A 
ATOM     17  C   UNL     1      -3.629  -1.919  24.912  0.00  0.00    +0.005 A 
ATOM     18  C   UNL     1      -2.944  -2.369  25.015  0.00  0.00    +0.004 A 
ATOM     19  C   UNL     1      -2.219  -2.083  24.745  0.00  0.00    +0.071 A 
ATOM     20  C   UNL     1      -2.178  -1.347  24.372  0.00  0.00    +0.004 A 
ATOM     21  C   UNL     1      -2.861  -0.898  24.270  0.00  0.00    +0.005 A 
BRANCH  19  22
ATOM     22  C   UNL     1      -1.534  -2.532  24.846  0.00  0.00    +0.419 C 
ATOM     23  F   UNL     1      -0.850  -2.981  24.947  0.00  0.00    -0.166 F 
ATOM     24  F   UNL     1      -1.761  -3.018  24.220  0.00  0.00    -0.166 F 
ATOM     25  F   UNL     1      -1.308  -2.046  25.472  0.00  0.00    -0.166 F 
ENDBRANCH  19  22
ENDBRANCH  14  16
ENDBRANCH  12  13
ENDBRANCH  11  12
TORSDOF 8
ENDMDL
MODEL 2
REMARK VINA RESULT:     -12.7      2.622      5.628
REMARK  Name = 
REMARK  8 active torsions:
REMARK  status: ('A' for Active; 'I' for Inactive)
REMARK    1  A    between atoms: N_2  and  C_3
REMARK    2  A    between atoms: N_2  and  C_26
REMARK    3  A    between atoms: C_3  and  C_4
REMARK    4  A    between atoms: C_11  and  C_12
REMARK    5  A    between atoms: C_12  and  N_13
REMARK    6  A    between atoms: C_14  and  C_16
REMARK    7  A    between atoms: C_19  and  C_22
REMARK    8  A    between atoms: C_26  and  C_27
REMARK                            x       y       z     vdW  Elec       q    Type
REMARK                         _______ _______ _______ _____ _____    ______ ____
ROOT
ATOM      4  C   UNL     1      -4.756   1.151  25.087  0.00  0.00    +0.032 C 
ATOM      5  C   UNL     1      -4.048   1.312  25.365  0.00  0.00    +0.073 C 
ATOM      6  N   UNL     1      -4.685   1.835  25.321  0.00  0.00    -0.272 NA
ATOM      7  C   UNL     1      -5.488   1.310  24.899  0.00  0.00    +0.072 C 
ATOM      8  C   UNL     1      -6.108   1.289  24.693  0.00  0.00    +0.017 C 
ATOM      9  C   UNL     1      -5.377   1.669  25.047  0.00  0.00    +0.005 C 
ATOM     10  C   UNL     1      -5.455   2.511  25.282  0.00  0.00    +0.018 C 
ATOM     11  C   UNL     1      -4.774   2.710  25.564  0.00  0.00    +0.079 C 
ENDROOT
BRANCH   4   3
ATOM      3  C   UNL     1      -4.887   0.385  24.807  0.00  0.00    +0.074 C 
BRANCH   3   2
ATOM      1  C   UNL     1      -4.026  -0.403  25.632  0.00  0.00    +0.090 C 
ATOM      2  N   UNL     1      -4.298  -0.188  24.883  0.00  0.00    -0.268 NA
BRANCH   2  26
ATOM     26  C   UNL     1      -3.980  -0.545  24.211  0.00  0.00    +0.099 C 
BRANCH  26  27
ATOM     27  C   UNL     1      -3.847  -1.359  24.200  0.00  0.00    -0.006 A 
ATOM     28  C   UNL     1      -3.165  -1.670  24.543  0.00  0.00    -0.003 A 
ATOM     29  C   UNL     1      -3.032  -2.484  24.532  0.00  0.00    -0.000 A 
ATOM     30  C   UNL     1      -3.581  -2.987  24.177  0.00  0.00    -0.000 A 
ATOM     31  C   UNL     1      -4.264  -2.676  23.833  0.00  0.00    -0.000 A 
ATOM     32  C   UNL     1      -4.397  -1.862  23.844  0.00  0.00    -0.003 A 
ENDBRANCH  26  27
ENDBRANCH   2  26
ENDBRANCH   3   2
ENDBRANCH   4   3
BRANCH  11  12
ATOM     12  C   UNL     1      -4.362   3.344  25.893  0.00  0.00    +0.131 C 
BRANCH  12  13
ATOM     13  N   UNL     1      -3.663   3.609  25.543  0.00  0.00    -0.200 NA
ATOM     14  C   UNL     1      -3.142   4.083  25.972  0.00  0.00    +0.265 C 
ATOM     15  O   UNL     1      -3.319   4.292  26.750  0.00  0.00    -0.268 OA
BRANCH  14  16
ATOM     16  C   UNL     1      -2.444   4.348  25.623  0.00  0.00    +0.055 A 
ATOM     17  C   UNL     1      -1.781   3.857  25.602  0.00  0.00    +0.005 A 
ATOM     18  C   UNL     1      -1.082   4.122  25.252  0.00  0.00    +0.004 A 
ATOM     19  C   UNL     1      -1.046   4.877  24.923  0.00  0.00    +0.071 A 
ATOM     20  C   UNL     1      -1.709   5.368  24.944  0.00  0.00    +0.004 A 
ATOM     21  C   UNL     1      -2.407   5.104  25.294  0.00  0.00    +0.005 A 
BRANCH  19  22
ATOM     22  C   UNL     1      -0.348   5.143  24.574  0.00  0.00    +0.419 C 
ATOM     23  F   UNL     1       0.351   5.410  24.224  0.00  0.00    -0.166 F 
ATOM     24  F   UNL     1      -0.443   5.875  24.942  0.00  0.00    -0.166 F 
ATOM     25  F   UNL     1      -0.253   4.412  24.205  0.00  0.00    -0.166 F 
ENDBRANCH  19  22
ENDBRANCH  14  16
ENDBRANCH  12  13
ENDBRANCH  11  12
TORSDOF 8
ENDMDL
MODEL 3
REMARK VINA RESULT:     -12.3      4.514      5.840
REMARK  Name = 
REMARK  8 active torsions:
REMARK  status: ('A' for Active; 'I' for Inactive)
REMARK    1  A    between atoms: N_2  and  C_3
REMARK    2  A    between atoms: N_2  and  C_26
REMARK    3  A    between atoms: C_3  and  C_4
REMARK    4  A    between atoms: C_11  and  C_12
REMARK    5  A    between atoms: C_12  and  N_13
REMARK    6  A    between atoms: C_14  and  C_16
REMARK    7  A    between atoms: C_19  and  C_22
REMARK    8  A    between atoms: C_26  and  C_27
REMARK                            x       y       z     vdW  Elec       q    Type
REMARK                         _______ _______ _______ _____ _____    ______ ____
ROOT
ATOM      4  C   UNL     1      -1.118   0.487  24.150  0.00  0.00    +0.032 C 
ATOM      5  C   UNL     1      -0.951   0.941  23.540  0.00  0.00    +0.073 C 
ATOM      6  N   UNL     1      -0.500   0.305  23.813  0.00  0.00    -0.272 NA
ATOM      7  C   UNL     1      -0.997  -0.093  24.646  0.00  0.00    +0.072 C 
ATOM      8  C   UNL     1      -1.035  -0.530  25.129  0.00  0.00    +0.017 C 
ATOM      9  C   UNL     1      -0.670  -0.135  24.412  0.00  0.00    +0.005 C 
ATOM     10  C   UNL     1       0.084  -0.479  24.124  0.00  0.00    +0.018 C 
ATOM     11  C   UNL     1       0.284  -0.058  23.519  0.00  0.00    +0.079 C 
ENDROOT
BRANCH   4   3
ATOM      3  C   UNL     1      -1.811   0.655  24.567  0.00  0.00    +0.074 C 
BRANCH   3   2
ATOM      1  C   UNL     1      -2.043   2.061  24.465  0.00  0.00    +0.090 C 
ATOM      2  N   UNL     1      -2.290   1.285  24.334  0.00  0.00    -0.268 NA
BRANCH   2  26
ATOM     26  C   UNL     1      -3.015   1.138  23.970  0.00  0.00    +0.099 C 
BRANCH  26  27
ATOM     27  C   UNL     1      -3.709   1.449  24.291  0.00  0.00    -0.006 A 
ATOM     28  C   UNL     1      -4.194   0.976  24.761  0.00  0.00    -0.003 A 
ATOM     29  C   UNL     1      -4.888   1.288  25.082  0.00  0.00    -0.000 A 
ATOM     30  C   UNL     1      -5.095   2.073  24.933  0.00  0.00    -0.000 A 
ATOM     31  C   UNL     1      -4.609   2.546  24.463  0.00  0.00    -0.000 A 
ATOM     32  C   UNL     1      -3.916   2.234  24.142  0.00  0.00    -0.003 A 
ENDBRANCH  26  27
ENDBRANCH   2  26
ENDBRANCH   3   2
ENDBRANCH   4   3
BRANCH  11  12
ATOM     12  C   UNL     1       0.867   0.022  22.941  0.00  0.00    +0.131 C 
BRANCH  12  13
ATOM     13  N   UNL     1       1.660   0.079  23.160  0.00  0.00    -0.200 NA
ATOM     14  C   UNL     1       2.249   0.061  22.582  0.00  0.00    +0.265 C 
ATOM     15  O   UNL     1       2.044  -0.013  21.786  0.00  0.00    -0.268 OA
BRANCH  14  16
ATOM     16  C   UNL     1       3.042   0.118  22.800  0.00  0.00    +0.055 A 
ATOM     17  C   UNL     1       3.456   0.821  22.675  0.00  0.00    +0.005 A 
ATOM     18  C   UNL     1       4.249   0.877  22.893  0.00  0.00    +0.004 A 
ATOM     19  C   UNL     1       4.629   0.231  23.237  0.00  0.00    +0.071 A 
ATOM     20  C   UNL     1       4.216  -0.472  23.362  0.00  0.00    +0.004 A 
ATOM     21  C   UNL     1       3.423  -0.529  23.144  0.00  0.00    +0.005 A 
BRANCH  19  22
ATOM     22  C   UNL     1       5.423   0.287  23.456  0.00  0.00    +0.419 C 
ATOM     23  F   UNL     1       6.216   0.343  23.675  0.00  0.00    -0.166 F 
ATOM     24  F   UNL     1       5.198   0.581  24.193  0.00  0.00    -0.166 F 
ATOM     25  F   UNL     1       5.648  -0.007  22.719  0.00  0.00    -0.166 F 
ENDBRANCH  19  22
ENDBRANCH  14  16
ENDBRANCH  12  13
ENDBRANCH  11  12
TORSDOF 8
ENDMDL
MODEL 4
REMARK VINA RESULT:     -11.9      2.390      3.519
REMARK  Name = 
REMARK  8 active torsions:
REMARK  status: ('A' for Active; 'I' for Inactive)
REMARK    1  A    between atoms: N_2  and  C_3
REMARK    2  A    between atoms: N_2  and  C_26
REMARK    3  A    between atoms: C_3  and  C_4
REMARK    4  A    between atoms: C_11  and  C_12
REMARK    5  A    between atoms: C_12  and  N_13
REMARK    6  A    between atoms: C_14  and  C_16
REMARK    7  A    between atoms: C_19  and  C_22
REMARK    8  A    between atoms: C_26  and  C_27
REMARK                            x       y       z     vdW  Elec       q    Type
REMARK                         _______ _______ _______ _____ _____    ______ ____
ROOT
ATOM      4  C   UNL     1      -0.190   1.613  24.779  0.00  0.00    +0.032 C 
ATOM      5  C   UNL     1      -0.701   1.312  25.282  0.00  0.00    +0.073 C 
ATOM      6  N   UNL     1      -0.232   0.887  24.753  0.00  0.00    -0.272 NA
ATOM      7  C   UNL     1       0.344   1.585  24.221  0.00  0.00    +0.072 C 
ATOM      8  C   UNL     1       0.793   1.722  23.767  0.00  0.00    +0.017 C 
ATOM      9  C   UNL     1       0.268   1.189  24.262  0.00  0.00    +0.005 C 
ATOM     10  C   UNL     1       0.336   0.328  24.107  0.00  0.00    +0.018 C 
ATOM     11  C   UNL     1      -0.155  -0.006  24.586  0.00  0.00    +0.079 C 
ENDROOT
BRANCH   4   3
ATOM      3  C   UNL     1      -0.105   2.434  24.771  0.00  0.00    +0.074 C 
BRANCH   3   2
ATOM      1  C   UNL     1      -0.554   2.999  26.005  0.00  0.00    +0.090 C 
ATOM      2  N   UNL     1      -0.637   2.907  25.189  0.00  0.00    -0.268 NA
BRANCH   2  26
ATOM     26  C   UNL     1      -1.251   3.288  24.791  0.00  0.00    +0.099 C 
BRANCH  26  27
ATOM     27  C   UNL     1      -1.420   4.079  24.953  0.00  0.00    -0.006 A 
ATOM     28  C   UNL     1      -2.109   4.280  25.359  0.00  0.00    -0.003 A 
ATOM     29  C   UNL     1      -2.277   5.071  25.520  0.00  0.00    -0.000 A 
ATOM     30  C   UNL     1      -1.756   5.662  25.276  0.00  0.00    -0.000 A 
ATOM     31  C   UNL     1      -1.066   5.461  24.870  0.00  0.00    -0.000 A 
ATOM     32  C   UNL     1      -0.898   4.670  24.709  0.00  0.00    -0.003 A 
ENDBRANCH  26  27
ENDBRANCH   2  26
ENDBRANCH   3   2
ENDBRANCH   4   3
BRANCH  11  12
ATOM     12  C   UNL     1      -0.445  -0.743  24.817  0.00  0.00    +0.131 C 
BRANCH  12  13
ATOM     13  N   UNL     1      -1.197  -0.984  24.578  0.00  0.00    -0.200 NA
ATOM     14  C   UNL     1      -1.505  -1.700  24.847  0.00  0.00    +0.265 C 
ATOM     15  O   UNL     1      -1.061  -2.176  25.354  0.00  0.00    -0.268 OA
BRANCH  14  16
ATOM     16  C   UNL     1      -2.257  -1.941  24.608  0.00  0.00    +0.055 A 
ATOM     17  C   UNL     1      -2.355  -2.662  24.218  0.00  0.00    +0.005 A 
ATOM     18  C   UNL     1      -3.107  -2.903  23.979  0.00  0.00    +0.004 A 
ATOM     19  C   UNL     1      -3.761  -2.423  24.130  0.00  0.00    +0.071 A 
ATOM     20  C   UNL     1      -3.663  -1.703  24.521  0.00  0.00    +0.004 A 
ATOM     21  C   UNL     1      -2.912  -1.462  24.759  0.00  0.00    +0.005 A 
BRANCH  19  22
ATOM     22  C   UNL     1      -4.513  -2.663  23.892  0.00  0.00    +0.419 C 
ATOM     23  F   UNL     1      -5.266  -2.903  23.653  0.00  0.00    -0.166 F 
ATOM     24  F   UNL     1      -4.690  -1.888  23.672  0.00  0.00    -0.166 F 
ATOM     25  F   UNL     1      -4.337  -3.438  24.111  0.00  0.00    -0.166 F 
ENDBRANCH  19  22
ENDBRANCH  14  16
ENDBRANCH  12  13
ENDBRANCH  11  12
TORSDOF 8
ENDMDL
MODEL 5
REMARK VINA RESULT:     -11.5      4.617      6.600
REMARK  Name = 
REMARK  8 active torsions:
REMARK  status: ('A' for Active; 'I' for Inactive)
REMARK    1  A    between atoms: N_2  and  C_3
REMARK    2  A    between atoms: N_2  and  C_26
REMARK    3  A    between atoms: C_3  and  C_4
REMARK    4  A    between atoms: C_11  and  C_12
REMARK    5  A    between atoms: C_12  and  N_13
REMARK    6  A    between atoms: C_14  and  C_16
REMARK    7  A    between atoms: C_19  and  C_22
REMARK    8  A    between atoms: C_26  and  C_27
REMARK                            x       y       z     vdW  Elec       q    Type
REMARK                         _______ _______ _______ _____ _____    ______ ____
ROOT
ATOM      4  C   UNL     1      -0.833  -0.261  24.330  0.00  0.00    +0.032 C 
ATOM      5  C   UNL     1      -0.570  -0.847  23.890  0.00  0.00    +0.073 C 
ATOM      6  N   UNL     1      -0.263  -0.081  23.917  0.00  0.00    -0.272 NA
ATOM      7  C   UNL     1      -0.841   0.460  24.605  0.00  0.00    +0.072 C 
ATOM      8  C   UNL     1      -0.973   1.015  24.923  0.00  0.00    +0.017 C 
ATOM      9  C   UNL     1      -0.527   0.488  24.351  0.00  0.00    +0.005 C 
ATOM     10  C   UNL     1       0.144   0.861  23.926  0.00  0.00    +0.018 C 
ATOM     11  C   UNL     1       0.433   0.314  23.479  0.00  0.00    +0.079 C 
ENDROOT
BRANCH   4   3
ATOM      3  C   UNL     1      -1.482  -0.417  24.817  0.00  0.00    +0.074 C 
BRANCH   3   2
ATOM      1  C   UNL     1      -1.466  -1.794  24.436  0.00  0.00    +0.090 C 
ATOM      2  N   UNL     1      -1.849  -1.156  24.791  0.00  0.00    -0.268 NA
BRANCH   2  26
ATOM     26  C   UNL     1      -2.599  -1.256  25.120  0.00  0.00    +0.099 C 
BRANCH  26  27
ATOM     27  C   UNL     1      -3.180  -1.669  24.705  0.00  0.00    -0.006 A 
ATOM     28  C   UNL     1      -3.177  -2.493  24.702  0.00  0.00    -0.003 A 
ATOM     29  C   UNL     1      -3.759  -2.906  24.287  0.00  0.00    -0.000 A 
ATOM     30  C   UNL     1      -4.342  -2.494  23.874  0.00  0.00    -0.000 A 
ATOM     31  C   UNL     1      -4.345  -1.669  23.877  0.00  0.00    -0.000 A 
ATOM     32  C   UNL     1      -3.763  -1.256  24.292  0.00  0.00    -0.003 A 
ENDBRANCH  26  27
ENDBRANCH   2  26
ENDBRANCH   3   2
ENDBRANCH   4   3
BRANCH  11  12
ATOM     12  C   UNL     1       1.026   0.167  22.925  0.00  0.00    +0.131 C 
BRANCH  12  13
ATOM     13  N   UNL     1       1.818   0.174  23.156  0.00  0.00    -0.200 NA
ATOM     14  C   UNL     1       2.413   0.095  22.590  0.00  0.00    +0.265 C 
ATOM     15  O   UNL     1       2.217   0.009  21.794  0.00  0.00    -0.268 OA
BRANCH  14  16
ATOM     16  C   UNL     1       3.205   0.102  22.821  0.00  0.00    +0.055 A 
ATOM     17  C   UNL     1       3.553  -0.582  23.125  0.00  0.00    +0.005 A 
ATOM     18  C   UNL     1       4.345  -0.574  23.356  0.00  0.00    +0.004 A 
ATOM     19  C   UNL     1       4.789   0.117  23.283  0.00  0.00    +0.071 A 
ATOM     20  C   UNL     1       4.441   0.801  22.980  0.00  0.00    +0.004 A 
ATOM     21  C   UNL     1       3.650   0.794  22.749  0.00  0.00    +0.005 A 
BRANCH  19  22
ATOM     22  C   UNL     1       5.581   0.125  23.514  0.00  0.00    +0.419 C 
ATOM     23  F   UNL     1       6.373   0.134  23.746  0.00  0.00    -0.166 F 
ATOM     24  F   UNL     1       5.357   0.369  24.270  0.00  0.00    -0.166 F 
ATOM     25  F   UNL     1       5.805  -0.118  22.759  0.00  0.00    -0.166 F 
ENDBRANCH  19  22
ENDBRANCH  14  16
ENDBRANCH  12  13
ENDBRANCH  11  12
TORSDOF 8
ENDMDL
MODEL 6
REMARK VINA RESULT:     -11.2      3.045      6.086
REMARK  Name = 
REMARK  8 active torsions:
REMARK  status: ('A' for Active; 'I' for Inactive)
REMARK    1  A    between atoms: N_2  and  C_3
REMARK    2  A    between atoms: N_2  and  C_26
REMARK    3  A    between atoms: C_3  and  C_4
REMARK    4  A    between atoms: C_11  and  C_12
REMARK    5  A    between atoms: C_12  and  N_13
REMARK    6  A    between atoms: C_14  and  C_16
REMARK    7  A    between atoms: C_19  and  C_22
REMARK    8  A    between atoms: C_26  and  C_27
REMARK                            x       y       z     vdW  Elec       q    Type
REMARK                         _______ _______ _______ _____ _____    ______ ____
ROOT
ATOM      4  C   UNL     1      -0.808   0.498  24.600  0.00  0.00    +0.032 C 
ATOM      5  C   UNL     1      -1.401   0.763  25.029  0.00  0.00    +0.073 C 
ATOM      6  N   UNL     1      -0.838   1.223  24.637  0.00  0.00    -0.272 NA
ATOM      7  C   UNL     1      -0.182   0.564  24.154  0.00  0.00    +0.072 C 
ATOM      8  C   UNL     1       0.342   0.458  23.778  0.00  0.00    +0.017 C 
ATOM      9  C   UNL     1      -0.260   0.956  24.218  0.00  0.00    +0.005 C 
ATOM     10  C   UNL     1      -0.156   1.826  24.163  0.00  0.00    +0.018 C 
ATOM     11  C   UNL     1      -0.724   2.127  24.575  0.00  0.00    +0.079 C 
ENDROOT
BRANCH   4   3
ATOM      3  C   UNL     1      -0.732  -0.321  24.527  0.00  0.00    +0.074 C 
BRANCH   3   2
ATOM      1  C   UNL     1      -1.249  -1.107  25.603  0.00  0.00    +0.090 C 
ATOM      2  N   UNL     1      -1.315  -0.819  24.833  0.00  0.00    -0.268 NA
BRANCH   2  26
ATOM     26  C   UNL     1      -1.963  -1.028  24.368  0.00  0.00    +0.099 C 
BRANCH  26  27
ATOM     27  C   UNL     1      -2.378  -1.723  24.527  0.00  0.00    -0.006 A 
ATOM     28  C   UNL     1      -3.118  -1.688  24.888  0.00  0.00    -0.003 A 
ATOM     29  C   UNL     1      -3.533  -2.383  25.047  0.00  0.00    -0.000 A 
ATOM     30  C   UNL     1      -3.207  -3.114  24.844  0.00  0.00    -0.000 A 
ATOM     31  C   UNL     1      -2.466  -3.149  24.483  0.00  0.00    -0.000 A 
ATOM     32  C   UNL     1      -2.051  -2.453  24.324  0.00  0.00    -0.003 A 
ENDBRANCH  26  27
ENDBRANCH   2  26
ENDBRANCH   3   2
ENDBRANCH   4   3
BRANCH  11  12
ATOM     12  C   UNL     1      -1.045   2.845  24.820  0.00  0.00    +0.131 C 
BRANCH  12  13
ATOM     13  N   UNL     1      -1.859   2.917  24.936  0.00  0.00    -0.200 NA
ATOM     14  C   UNL     1      -2.190   3.656  25.090  0.00  0.00    +0.265 C 
ATOM     15  O   UNL     1      -1.708   4.324  25.130  0.00  0.00    -0.268 OA
BRANCH  14  16
ATOM     16  C   UNL     1      -3.004   3.727  25.206  0.00  0.00    +0.055 A 
ATOM     17  C   UNL     1      -3.517   3.689  24.561  0.00  0.00    +0.005 A 
ATOM     18  C   UNL     1      -4.331   3.760  24.677  0.00  0.00    +0.004 A 
ATOM     19  C   UNL     1      -4.631   3.870  25.437  0.00  0.00    +0.071 A 
ATOM     20  C   UNL     1      -4.118   3.908  26.082  0.00  0.00    +0.004 A 
ATOM     21  C   UNL     1      -3.305   3.837  25.967  0.00  0.00    +0.005 A 
BRANCH  19  22
ATOM     22  C   UNL     1      -5.445   3.941  25.554  0.00  0.00    +0.419 C 
ATOM     23  F   UNL     1      -6.259   4.011  25.670  0.00  0.00    -0.166 F 
ATOM     24  F   UNL     1      -5.490   3.135  25.724  0.00  0.00    -0.166 F 
ATOM     25  F   UNL     1      -5.400   4.746  25.384  0.00  0.00    -0.166 F 
ENDBRANCH  19  22
ENDBRANCH  14  16
ENDBRANCH  12  13
ENDBRANCH  11  12
TORSDOF 8
ENDMDL
MODEL 7
REMARK VINA RESULT:     -11.0      1.726      3.223
REMARK  Name = 
REMARK  8 active torsions:
REMARK  status: ('A' for Active; 'I' for Inactive)
REMARK    1  A    between atoms: N_2  and  C_3
REMARK    2  A    between atoms: N_2  and  C_26
REMARK    3  A    between atoms: C_3  and  C_4
REMARK    4  A    between atoms: C_11  and  C_12
REMARK    5  A    between atoms: C_12  and  N_13
REMARK    6  A    between atoms: C_14  and  C_16
REMARK    7  A    between atoms: C_19  and  C_22
REMARK    8  A    between atoms: C_26  and  C_27
REMARK                            x       y       z     vdW  Elec       q    Type
REMARK                         _______ _______ _______ _____ _____    ______ ____
ROOT
ATOM      4  C   UNL     1      -1.741   2.505  25.190  0.00  0.00    +0.032 C 
ATOM      5  C   UNL     1      -2.129   1.863  24.982  0.00  0.00    +0.073 C 
ATOM      6  N   UNL     1      -1.334   1.903  25.198  0.00  0.00    -0.272 NA
ATOM      7  C   UNL     1      -1.122   2.906  25.418  0.00  0.00    +0.072 C 
ATOM      8  C   UNL     1      -0.702   3.370  25.605  0.00  0.00    +0.017 C 
ATOM      9  C   UNL     1      -0.960   2.536  25.400  0.00  0.00    +0.005 C 
ATOM     10  C   UNL     1      -0.342   1.915  25.462  0.00  0.00    +0.018 C 
ATOM     11  C   UNL     1      -0.686   1.263  25.264  0.00  0.00    +0.079 C 
ENDROOT
BRANCH   4   3
ATOM      3  C   UNL     1      -2.161   3.216  25.195  0.00  0.00    +0.074 C 
BRANCH   3   2
ATOM      1  C   UNL     1      -3.309   3.089  24.353  0.00  0.00    +0.090 C 
ATOM      2  N   UNL     1      -2.981   3.211  25.101  0.00  0.00    -0.268 NA
BRANCH   2  26
ATOM     26  C   UNL     1      -3.472   3.328  25.753  0.00  0.00    +0.099 C 
BRANCH  26  27
ATOM     27  C   UNL     1      -4.284   3.427  25.646  0.00  0.00    -0.006 A 
ATOM     28  C   UNL     1      -4.588   4.173  25.468  0.00  0.00    -0.003 A 
ATOM     29  C   UNL     1      -5.400   4.273  25.360  0.00  0.00    -0.000 A 
ATOM     30  C   UNL     1      -5.907   3.626  25.431  0.00  0.00    -0.000 A 
ATOM     31  C   UNL     1      -5.603   2.880  25.609  0.00  0.00    -0.000 A 
ATOM     32  C   UNL     1      -4.791   2.781  25.717  0.00  0.00    -0.003 A 
ENDBRANCH  26  27
ENDBRANCH   2  26
ENDBRANCH   3   2
ENDBRANCH   4   3
BRANCH  11  12
ATOM     12  C   UNL     1      -0.552   0.455  25.168  0.00  0.00    +0.131 C 
BRANCH  12  13
ATOM     13  N   UNL     1      -1.186  -0.058  25.043  0.00  0.00    -0.200 NA
ATOM     14  C   UNL     1      -1.066  -0.873  25.059  0.00  0.00    +0.265 C 
ATOM     15  O   UNL     1      -0.312  -1.177  25.199  0.00  0.00    -0.268 OA
BRANCH  14  16
ATOM     16  C   UNL     1      -1.700  -1.386  24.934  0.00  0.00    +0.055 A 
ATOM     17  C   UNL     1      -2.410  -1.270  25.339  0.00  0.00    +0.005 A 
ATOM     18  C   UNL     1      -3.044  -1.782  25.214  0.00  0.00    +0.004 A 
ATOM     19  C   UNL     1      -2.969  -2.411  24.685  0.00  0.00    +0.071 A 
ATOM     20  C   UNL     1      -2.259  -2.527  24.281  0.00  0.00    +0.004 A 
ATOM     21  C   UNL     1      -1.625  -2.015  24.405  0.00  0.00    +0.005 A 
BRANCH  19  22
ATOM     22  C   UNL     1      -3.603  -2.924  24.560  0.00  0.00    +0.419 C 
ATOM     23  F   UNL     1      -4.237  -3.437  24.434  0.00  0.00    -0.166 F 
ATOM     24  F   UNL     1      -3.721  -2.594  23.813  0.00  0.00    -0.166 F 
ATOM     25  F   UNL     1      -3.484  -3.254  25.306  0.00  0.00    -0.166 F 
ENDBRANCH  19  22
ENDBRANCH  14  16
ENDBRANCH  12  13
ENDBRANCH  11  12
TORSDOF 8
ENDMDL
