MODEL 1
REMARK VINA RESULT:     -10.0      0.000      0.000
REMARK  Name = 
REMARK  9 active torsions:
REMARK  status: ('A' for Active; 'I' for Inactive)
REMARK    1  A    between atoms: O_2  and  C_3
REMARK    2  A    between atoms: C_6  and  C_7
REMARK    3  A    between atoms: C_7  and  N_8
REMARK    4  A    between atoms: C_9  and  C_11
REMARK    5  A    between atoms: C_11  and  C_12
REMARK    6  A    between atoms: C_14  and  C_15
REMARK    7  A    between atoms: C_18  and  C_19
REMARK    8  A    between atoms: C_19  and  N_20
REMARK    9  A    between atoms: C_21  and  C_23
REMARK                            x       y       z     vdW  Elec       q    Type
REMARK                         _______ _______ _______ _____ _____    ______ ____
ROOT
ATOM     12  C   UNL     1      -3.775   2.319  23.771  0.00  0.00    +0.027 C 
ATOM     13  C   UNL     1      -4.339   2.170  24.356  0.00  0.00    +0.005 C 
ATOM     14  C   UNL     1      -4.562   1.394  24.525  0.00  0.00    +0.006 C 
ATOM     18  C   UNL     1      -4.222   0.768  24.112  0.00  0.00    +0.043 C 
ATOM     28  C   UNL     1      -3.659   0.916  23.527  0.00  0.00    -0.033 C 
ATOM     29  C   UNL     1      -3.435   1.693  23.358  0.00  0.00    -0.048 C 
ATOM     30  C   UNL     1      -2.872   1.841  22.773  0.00  0.00    +0.026 C 
ENDROOT
BRANCH  14  15
ATOM     15  C   UNL     1      -5.125   1.246  25.110  0.00  0.00    +0.000 C 
ATOM     16  C   UNL     1      -5.929   1.287  24.927  0.00  0.00    +0.000 C 
ATOM     17  C   UNL     1      -4.885   1.056  25.876  0.00  0.00    +0.000 C 
ENDBRANCH  14  15
BRANCH  12  11
ATOM     11  C   UNL     1      -3.553   3.095  23.602  0.00  0.00    +0.091 C 
BRANCH  11   9
ATOM      8  N   UNL     1      -2.402   3.403  24.391  0.00  0.00    -0.201 NA
ATOM      9  C   UNL     1      -3.185   3.554  24.182  0.00  0.00    +0.242 C 
ATOM     10  O   UNL     1      -3.601   4.163  24.551  0.00  0.00    -0.273 OA
BRANCH   8   7
ATOM      7  C   UNL     1      -2.035   3.862  24.970  0.00  0.00    +0.141 C 
BRANCH   7   6
ATOM      3  C   UNL     1       0.004   3.029  26.100  0.00  0.00    +0.139 A 
ATOM      4  C   UNL     1      -0.733   2.930  26.454  0.00  0.00    +0.037 A 
ATOM      5  C   UNL     1      -1.414   3.207  26.078  0.00  0.00    +0.001 A 
ATOM      6  C   UNL     1      -1.355   3.585  25.347  0.00  0.00    -0.000 A 
ATOM     31  C   UNL     1      -0.617   3.684  24.992  0.00  0.00    +0.001 A 
ATOM     32  C   UNL     1       0.063   3.407  25.368  0.00  0.00    +0.037 A 
BRANCH   3   2
ATOM      1  C   UNL     1       0.631   2.409  27.224  0.00  0.00    +0.252 C 
ATOM      2  O   UNL     1       0.683   2.752  26.476  0.00  0.00    -0.471 OA
ENDBRANCH   3   2
ENDBRANCH   7   6
ENDBRANCH   8   7
ENDBRANCH  11   9
ENDBRANCH  12  11
BRANCH  18  19
ATOM     19  C   UNL     1      -4.445  -0.009  24.281  0.00  0.00    +0.120 C 
BRANCH  19  20
ATOM     20  N   UNL     1      -3.869  -0.587  24.400  0.00  0.00    -0.199 NA
ATOM     21  C   UNL     1      -4.038  -1.377  24.235  0.00  0.00    +0.299 C 
ATOM     22  O   UNL     1      -4.783  -1.590  23.952  0.00  0.00    -0.265 OA
BRANCH  21  23
ATOM     23  C   UNL     1      -3.461  -1.956  24.353  0.00  0.00    +0.200 A 
ATOM     24  C   UNL     1      -3.596  -2.727  24.613  0.00  0.00    +0.046 A 
ATOM     25  C   UNL     1      -2.867  -3.113  24.653  0.00  0.00    +0.044 A 
ATOM     26  C   UNL     1      -2.283  -2.579  24.418  0.00  0.00    +0.180 A 
ATOM     27  O   UNL     1      -2.651  -1.864  24.233  0.00  0.00    -0.446 OA
ENDBRANCH  21  23
ENDBRANCH  19  20
ENDBRANCH  18  19
TORSDOF 9
ENDMDL
MODEL 2
REMARK VINA RESULT:     -10.0      3.536      4.970
REMARK  Name = 
REMARK  9 active torsions:
REMARK  status: ('A' for Active; 'I' for Inactive)
REMARK    1  A    between atoms: O_2  and  C_3
REMARK    2  A    between atoms: C_6  and  C_7
REMARK    3  A    between atoms: C_7  and  N_8
REMARK    4  A    between atoms: C_9  and  C_11
REMARK    5  A    between atoms: C_11  and  C_12
REMARK    6  A    between atoms: C_14  and  C_15
REMARK    7  A    between atoms: C_18  and  C_19
REMARK    8  A    between atoms: C_19  and  N_20
REMARK    9  A    between atoms: C_21  and  C_23
REMARK                            x       y       z     vdW  Elec       q    Type
REMARK                         _______ _______ _______ _____ _____    ______ ____
ROOT
ATOM     12  C   UNL     1      -0.456   0.399  24.266  0.00  0.00    +0.027 C 
ATOM     13  C   UNL     1      -0.220   1.180  24.394  0.00  0.00    +0.005 C 
ATOM     14  C   UNL     1      -0.774   1.744  24.629  0.00  0.00    +0.006 C 
ATOM     18  C   UNL     1      -1.562   1.529  24.737  0.00  0.00    +0.043 C 
ATOM     28  C   UNL     1      -1.798   0.749  24.609  0.00  0.00    -0.033 C 
ATOM     29  C   UNL     1      -1.244   0.184  24.373  0.00  0.00    -0.048 C 
ATOM     30  C   UNL     1      -1.480  -0.596  24.246  0.00  0.00    +0.026 C 
ENDROOT
BRANCH  14  15
ATOM     15  C   UNL     1      -0.538   2.525  24.757  0.00  0.00    +0.000 C 
ATOM     16  C   UNL     1      -0.585   3.075  24.144  0.00  0.00    +0.000 C 
ATOM     17  C   UNL     1      -0.256   2.755  25.497  0.00  0.00    +0.000 C 
ENDBRANCH  14  15
BRANCH  12  11
ATOM     11  C   UNL     1       0.098  -0.165  24.031  0.00  0.00    +0.091 C 
BRANCH  11   9
ATOM      8  N   UNL     1       1.384  -0.004  23.429  0.00  0.00    -0.201 NA
ATOM      9  C   UNL     1       0.562  -0.032  23.361  0.00  0.00    +0.242 C 
ATOM     10  O   UNL     1       0.205   0.072  22.626  0.00  0.00    -0.273 OA
BRANCH   8   7
ATOM      7  C   UNL     1       1.847   0.128  22.760  0.00  0.00    +0.141 C 
BRANCH   7   6
ATOM      3  C   UNL     1       4.301   0.368  22.983  0.00  0.00    +0.139 A 
ATOM      4  C   UNL     1       3.945  -0.364  23.114  0.00  0.00    +0.037 A 
ATOM      5  C   UNL     1       3.127  -0.445  23.040  0.00  0.00    +0.001 A 
ATOM      6  C   UNL     1       2.666   0.208  22.834  0.00  0.00    -0.000 A 
ATOM     31  C   UNL     1       3.023   0.941  22.703  0.00  0.00    +0.001 A 
ATOM     32  C   UNL     1       3.840   1.020  22.778  0.00  0.00    +0.037 A 
BRANCH   3   2
ATOM      1  C   UNL     1       5.512   0.095  23.692  0.00  0.00    +0.252 C 
ATOM      2  O   UNL     1       5.118   0.448  23.058  0.00  0.00    -0.471 OA
ENDBRANCH   3   2
ENDBRANCH   7   6
ENDBRANCH   8   7
ENDBRANCH  11   9
ENDBRANCH  12  11
BRANCH  18  19
ATOM     19  C   UNL     1      -2.116   2.094  24.972  0.00  0.00    +0.120 C 
BRANCH  19  20
ATOM     20  N   UNL     1      -2.923   1.932  24.910  0.00  0.00    -0.199 NA
ATOM     21  C   UNL     1      -3.475   2.476  25.191  0.00  0.00    +0.299 C 
ATOM     22  O   UNL     1      -3.222   3.182  25.535  0.00  0.00    -0.265 OA
BRANCH  21  23
ATOM     23  C   UNL     1      -4.282   2.313  25.128  0.00  0.00    +0.200 A 
ATOM     24  C   UNL     1      -4.750   2.435  24.460  0.00  0.00    +0.046 A 
ATOM     25  C   UNL     1      -5.520   2.198  24.642  0.00  0.00    +0.044 A 
ATOM     26  C   UNL     1      -5.526   1.931  25.422  0.00  0.00    +0.180 A 
ATOM     27  O   UNL     1      -4.761   2.002  25.723  0.00  0.00    -0.446 OA
ENDBRANCH  21  23
ENDBRANCH  19  20
ENDBRANCH  18  19
TORSDOF 9
ENDMDL
MODEL 3
REMARK VINA RESULT:      -9.9      1.849      4.435
REMARK  Name = 
REMARK  9 active torsions:
REMARK  status: ('A' for Active; 'I' for Inactive)
REMARK    1  A    between atoms: O_2  and  C_3
REMARK    2  A    between atoms: C_6  and  C_7
REMARK    3  A    between atoms: C_7  and  N_8
REMARK    4  A    between atoms: C_9  and  C_11
REMARK    5  A    between atoms: C_11  and  C_12
REMARK    6  A    between atoms: C_14  and  C_15
REMARK    7  A    between atoms: C_18  and  C_19
REMARK    8  A    between atoms: C_19  and  N_20
REMARK    9  A    between atoms: C_21  and  C_23
REMARK                            x       y       z     vdW  Elec       q    Type
REMARK                         _______ _______ _______ _____ _____    ______ ____
ROOT
ATOM     12  C   UNL     1      -1.546   2.642  23.866  0.00  0.00    +0.027 C 
ATOM     13  C   UNL     1      -1.458   3.104  24.545  0.00  0.00    +0.005 C 
ATOM     14  C   UNL     1      -2.124   3.404  24.928  0.00  0.00    +0.006 C 
ATOM     18  C   UNL     1      -2.877   3.243  24.634  0.00  0.00    +0.043 C 
ATOM     28  C   UNL     1      -2.966   2.782  23.956  0.00  0.00    -0.033 C 
ATOM     29  C   UNL     1      -2.299   2.481  23.572  0.00  0.00    -0.048 C 
ATOM     30  C   UNL     1      -2.388   2.020  22.894  0.00  0.00    +0.026 C 
ENDROOT
BRANCH  14  15
ATOM     15  C   UNL     1      -2.036   3.866  25.607  0.00  0.00    +0.000 C 
ATOM     16  C   UNL     1      -1.989   4.687  25.543  0.00  0.00    +0.000 C 
ATOM     17  C   UNL     1      -1.994   3.506  26.348  0.00  0.00    +0.000 C 
ENDBRANCH  14  15
BRANCH  12  11
ATOM     11  C   UNL     1      -0.881   2.342  23.483  0.00  0.00    +0.091 C 
BRANCH  11   9
ATOM      8  N   UNL     1      -0.622   1.009  23.927  0.00  0.00    -0.201 NA
ATOM      9  C   UNL     1      -0.393   1.799  23.868  0.00  0.00    +0.242 C 
ATOM     10  O   UNL     1       0.323   2.046  24.194  0.00  0.00    -0.273 OA
BRANCH   8   7
ATOM      7  C   UNL     1      -0.135   0.467  24.312  0.00  0.00    +0.141 C 
BRANCH   7   6
ATOM      3  C   UNL     1      -0.997  -1.783  24.884  0.00  0.00    +0.139 A 
ATOM      4  C   UNL     1      -0.668  -1.644  24.141  0.00  0.00    +0.037 A 
ATOM      5  C   UNL     1      -0.381  -0.894  23.950  0.00  0.00    +0.001 A 
ATOM      6  C   UNL     1      -0.422  -0.284  24.503  0.00  0.00    -0.000 A 
ATOM     31  C   UNL     1      -0.751  -0.423  25.247  0.00  0.00    +0.001 A 
ATOM     32  C   UNL     1      -1.038  -1.172  25.437  0.00  0.00    +0.037 A 
BRANCH   3   2
ATOM      1  C   UNL     1      -1.988  -2.802  24.739  0.00  0.00    +0.252 C 
ATOM      2  O   UNL     1      -1.284  -2.531  25.074  0.00  0.00    -0.471 OA
ENDBRANCH   3   2
ENDBRANCH   7   6
ENDBRANCH   8   7
ENDBRANCH  11   9
ENDBRANCH  12  11
BRANCH  18  19
ATOM     19  C   UNL     1      -3.543   3.544  25.018  0.00  0.00    +0.120 C 
BRANCH  19  20
ATOM     20  N   UNL     1      -4.146   3.034  25.259  0.00  0.00    -0.199 NA
ATOM     21  C   UNL     1      -4.906   3.327  25.387  0.00  0.00    +0.299 C 
ATOM     22  O   UNL     1      -5.064   4.129  25.276  0.00  0.00    -0.265 OA
BRANCH  21  23
ATOM     23  C   UNL     1      -5.509   2.816  25.628  0.00  0.00    +0.200 A 
ATOM     24  C   UNL     1      -5.932   2.303  25.140  0.00  0.00    +0.046 A 
ATOM     25  C   UNL     1      -6.479   1.900  25.609  0.00  0.00    +0.044 A 
ATOM     26  C   UNL     1      -6.394   2.165  26.385  0.00  0.00    +0.180 A 
ATOM     27  O   UNL     1      -5.794   2.732  26.397  0.00  0.00    -0.446 OA
ENDBRANCH  21  23
ENDBRANCH  19  20
ENDBRANCH  18  19
TORSDOF 9
ENDMDL
MODEL 4
REMARK VINA RESULT:      -9.9      2.327      4.924
REMARK  Name = 
REMARK  9 active torsions:
REMARK  status: ('A' for Active; 'I' for Inactive)
REMARK    1  A    between atoms: O_2  and  C_3
REMARK    2  A    between atoms: C_6  and  C_7
REMARK    3  A    between atoms: C_7  and  N_8
REMARK    4  A    between atoms: C_9  and  C_11
REMARK    5  A    between atoms: C_11  and  C_12
REMARK    6  A    between atoms: C_14  and  C_15
REMARK    7  A    between atoms: C_18  and  C_19
REMARK    8  A    between atoms: C_19  and  N_20
REMARK    9  A    between atoms: C_21  and  C_23
REMARK                            x       y       z     vdW  Elec       q    Type
REMARK                         _______ _______ _______ _____ _____    ______ ____
ROOT
ATOM     12  C   UNL     1      -2.445   2.034  24.160  0.00  0.00    +0.027 C 
ATOM     13  C   UNL     1      -2.064   2.029  24.893  0.00  0.00    +0.005 C 
ATOM     14  C   UNL     1      -1.243   1.957  24.930  0.00  0.00    +0.006 C 
ATOM     18  C   UNL     1      -0.803   1.891  24.237  0.00  0.00    +0.043 C 
ATOM     28  C   UNL     1      -1.182   1.897  23.505  0.00  0.00    -0.033 C 
ATOM     29  C   UNL     1      -2.004   1.968  23.467  0.00  0.00    -0.048 C 
ATOM     30  C   UNL     1      -2.384   1.973  22.734  0.00  0.00    +0.026 C 
ENDROOT
BRANCH  14  15
ATOM     15  C   UNL     1      -0.863   1.952  25.663  0.00  0.00    +0.000 C 
ATOM     16  C   UNL     1      -0.716   1.236  26.045  0.00  0.00    +0.000 C 
ATOM     17  C   UNL     1      -0.631   2.662  26.013  0.00  0.00    +0.000 C 
ENDBRANCH  14  15
BRANCH  12  11
ATOM     11  C   UNL     1      -3.265   2.105  24.123  0.00  0.00    +0.091 C 
BRANCH  11   9
ATOM      8  N   UNL     1      -3.794   0.792  24.318  0.00  0.00    -0.201 NA
ATOM      9  C   UNL     1      -3.744   1.583  24.547  0.00  0.00    +0.242 C 
ATOM     10  O   UNL     1      -4.171   1.852  25.198  0.00  0.00    -0.273 OA
BRANCH   8   7
ATOM      7  C   UNL     1      -4.273   0.271  24.743  0.00  0.00    +0.141 C 
BRANCH   7   6
ATOM      3  C   UNL     1      -3.864  -2.167  24.611  0.00  0.00    +0.139 A 
ATOM      4  C   UNL     1      -3.654  -1.750  25.290  0.00  0.00    +0.037 A 
ATOM      5  C   UNL     1      -3.790  -0.937  25.335  0.00  0.00    +0.001 A 
ATOM      6  C   UNL     1      -4.136  -0.542  24.699  0.00  0.00    -0.000 A 
ATOM     31  C   UNL     1      -4.347  -0.960  24.018  0.00  0.00    +0.001 A 
ATOM     32  C   UNL     1      -4.211  -1.772  23.975  0.00  0.00    +0.037 A 
BRANCH   3   2
ATOM      1  C   UNL     1      -2.967  -3.263  24.422  0.00  0.00    +0.252 C 
ATOM      2  O   UNL     1      -3.728  -2.979  24.567  0.00  0.00    -0.471 OA
ENDBRANCH   3   2
ENDBRANCH   7   6
ENDBRANCH   8   7
ENDBRANCH  11   9
ENDBRANCH  12  11
BRANCH  18  19
ATOM     19  C   UNL     1       0.019   1.820  24.275  0.00  0.00    +0.120 C 
BRANCH  19  20
ATOM     20  N   UNL     1       0.406   1.258  23.812  0.00  0.00    -0.199 NA
ATOM     21  C   UNL     1       1.213   1.334  23.660  0.00  0.00    +0.299 C 
ATOM     22  O   UNL     1       1.633   1.972  23.971  0.00  0.00    -0.265 OA
BRANCH  21  23
ATOM     23  C   UNL     1       1.600   0.771  23.196  0.00  0.00    +0.200 A 
ATOM     24  C   UNL     1       2.407   0.759  23.023  0.00  0.00    +0.046 A 
ATOM     25  C   UNL     1       2.554   0.102  22.545  0.00  0.00    +0.044 A 
ATOM     26  C   UNL     1       1.839  -0.290  22.423  0.00  0.00    +0.180 A 
ATOM     27  O   UNL     1       1.249   0.124  22.826  0.00  0.00    -0.446 OA
ENDBRANCH  21  23
ENDBRANCH  19  20
ENDBRANCH  18  19
TORSDOF 9
ENDMDL
MODEL 5
REMARK VINA RESULT:      -9.9      1.258      2.047
REMARK  Name = 
REMARK  9 active torsions:
REMARK  status: ('A' for Active; 'I' for Inactive)
REMARK    1  A    between atoms: O_2  and  C_3
REMARK    2  A    between atoms: C_6  and  C_7
REMARK    3  A    between atoms: C_7  and  N_8
REMARK    4  A    between atoms: C_9  and  C_11
REMARK    5  A    between atoms: C_11  and  C_12
REMARK    6  A    between atoms: C_14  and  C_15
REMARK    7  A    between atoms: C_18  and  C_19
REMARK    8  A    between atoms: C_19  and  N_20
REMARK    9  A    between atoms: C_21  and  C_23
REMARK                            x       y       z     vdW  Elec       q    Type
REMARK                         _______ _______ _______ _____ _____    ______ ____
ROOT
ATOM     12  C   UNL     1      -4.604   2.227  24.863  0.00  0.00    +0.027 C 
ATOM     13  C   UNL     1      -3.966   2.183  24.341  0.00  0.00    +0.005 C 
ATOM     14  C   UNL     1      -3.757   1.459  24.006  0.00  0.00    +0.006 C 
ATOM     18  C   UNL     1      -4.186   0.780  24.191  0.00  0.00    +0.043 C 
ATOM     28  C   UNL     1      -4.823   0.824  24.713  0.00  0.00    -0.033 C 
ATOM     29  C   UNL     1      -5.033   1.548  25.048  0.00  0.00    -0.048 C 
ATOM     30  C   UNL     1      -5.670   1.592  25.570  0.00  0.00    +0.026 C 
ENDROOT
BRANCH  14  15
ATOM     15  C   UNL     1      -3.119   1.415  23.484  0.00  0.00    +0.000 C 
ATOM     16  C   UNL     1      -3.225   1.597  22.687  0.00  0.00    +0.000 C 
ATOM     17  C   UNL     1      -2.375   1.190  23.761  0.00  0.00    +0.000 C 
ENDBRANCH  14  15
BRANCH  12  11
ATOM     11  C   UNL     1      -4.813   2.952  25.198  0.00  0.00    +0.091 C 
BRANCH  11   9
ATOM      8  N   UNL     1      -3.698   3.824  25.392  0.00  0.00    -0.201 NA
ATOM      9  C   UNL     1      -4.287   3.338  25.704  0.00  0.00    +0.242 C 
ATOM     10  O   UNL     1      -4.351   3.239  26.520  0.00  0.00    -0.273 OA
BRANCH   8   7
ATOM      7  C   UNL     1      -3.173   4.210  25.898  0.00  0.00    +0.141 C 
BRANCH   7   6
ATOM      3  C   UNL     1      -0.963   4.946  25.058  0.00  0.00    +0.139 A 
ATOM      4  C   UNL     1      -1.628   5.418  24.938  0.00  0.00    +0.037 A 
ATOM      5  C   UNL     1      -2.365   5.174  25.218  0.00  0.00    +0.001 A 
ATOM      6  C   UNL     1      -2.436   4.456  25.618  0.00  0.00    -0.000 A 
ATOM     31  C   UNL     1      -1.770   3.982  25.738  0.00  0.00    +0.001 A 
ATOM     32  C   UNL     1      -1.034   4.227  25.457  0.00  0.00    +0.037 A 
BRANCH   3   2
ATOM      1  C   UNL     1       0.043   4.930  24.043  0.00  0.00    +0.252 C 
ATOM      2  O   UNL     1      -0.227   5.190  24.778  0.00  0.00    -0.471 OA
ENDBRANCH   3   2
ENDBRANCH   7   6
ENDBRANCH   8   7
ENDBRANCH  11   9
ENDBRANCH  12  11
BRANCH  18  19
ATOM     19  C   UNL     1      -3.976   0.055  23.855  0.00  0.00    +0.120 C 
BRANCH  19  20
ATOM     20  N   UNL     1      -3.787  -0.585  24.340  0.00  0.00    -0.199 NA
ATOM     21  C   UNL     1      -3.868  -1.354  24.057  0.00  0.00    +0.299 C 
ATOM     22  O   UNL     1      -4.139  -1.485  23.288  0.00  0.00    -0.265 OA
BRANCH  21  23
ATOM     23  C   UNL     1      -3.678  -1.995  24.542  0.00  0.00    +0.200 A 
ATOM     24  C   UNL     1      -3.679  -2.789  24.318  0.00  0.00    +0.046 A 
ATOM     25  C   UNL     1      -3.456  -3.238  24.973  0.00  0.00    +0.044 A 
ATOM     26  C   UNL     1      -3.317  -2.722  25.601  0.00  0.00    +0.180 A 
ATOM     27  O   UNL     1      -3.455  -1.953  25.334  0.00  0.00    -0.446 OA
ENDBRANCH  21  23
ENDBRANCH  19  20
ENDBRANCH  18  19
TORSDOF 9
ENDMDL
MODEL 6
REMARK VINA RESULT:      -9.6      2.768      4.521
REMARK  Name = 
REMARK  9 active torsions:
REMARK  status: ('A' for Active; 'I' for Inactive)
REMARK    1  A    between atoms: O_2  and  C_3
REMARK    2  A    between atoms: C_6  and  C_7
REMARK    3  A    between atoms: C_7  and  N_8
REMARK    4  A    between atoms: C_9  and  C_11
REMARK    5  A    between atoms: C_11  and  C_12
REMARK    6  A    between atoms: C_14  and  C_15
REMARK    7  A    between atoms: C_18  and  C_19
REMARK    8  A    between atoms: C_19  and  N_20
REMARK    9  A    between atoms: C_21  and  C_23
REMARK                            x       y       z     vdW  Elec       q    Type
REMARK                         _______ _______ _______ _____ _____    ______ ____
ROOT
ATOM     12  C   UNL     1      -1.051   2.580  25.272  0.00  0.00    +0.027 C 
ATOM     13  C   UNL     1      -1.454   1.862  25.332  0.00  0.00    +0.005 C 
ATOM     14  C   UNL     1      -1.153   1.188  24.964  0.00  0.00    +0.006 C 
ATOM     18  C   UNL     1      -0.450   1.231  24.536  0.00  0.00    +0.043 C 
ATOM     28  C   UNL     1      -0.047   1.948  24.475  0.00  0.00    -0.033 C 
ATOM     29  C   UNL     1      -0.348   2.623  24.844  0.00  0.00    -0.048 C 
ATOM     30  C   UNL     1       0.055   3.340  24.783  0.00  0.00    +0.026 C 
ENDROOT
BRANCH  14  15
ATOM     15  C   UNL     1      -1.556   0.470  25.025  0.00  0.00    +0.000 C 
ATOM     16  C   UNL     1      -2.101   0.253  24.445  0.00  0.00    +0.000 C 
ATOM     17  C   UNL     1      -1.413  -0.031  25.665  0.00  0.00    +0.000 C 
ENDBRANCH  14  15
BRANCH  12  11
ATOM     11  C   UNL     1      -1.353   3.253  25.640  0.00  0.00    +0.091 C 
BRANCH  11   9
ATOM      8  N   UNL     1      -2.774   3.393  25.583  0.00  0.00    -0.201 NA
ATOM      9  C   UNL     1      -2.023   3.626  25.333  0.00  0.00    +0.242 C 
ATOM     10  O   UNL     1      -1.941   4.229  24.778  0.00  0.00    -0.273 OA
BRANCH   8   7
ATOM      7  C   UNL     1      -3.443   3.765  25.277  0.00  0.00    +0.141 C 
BRANCH   7   6
ATOM      3  C   UNL     1      -5.622   2.590  25.283  0.00  0.00    +0.139 A 
ATOM      4  C   UNL     1      -5.157   2.593  24.602  0.00  0.00    +0.037 A 
ATOM      5  C   UNL     1      -4.431   2.984  24.599  0.00  0.00    +0.001 A 
ATOM      6  C   UNL     1      -4.170   3.373  25.279  0.00  0.00    -0.000 A 
ATOM     31  C   UNL     1      -4.635   3.371  25.961  0.00  0.00    +0.001 A 
ATOM     32  C   UNL     1      -5.361   2.979  25.962  0.00  0.00    +0.037 A 
BRANCH   3   2
ATOM      1  C   UNL     1      -6.416   1.453  24.939  0.00  0.00    +0.252 C 
ATOM      2  O   UNL     1      -6.348   2.199  25.285  0.00  0.00    -0.471 OA
ENDBRANCH   3   2
ENDBRANCH   7   6
ENDBRANCH   8   7
ENDBRANCH  11   9
ENDBRANCH  12  11
BRANCH  18  19
ATOM     19  C   UNL     1      -0.148   0.556  24.168  0.00  0.00    +0.120 C 
BRANCH  19  20
ATOM     20  N   UNL     1       0.518   0.613  23.684  0.00  0.00    -0.199 NA
ATOM     21  C   UNL     1       0.844  -0.067  23.351  0.00  0.00    +0.299 C 
ATOM     22  O   UNL     1       0.505  -0.804  23.501  0.00  0.00    -0.265 OA
BRANCH  21  23
ATOM     23  C   UNL     1       1.511  -0.010  22.867  0.00  0.00    +0.200 A 
ATOM     24  C   UNL     1       1.554  -0.234  22.074  0.00  0.00    +0.046 A 
ATOM     25  C   UNL     1       2.320  -0.082  21.809  0.00  0.00    +0.044 A 
ATOM     26  C   UNL     1       2.750   0.235  22.438  0.00  0.00    +0.180 A 
ATOM     27  O   UNL     1       2.249   0.279  23.092  0.00  0.00    -0.446 OA
ENDBRANCH  21  23
ENDBRANCH  19  20
ENDBRANCH  18  19
TORSDOF 9
ENDMDL
MODEL 7
REMARK VINA RESULT:      -9.6      1.713      5.038
REMARK  Name = 
REMARK  9 active torsions:
REMARK  status: ('A' for Active; 'I' for Inactive)
REMARK    1  A    between atoms: O_2  and  C_3
REMARK    2  A    between atoms: C_6  and  C_7
REMARK    3  A    between atoms: C_7  and  N_8
REMARK    4  A    between atoms: C_9  and  C_11
REMARK    5  A    between atoms: C_11  and  C_12
REMARK    6  A    between atoms: C_14  and  C_15
REMARK    7  A    between atoms: C_18  and  C_19
REMARK    8  A    between atoms: C_19  and  N_20
REMARK    9  A    between atoms: C_21  and  C_23
REMARK                            x       y       z     vdW  Elec       q    Type
REMARK                         _______ _______ _______ _____ _____    ______ ____
ROOT
ATOM     12  C   UNL     1      -0.935   1.518  24.498  0.00  0.00    +0.027 C 
ATOM     13  C   UNL     1      -1.328   1.429  23.777  0.00  0.00    +0.005 C 
ATOM     14  C   UNL     1      -1.995   1.886  23.613  0.00  0.00    +0.006 C 
ATOM     18  C   UNL     1      -2.269   2.430  24.167  0.00  0.00    +0.043 C 
ATOM     28  C   UNL     1      -1.877   2.520  24.887  0.00  0.00    -0.033 C 
ATOM     29  C   UNL     1      -1.209   2.063  25.052  0.00  0.00    -0.048 C 
ATOM     30  C   UNL     1      -0.817   2.153  25.772  0.00  0.00    +0.026 C 
ENDROOT
BRANCH  14  15
ATOM     15  C   UNL     1      -2.388   1.796  22.892  0.00  0.00    +0.000 C 
ATOM     16  C   UNL     1      -2.980   1.227  22.814  0.00  0.00    +0.000 C 
ATOM     17  C   UNL     1      -2.188   2.276  22.251  0.00  0.00    +0.000 C 
ENDBRANCH  14  15
BRANCH  12  11
ATOM     11  C   UNL     1      -0.268   1.062  24.662  0.00  0.00    +0.091 C 
BRANCH  11   9
ATOM      8  N   UNL     1      -0.702  -0.278  24.904  0.00  0.00    -0.201 NA
ATOM      9  C   UNL     1      -0.258   0.260  24.465  0.00  0.00    +0.242 C 
ATOM     10  O   UNL     1       0.196  -0.001  23.828  0.00  0.00    -0.273 OA
BRANCH   8   7
ATOM      7  C   UNL     1      -0.692  -1.078  24.706  0.00  0.00    +0.141 C 
BRANCH   7   6
ATOM      3  C   UNL     1      -2.758  -2.427  24.903  0.00  0.00    +0.139 A 
ATOM      4  C   UNL     1      -2.584  -1.854  25.470  0.00  0.00    +0.037 A 
ATOM      5  C   UNL     1      -1.896  -1.404  25.405  0.00  0.00    +0.001 A 
ATOM      6  C   UNL     1      -1.381  -1.528  24.772  0.00  0.00    -0.000 A 
ATOM     31  C   UNL     1      -1.555  -2.102  24.205  0.00  0.00    +0.001 A 
ATOM     32  C   UNL     1      -2.244  -2.551  24.271  0.00  0.00    +0.037 A 
BRANCH   3   2
ATOM      1  C   UNL     1      -3.980  -2.909  24.340  0.00  0.00    +0.252 C 
ATOM      2  O   UNL     1      -3.447  -2.876  24.969  0.00  0.00    -0.471 OA
ENDBRANCH   3   2
ENDBRANCH   7   6
ENDBRANCH   8   7
ENDBRANCH  11   9
ENDBRANCH  12  11
BRANCH  18  19
ATOM     19  C   UNL     1      -2.937   2.887  24.002  0.00  0.00    +0.120 C 
BRANCH  19  20
ATOM     20  N   UNL     1      -3.588   2.864  24.508  0.00  0.00    -0.199 NA
ATOM     21  C   UNL     1      -4.123   3.491  24.519  0.00  0.00    +0.299 C 
ATOM     22  O   UNL     1      -4.009   4.141  24.024  0.00  0.00    -0.265 OA
BRANCH  21  23
ATOM     23  C   UNL     1      -4.775   3.469  25.026  0.00  0.00    +0.200 A 
ATOM     24  C   UNL     1      -5.234   2.804  25.194  0.00  0.00    +0.046 A 
ATOM     25  C   UNL     1      -5.824   3.031  25.725  0.00  0.00    +0.044 A 
ATOM     26  C   UNL     1      -5.728   3.835  25.884  0.00  0.00    +0.180 A 
ATOM     27  O   UNL     1      -5.079   4.105  25.452  0.00  0.00    -0.446 OA
ENDBRANCH  21  23
ENDBRANCH  19  20
ENDBRANCH  18  19
TORSDOF 9
ENDMDL
MODEL 8
REMARK VINA RESULT:      -9.6      3.061      4.505
REMARK  Name = 
REMARK  9 active torsions:
REMARK  status: ('A' for Active; 'I' for Inactive)
REMARK    1  A    between atoms: O_2  and  C_3
REMARK    2  A    between atoms: C_6  and  C_7
REMARK    3  A    between atoms: C_7  and  N_8
REMARK    4  A    between atoms: C_9  and  C_11
REMARK    5  A    between atoms: C_11  and  C_12
REMARK    6  A    between atoms: C_14  and  C_15
REMARK    7  A    between atoms: C_18  and  C_19
REMARK    8  A    between atoms: C_19  and  N_20
REMARK    9  A    between atoms: C_21  and  C_23
REMARK                            x       y       z     vdW  Elec       q    Type
REMARK                         _______ _______ _______ _____ _____    ______ ____
ROOT
ATOM     12  C   UNL     1      -1.530  -0.049  24.926  0.00  0.00    +0.027 C 
ATOM     13  C   UNL     1      -2.110  -0.582  24.677  0.00  0.00    +0.005 C 
ATOM     14  C   UNL     1      -2.900  -0.347  24.651  0.00  0.00    +0.006 C 
ATOM     18  C   UNL     1      -3.111   0.418  24.872  0.00  0.00    +0.043 C 
ATOM     28  C   UNL     1      -2.532   0.951  25.121  0.00  0.00    -0.033 C 
ATOM     29  C   UNL     1      -1.741   0.716  25.147  0.00  0.00    -0.048 C 
ATOM     30  C   UNL     1      -1.162   1.248  25.396  0.00  0.00    +0.026 C 
ENDROOT
BRANCH  14  15
ATOM     15  C   UNL     1      -3.480  -0.879  24.402  0.00  0.00    +0.000 C 
ATOM     16  C   UNL     1      -3.811  -1.409  24.941  0.00  0.00    +0.000 C 
ATOM     17  C   UNL     1      -3.728  -0.882  23.615  0.00  0.00    +0.000 C 
ENDBRANCH  14  15
BRANCH  12  11
ATOM     11  C   UNL     1      -0.740  -0.284  24.953  0.00  0.00    +0.091 C 
BRANCH  11   9
ATOM      8  N   UNL     1       0.211  -0.084  23.904  0.00  0.00    -0.201 NA
ATOM      9  C   UNL     1      -0.365  -0.550  24.266  0.00  0.00    +0.242 C 
ATOM     10  O   UNL     1      -0.568  -1.281  23.944  0.00  0.00    -0.273 OA
BRANCH   8   7
ATOM      7  C   UNL     1       0.584  -0.350  23.219  0.00  0.00    +0.141 C 
BRANCH   7   6
ATOM      3  C   UNL     1       2.799   0.558  22.586  0.00  0.00    +0.139 A 
ATOM      4  C   UNL     1       2.367   0.911  23.192  0.00  0.00    +0.037 A 
ATOM      5  C   UNL     1       1.629   0.609  23.404  0.00  0.00    +0.001 A 
ATOM      6  C   UNL     1       1.323  -0.047  23.008  0.00  0.00    -0.000 A 
ATOM     31  C   UNL     1       1.756  -0.401  22.400  0.00  0.00    +0.001 A 
ATOM     32  C   UNL     1       2.493  -0.098  22.189  0.00  0.00    +0.037 A 
BRANCH   3   2
ATOM      1  C   UNL     1       4.200   0.687  22.833  0.00  0.00    +0.252 C 
ATOM      2  O   UNL     1       3.536   0.860  22.375  0.00  0.00    -0.471 OA
ENDBRANCH   3   2
ENDBRANCH   7   6
ENDBRANCH   8   7
ENDBRANCH  11   9
ENDBRANCH  12  11
BRANCH  18  19
ATOM     19  C   UNL     1      -3.902   0.653  24.845  0.00  0.00    +0.120 C 
BRANCH  19  20
ATOM     20  N   UNL     1      -4.111   1.425  25.049  0.00  0.00    -0.199 NA
ATOM     21  C   UNL     1      -4.899   1.663  25.008  0.00  0.00    +0.299 C 
ATOM     22  O   UNL     1      -5.480   1.130  24.764  0.00  0.00    -0.265 OA
BRANCH  21  23
ATOM     23  C   UNL     1      -5.108   2.436  25.211  0.00  0.00    +0.200 A 
ATOM     24  C   UNL     1      -5.688   2.653  25.756  0.00  0.00    +0.046 A 
ATOM     25  C   UNL     1      -5.712   3.477  25.787  0.00  0.00    +0.044 A 
ATOM     26  C   UNL     1      -5.147   3.768  25.261  0.00  0.00    +0.180 A 
ATOM     27  O   UNL     1      -4.774   3.124  24.905  0.00  0.00    -0.446 OA
ENDBRANCH  21  23
ENDBRANCH  19  20
ENDBRANCH  18  19
TORSDOF 9
ENDMDL
MODEL 9
REMARK VINA RESULT:      -9.6      1.834      3.685
REMARK  Name = 
REMARK  9 active torsions:
REMARK  status: ('A' for Active; 'I' for Inactive)
REMARK    1  A    between atoms: O_2  and  C_3
REMARK    2  A    between atoms: C_6  and  C_7
REMARK    3  A    between atoms: C_7  and  N_8
REMARK    4  A    between atoms: C_9  and  C_11
REMARK    5  A    between atoms: C_11  and  C_12
REMARK    6  A    between atoms: C_14  and  C_15
REMARK    7  A    between atoms: C_18  and  C_19
REMARK    8  A    between atoms: C_19  and  N_20
REMARK    9  A    between atoms: C_21  and  C_23
REMARK                            x       y       z     vdW  Elec       q    Type
REMARK                         _______ _______ _______ _____ _____    ______ ____
ROOT
ATOM     12  C   UNL     1      -0.372   1.893  25.346  0.00  0.00    +0.027 C 
ATOM     13  C   UNL     1      -0.276   1.701  24.549  0.00  0.00    +0.005 C 
ATOM     14  C   UNL     1      -0.409   0.928  24.293  0.00  0.00    +0.006 C 
ATOM     18  C   UNL     1      -0.639   0.349  24.832  0.00  0.00    +0.043 C 
ATOM     28  C   UNL     1      -0.736   0.541  25.628  0.00  0.00    -0.033 C 
ATOM     29  C   UNL     1      -0.603   1.314  25.885  0.00  0.00    -0.048 C 
ATOM     30  C   UNL     1      -0.699   1.506  26.681  0.00  0.00    +0.026 C 
ENDROOT
BRANCH  14  15
ATOM     15  C   UNL     1      -0.312   0.735  23.496  0.00  0.00    +0.000 C 
ATOM     16  C   UNL     1       0.400   0.411  23.234  0.00  0.00    +0.000 C 
ATOM     17  C   UNL     1      -0.927   0.867  22.962  0.00  0.00    +0.000 C 
ENDBRANCH  14  15
BRANCH  12  11
ATOM     11  C   UNL     1      -0.239   2.666  25.602  0.00  0.00    +0.091 C 
BRANCH  11   9
ATOM      8  N   UNL     1      -1.475   3.381  25.551  0.00  0.00    -0.201 NA
ATOM      9  C   UNL     1      -0.695   3.285  25.301  0.00  0.00    +0.242 C 
ATOM     10  O   UNL     1      -0.372   3.805  24.750  0.00  0.00    -0.273 OA
BRANCH   8   7
ATOM      7  C   UNL     1      -1.931   3.999  25.250  0.00  0.00    +0.141 C 
BRANCH   7   6
ATOM      3  C   UNL     1      -4.401   3.886  25.370  0.00  0.00    +0.139 A 
ATOM      4  C   UNL     1      -4.018   3.778  24.648  0.00  0.00    +0.037 A 
ATOM      5  C   UNL     1      -3.194   3.815  24.608  0.00  0.00    +0.001 A 
ATOM      6  C   UNL     1      -2.754   3.961  25.290  0.00  0.00    -0.000 A 
ATOM     31  C   UNL     1      -3.138   4.070  26.013  0.00  0.00    +0.001 A 
ATOM     32  C   UNL     1      -3.961   4.032  26.053  0.00  0.00    +0.037 A 
BRANCH   3   2
ATOM      1  C   UNL     1      -5.595   3.144  25.625  0.00  0.00    +0.252 C 
ATOM      2  O   UNL     1      -5.223   3.848  25.410  0.00  0.00    -0.471 OA
ENDBRANCH   3   2
ENDBRANCH   7   6
ENDBRANCH   8   7
ENDBRANCH  11   9
ENDBRANCH  12  11
BRANCH  18  19
ATOM     19  C   UNL     1      -0.773  -0.424  24.575  0.00  0.00    +0.120 C 
BRANCH  19  20
ATOM     20  N   UNL     1      -1.509  -0.777  24.694  0.00  0.00    -0.199 NA
ATOM     21  C   UNL     1      -1.575  -1.599  24.706  0.00  0.00    +0.299 C 
ATOM     22  O   UNL     1      -0.905  -2.069  24.599  0.00  0.00    -0.265 OA
BRANCH  21  23
ATOM     23  C   UNL     1      -2.312  -1.952  24.826  0.00  0.00    +0.200 A 
ATOM     24  C   UNL     1      -2.668  -2.508  24.331  0.00  0.00    +0.046 A 
ATOM     25  C   UNL     1      -3.397  -2.711  24.661  0.00  0.00    +0.044 A 
ATOM     26  C   UNL     1      -3.491  -2.280  25.358  0.00  0.00    +0.180 A 
ATOM     27  O   UNL     1      -2.819  -1.811  25.460  0.00  0.00    -0.446 OA
ENDBRANCH  21  23
ENDBRANCH  19  20
ENDBRANCH  18  19
TORSDOF 9
ENDMDL
MODEL 10
REMARK VINA RESULT:      -9.5      2.798      4.988
REMARK  Name = 
REMARK  9 active torsions:
REMARK  status: ('A' for Active; 'I' for Inactive)
REMARK    1  A    between atoms: O_2  and  C_3
REMARK    2  A    between atoms: C_6  and  C_7
REMARK    3  A    between atoms: C_7  and  N_8
REMARK    4  A    between atoms: C_9  and  C_11
REMARK    5  A    between atoms: C_11  and  C_12
REMARK    6  A    between atoms: C_14  and  C_15
REMARK    7  A    between atoms: C_18  and  C_19
REMARK    8  A    between atoms: C_19  and  N_20
REMARK    9  A    between atoms: C_21  and  C_23
REMARK                            x       y       z     vdW  Elec       q    Type
REMARK                         _______ _______ _______ _____ _____    ______ ____
ROOT
ATOM     12  C   UNL     1      -1.992  -0.081  24.860  0.00  0.00    +0.027 C 
ATOM     13  C   UNL     1      -1.910   0.741  24.874  0.00  0.00    +0.005 C 
ATOM     14  C   UNL     1      -1.199   1.087  24.640  0.00  0.00    +0.006 C 
ATOM     18  C   UNL     1      -0.571   0.614  24.393  0.00  0.00    +0.043 C 
ATOM     28  C   UNL     1      -0.653  -0.207  24.379  0.00  0.00    -0.033 C 
ATOM     29  C   UNL     1      -1.365  -0.554  24.613  0.00  0.00    -0.048 C 
ATOM     30  C   UNL     1      -1.447  -1.375  24.598  0.00  0.00    +0.026 C 
ENDROOT
BRANCH  14  15
ATOM     15  C   UNL     1      -1.116   1.909  24.655  0.00  0.00    +0.000 C 
ATOM     16  C   UNL     1      -0.869   2.286  25.345  0.00  0.00    +0.000 C 
ATOM     17  C   UNL     1      -1.281   2.351  23.978  0.00  0.00    +0.000 C 
ENDBRANCH  14  15
BRANCH  12  11
ATOM     11  C   UNL     1      -2.703  -0.427  25.094  0.00  0.00    +0.091 C 
BRANCH  11   9
ATOM      8  N   UNL     1      -3.903   0.348  25.136  0.00  0.00    -0.201 NA
ATOM      9  C   UNL     1      -3.413  -0.188  24.746  0.00  0.00    +0.242 C 
ATOM     10  O   UNL     1      -3.630  -0.485  24.009  0.00  0.00    -0.273 OA
BRANCH   8   7
ATOM      7  C   UNL     1      -4.612   0.587  24.788  0.00  0.00    +0.141 C 
BRANCH   7   6
ATOM      3  C   UNL     1      -5.662   2.725  25.462  0.00  0.00    +0.139 A 
ATOM      4  C   UNL     1      -5.197   2.690  24.782  0.00  0.00    +0.037 A 
ATOM      5  C   UNL     1      -4.847   1.978  24.557  0.00  0.00    +0.001 A 
ATOM      6  C   UNL     1      -4.962   1.300  25.013  0.00  0.00    -0.000 A 
ATOM     31  C   UNL     1      -5.427   1.334  25.694  0.00  0.00    +0.001 A 
ATOM     32  C   UNL     1      -5.777   2.047  25.918  0.00  0.00    +0.037 A 
BRANCH   3   2
ATOM      1  C   UNL     1      -5.590   4.143  25.620  0.00  0.00    +0.252 C 
ATOM      2  O   UNL     1      -6.011   3.437  25.687  0.00  0.00    -0.471 OA
ENDBRANCH   3   2
ENDBRANCH   7   6
ENDBRANCH   8   7
ENDBRANCH  11   9
ENDBRANCH  12  11
BRANCH  18  19
ATOM     19  C   UNL     1       0.140   0.961  24.159  0.00  0.00    +0.120 C 
BRANCH  19  20
ATOM     20  N   UNL     1       0.629   0.576  23.617  0.00  0.00    -0.199 NA
ATOM     21  C   UNL     1       1.388   0.863  23.470  0.00  0.00    +0.299 C 
ATOM     22  O   UNL     1       1.659   1.535  23.864  0.00  0.00    -0.265 OA
BRANCH  21  23
ATOM     23  C   UNL     1       1.877   0.477  22.928  0.00  0.00    +0.200 A 
ATOM     24  C   UNL     1       2.701   0.521  22.903  0.00  0.00    +0.046 A 
ATOM     25  C   UNL     1       2.961   0.051  22.276  0.00  0.00    +0.044 A 
ATOM     26  C   UNL     1       2.298  -0.282  21.915  0.00  0.00    +0.180 A 
ATOM     27  O   UNL     1       1.628  -0.018  22.319  0.00  0.00    -0.446 OA
ENDBRANCH  21  23
ENDBRANCH  19  20
ENDBRANCH  18  19
TORSDOF 9
ENDMDL
