MODEL 1
REMARK VINA RESULT:     -11.8      0.000      0.000
REMARK  Name = 
REMARK  5 active torsions:
REMARK  status: ('A' for Active; 'I' for Inactive)
REMARK    1  A    between atoms: C_3  and  C_4
REMARK    2  A    between atoms: C_4  and  N_5
REMARK    3  A    between atoms: N_8  and  C_9
REMARK    4  A    between atoms: C_17  and  N_18
REMARK    5  A    between atoms: N_18  and  C_19
REMARK                            x       y       z     vdW  Elec       q    Type
REMARK                         _______ _______ _______ _____ _____    ______ ____
ROOT
ATOM      1  O   UNL     1      -4.754   0.998  25.208  0.00  0.00    -0.219 OA
ATOM      2  C   UNL     1      -4.202   0.789  24.632  0.00  0.00    +0.199 C 
ATOM      3  C   UNL     1      -3.641   1.291  24.293  0.00  0.00    +0.169 C 
ATOM     15  O   UNL     1      -3.205   0.854  23.746  0.00  0.00    -0.350 OA
ATOM     16  C   UNL     1      -3.496   0.082  23.747  0.00  0.00    +0.162 C 
ATOM     17  C   UNL     1      -4.111   0.041  24.294  0.00  0.00    +0.135 C 
ENDROOT
BRANCH   3   4
ATOM      4  C   UNL     1      -3.537   2.090  24.470  0.00  0.00    +0.149 C 
BRANCH   4   5
ATOM      5  N   UNL     1      -2.883   2.331  24.914  0.00  0.00    -0.184 NA
ATOM      6  C   UNL     1      -2.569   3.086  24.806  0.00  0.00    +0.344 C 
ATOM      7  O   UNL     1      -2.906   3.600  24.256  0.00  0.00    -0.249 OA
ATOM      8  N   UNL     1      -1.916   3.327  25.250  0.00  0.00    -0.161 NA
BRANCH   8   9
ATOM      9  C   UNL     1      -1.601   4.082  25.142  0.00  0.00    +0.075 A 
ATOM     10  C   UNL     1      -2.028   4.746  25.384  0.00  0.00    +0.017 A 
ATOM     11  C   UNL     1      -1.712   5.500  25.276  0.00  0.00    +0.001 A 
ATOM     12  C   UNL     1      -0.971   5.592  24.927  0.00  0.00    +0.000 A 
ATOM     13  C   UNL     1      -0.544   4.928  24.685  0.00  0.00    +0.001 A 
ATOM     14  C   UNL     1      -0.859   4.173  24.792  0.00  0.00    +0.017 A 
ENDBRANCH   8   9
ENDBRANCH   4   5
ENDBRANCH   3   4
BRANCH  17  18
ATOM     18  N   UNL     1      -4.559  -0.628  24.474  0.00  0.00    -0.216 NA
BRANCH  18  19
ATOM     19  C   UNL     1      -4.197  -1.369  24.503  0.00  0.00    +0.073 C 
ATOM     20  C   UNL     1      -3.763  -1.590  25.169  0.00  0.00    +0.023 C 
ATOM     21  C   UNL     1      -3.402  -2.332  25.199  0.00  0.00    +0.068 C 
ATOM     22  C   UNL     1      -3.474  -2.852  24.563  0.00  0.00    +0.264 C 
ATOM     23  F   UNL     1      -3.010  -3.308  25.068  0.00  0.00    -0.204 F 
ATOM     24  F   UNL     1      -3.385  -3.530  24.101  0.00  0.00    -0.204 F 
ATOM     25  C   UNL     1      -3.908  -2.631  23.896  0.00  0.00    +0.068 C 
ATOM     26  C   UNL     1      -4.269  -1.889  23.866  0.00  0.00    +0.023 C 
ENDBRANCH  18  19
ENDBRANCH  17  18
TORSDOF 5
ENDMDL
MODEL 2
REMARK VINA RESULT:     -11.4      2.959      6.299
REMARK  Name = 
REMARK  5 active torsions:
REMARK  status: ('A' for Active; 'I' for Inactive)
REMARK    1  A    between atoms: C_3  and  C_4
REMARK    2  A    between atoms: C_4  and  N_5
REMARK    3  A    between atoms: N_8  and  C_9
REMARK    4  A    between atoms: C_17  and  N_18
REMARK    5  A    between atoms: N_18  and  C_19
REMARK                            x       y       z     vdW  Elec       q    Type
REMARK                         _______ _______ _______ _____ _____    ______ ____
ROOT
ATOM      1  O   UNL     1      -0.623   1.366  25.808  0.00  0.00    -0.219 OA
ATOM      2  C   UNL     1      -0.901   1.647  25.084  0.00  0.00    +0.199 C 
ATOM      3  C   UNL     1      -1.306   1.207  24.516  0.00  0.00    +0.169 C 
ATOM     15  O   UNL     1      -1.479   1.706  23.882  0.00  0.00    -0.350 OA
ATOM     16  C   UNL     1      -1.182   2.455  24.059  0.00  0.00    +0.162 C 
ATOM     17  C   UNL     1      -0.825   2.419  24.801  0.00  0.00    +0.135 C 
ENDROOT
BRANCH   3   4
ATOM      4  C   UNL     1      -1.502   0.408  24.572  0.00  0.00    +0.149 C 
BRANCH   4   5
ATOM      5  N   UNL     1      -2.286   0.184  24.706  0.00  0.00    -0.184 NA
ATOM      6  C   UNL     1      -2.526  -0.589  24.550  0.00  0.00    +0.344 C 
ATOM      7  O   UNL     1      -1.983  -1.140  24.260  0.00  0.00    -0.249 OA
ATOM      8  N   UNL     1      -3.309  -0.813  24.684  0.00  0.00    -0.161 NA
BRANCH   8   9
ATOM      9  C   UNL     1      -3.549  -1.586  24.528  0.00  0.00    +0.075 A 
ATOM     10  C   UNL     1      -3.308  -2.201  25.022  0.00  0.00    +0.017 A 
ATOM     11  C   UNL     1      -3.549  -2.975  24.865  0.00  0.00    +0.001 A 
ATOM     12  C   UNL     1      -4.030  -3.134  24.215  0.00  0.00    +0.000 A 
ATOM     13  C   UNL     1      -4.271  -2.519  23.720  0.00  0.00    +0.001 A 
ATOM     14  C   UNL     1      -4.031  -1.745  23.876  0.00  0.00    +0.017 A 
ENDBRANCH   8   9
ENDBRANCH   4   5
ENDBRANCH   3   4
BRANCH  17  18
ATOM     18  N   UNL     1      -0.456   3.044  25.193  0.00  0.00    -0.216 NA
BRANCH  18  19
ATOM     19  C   UNL     1      -0.796   3.796  25.181  0.00  0.00    +0.073 C 
ATOM     20  C   UNL     1      -1.482   3.945  25.612  0.00  0.00    +0.023 C 
ATOM     21  C   UNL     1      -1.822   4.697  25.600  0.00  0.00    +0.068 C 
ATOM     22  C   UNL     1      -1.475   5.300  25.157  0.00  0.00    +0.264 C 
ATOM     23  F   UNL     1      -2.118   5.707  25.472  0.00  0.00    -0.204 F 
ATOM     24  F   UNL     1      -1.351   6.044  24.822  0.00  0.00    -0.204 F 
ATOM     25  C   UNL     1      -0.788   5.151  24.725  0.00  0.00    +0.068 C 
ATOM     26  C   UNL     1      -0.448   4.398  24.737  0.00  0.00    +0.023 C 
ENDBRANCH  18  19
ENDBRANCH  17  18
TORSDOF 5
ENDMDL
MODEL 3
REMARK VINA RESULT:     -11.3      2.631      5.999
REMARK  Name = 
REMARK  5 active torsions:
REMARK  status: ('A' for Active; 'I' for Inactive)
REMARK    1  A    between atoms: C_3  and  C_4
REMARK    2  A    between atoms: C_4  and  N_5
REMARK    3  A    between atoms: N_8  and  C_9
REMARK    4  A    between atoms: C_17  and  N_18
REMARK    5  A    between atoms: N_18  and  C_19
REMARK                            x       y       z     vdW  Elec       q    Type
REMARK                         _______ _______ _______ _____ _____    ______ ____
ROOT
ATOM      1  O   UNL     1      -3.720   2.359  26.007  0.00  0.00    -0.219 OA
ATOM      2  C   UNL     1      -3.662   2.607  25.223  0.00  0.00    +0.199 C 
ATOM      3  C   UNL     1      -3.874   2.167  24.558  0.00  0.00    +0.169 C 
ATOM     15  O   UNL     1      -3.725   2.627  23.890  0.00  0.00    -0.350 OA
ATOM     16  C   UNL     1      -3.421   3.351  24.141  0.00  0.00    +0.162 C 
ATOM     17  C   UNL     1      -3.381   3.340  24.964  0.00  0.00    +0.135 C 
ENDROOT
BRANCH   3   4
ATOM      4  C   UNL     1      -4.182   1.402  24.562  0.00  0.00    +0.149 C 
BRANCH   4   5
ATOM      5  N   UNL     1      -3.826   0.812  24.107  0.00  0.00    -0.184 NA
ATOM      6  C   UNL     1      -3.913   0.020  24.318  0.00  0.00    +0.344 C 
ATOM      7  O   UNL     1      -4.357  -0.184  24.983  0.00  0.00    -0.249 OA
ATOM      8  N   UNL     1      -3.557  -0.570  23.862  0.00  0.00    -0.161 NA
BRANCH   8   9
ATOM      9  C   UNL     1      -3.645  -1.362  24.074  0.00  0.00    +0.075 A 
ATOM     10  C   UNL     1      -3.142  -1.699  24.635  0.00  0.00    +0.017 A 
ATOM     11  C   UNL     1      -3.231  -2.492  24.845  0.00  0.00    +0.001 A 
ATOM     12  C   UNL     1      -3.822  -2.948  24.495  0.00  0.00    +0.000 A 
ATOM     13  C   UNL     1      -4.324  -2.612  23.934  0.00  0.00    +0.001 A 
ATOM     14  C   UNL     1      -4.237  -1.819  23.723  0.00  0.00    +0.017 A 
ENDBRANCH   8   9
ENDBRANCH   4   5
ENDBRANCH   3   4
BRANCH  17  18
ATOM     18  N   UNL     1      -3.110   3.951  25.447  0.00  0.00    -0.216 NA
BRANCH  18  19
ATOM     19  C   UNL     1      -2.370   4.289  25.306  0.00  0.00    +0.073 C 
ATOM     20  C   UNL     1      -1.686   3.838  25.400  0.00  0.00    +0.023 C 
ATOM     21  C   UNL     1      -0.946   4.175  25.260  0.00  0.00    +0.068 C 
ATOM     22  C   UNL     1      -0.890   4.964  25.025  0.00  0.00    +0.264 C 
ATOM     23  F   UNL     1      -0.091   4.762  25.039  0.00  0.00    -0.204 F 
ATOM     24  F   UNL     1      -0.557   5.683  24.795  0.00  0.00    -0.204 F 
ATOM     25  C   UNL     1      -1.575   5.416  24.931  0.00  0.00    +0.068 C 
ATOM     26  C   UNL     1      -2.315   5.078  25.071  0.00  0.00    +0.023 C 
ENDBRANCH  18  19
ENDBRANCH  17  18
TORSDOF 5
ENDMDL
MODEL 4
REMARK VINA RESULT:     -10.8      1.898      2.122
REMARK  Name = 
REMARK  5 active torsions:
REMARK  status: ('A' for Active; 'I' for Inactive)
REMARK    1  A    between atoms: C_3  and  C_4
REMARK    2  A    between atoms: C_4  and  N_5
REMARK    3  A    between atoms: N_8  and  C_9
REMARK    4  A    between atoms: C_17  and  N_18
REMARK    5  A    between atoms: N_18  and  C_19
REMARK                            x       y       z     vdW  Elec       q    Type
REMARK                         _______ _______ _______ _____ _____    ______ ____
ROOT
ATOM      1  O   UNL     1      -1.226  -0.160  26.246  0.00  0.00    -0.219 OA
ATOM      2  C   UNL     1      -1.076  -0.271  25.443  0.00  0.00    +0.199 C 
ATOM      3  C   UNL     1      -0.790   0.300  24.920  0.00  0.00    +0.169 C 
ATOM     15  O   UNL     1      -0.723  -0.046  24.175  0.00  0.00    -0.350 OA
ATOM     16  C   UNL     1      -0.968  -0.832  24.236  0.00  0.00    +0.162 C 
ATOM     17  C   UNL     1      -1.186  -0.971  25.019  0.00  0.00    +0.135 C 
ENDROOT
BRANCH   3   4
ATOM      4  C   UNL     1      -0.603   1.081  25.110  0.00  0.00    +0.149 C 
BRANCH   4   5
ATOM      5  N   UNL     1      -0.812   1.692  24.595  0.00  0.00    -0.184 NA
ATOM      6  C   UNL     1      -0.917   2.457  24.886  0.00  0.00    +0.344 C 
ATOM      7  O   UNL     1      -0.813   2.612  25.689  0.00  0.00    -0.249 OA
ATOM      8  N   UNL     1      -1.125   3.068  24.371  0.00  0.00    -0.161 NA
BRANCH   8   9
ATOM      9  C   UNL     1      -1.230   3.833  24.661  0.00  0.00    +0.075 A 
ATOM     10  C   UNL     1      -1.941   4.044  25.023  0.00  0.00    +0.017 A 
ATOM     11  C   UNL     1      -2.044   4.809  25.312  0.00  0.00    +0.001 A 
ATOM     12  C   UNL     1      -1.438   5.364  25.241  0.00  0.00    +0.000 A 
ATOM     13  C   UNL     1      -0.728   5.153  24.879  0.00  0.00    +0.001 A 
ATOM     14  C   UNL     1      -0.623   4.388  24.589  0.00  0.00    +0.017 A 
ENDBRANCH   8   9
ENDBRANCH   4   5
ENDBRANCH   3   4
BRANCH  17  18
ATOM     18  N   UNL     1      -1.466  -1.683  25.327  0.00  0.00    -0.216 NA
BRANCH  18  19
ATOM     19  C   UNL     1      -2.146  -2.029  25.012  0.00  0.00    +0.073 C 
ATOM     20  C   UNL     1      -2.890  -1.770  25.255  0.00  0.00    +0.023 C 
ATOM     21  C   UNL     1      -3.571  -2.116  24.941  0.00  0.00    +0.068 C 
ATOM     22  C   UNL     1      -3.506  -2.720  24.384  0.00  0.00    +0.264 C 
ATOM     23  F   UNL     1      -4.327  -2.665  24.440  0.00  0.00    -0.204 F 
ATOM     24  F   UNL     1      -3.726  -3.305  23.845  0.00  0.00    -0.204 F 
ATOM     25  C   UNL     1      -2.762  -2.979  24.140  0.00  0.00    +0.068 C 
ATOM     26  C   UNL     1      -2.081  -2.633  24.454  0.00  0.00    +0.023 C 
ENDBRANCH  18  19
ENDBRANCH  17  18
TORSDOF 5
ENDMDL
