REMARK  Name = 
REMARK  3 active torsions:
REMARK  status: ('A' for Active; 'I' for Inactive)
REMARK    1  A    between atoms: C_2  and  C_3
REMARK    2  A    between atoms: C_13  and  O_15
REMARK    3  A    between atoms: O_15  and  C_16
REMARK                            x       y       z     vdW  Elec       q    Type
REMARK                         _______ _______ _______ _____ _____    ______ ____
ROOT
ATOM      1  O   UNL     1      -0.283   0.171   0.000  0.00  0.00    -0.275 OA
ATOM      2  C   UNL     1      -0.998  -0.242   0.000  0.00  0.00    +0.225 C 
ATOM      8  N   UNL     1      -1.712   0.171   0.000  0.00  0.00    -0.273 N 
ATOM      9  C   UNL     1      -2.394  -0.294   0.000  0.00  0.00    +0.126 C 
ATOM     10  C   UNL     1      -3.182  -0.051   0.000  0.00  0.00    +0.164 C 
ATOM     11  O   UNL     1      -3.483   0.717   0.000  0.00  0.00    -0.348 OA
ATOM     12  C   UNL     1      -3.071   1.431   0.000  0.00  0.00    +0.187 C 
ATOM     13  C   UNL     1      -2.255   1.554   0.000  0.00  0.00    +0.217 C 
ATOM     14  C   UNL     1      -1.650   0.993   0.000  0.00  0.00    +0.140 C 
ENDROOT
BRANCH   2   3
ATOM      3  C   UNL     1      -0.998  -1.067   0.000  0.00  0.00    +0.077 C 
ATOM      4  C   UNL     1      -0.330  -1.552   0.000  0.00  0.00    +0.009 C 
ATOM      5  C   UNL     1      -0.585  -2.337   0.000  0.00  0.00    +0.001 C 
ATOM      6  C   UNL     1      -1.410  -2.337   0.000  0.00  0.00    +0.001 C 
ATOM      7  C   UNL     1      -1.665  -1.552   0.000  0.00  0.00    +0.009 C 
ENDBRANCH   2   3
BRANCH  13  15
ATOM     15  O   UNL     1      -2.012   2.343   0.000  0.00  0.00    -0.459 OA
BRANCH  15  16
ATOM     16  C   UNL     1      -1.208   2.526   0.000  0.00  0.00    +0.245 A 
ATOM     17  C   UNL     1      -0.964   3.315   0.000  0.00  0.00    +0.156 A 
ATOM     18  N   UNL     1      -0.160   3.498   0.000  0.00  0.00    -0.236 NA
ATOM     19  C   UNL     1       0.401   2.893   0.000  0.00  0.00    +0.120 A 
ATOM     20  C   UNL     1       0.158   2.105   0.000  0.00  0.00    +0.123 A 
ATOM     21  N   UNL     1      -0.646   1.922   0.000  0.00  0.00    -0.207 NA
ENDBRANCH  15  16
ENDBRANCH  13  15
TORSDOF 3
