MODEL 1
REMARK VINA RESULT:     -12.6      0.000      0.000
REMARK  Name = 
REMARK  7 active torsions:
REMARK  status: ('A' for Active; 'I' for Inactive)
REMARK    1  A    between atoms: C_2  and  C_5
REMARK    2  A    between atoms: C_9  and  N_10
REMARK    3  A    between atoms: N_13  and  C_14
REMARK    4  A    between atoms: C_18  and  N_22
REMARK    5  A    between atoms: C_26  and  O_27
REMARK    6  A    between atoms: O_27  and  C_28
REMARK    7  A    between atoms: C_31  and  N_34
REMARK                            x       y       z     vdW  Elec       q    Type
REMARK                         _______ _______ _______ _____ _____    ______ ____
ROOT
ATOM     14  C   UNL     1      -0.519  -0.378  24.865  0.00  0.00    +0.156 C 
ATOM     15  C   UNL     1      -0.755  -0.251  25.645  0.00  0.00    +0.166 C 
ATOM     16  O   UNL     1      -0.771   0.563  25.777  0.00  0.00    -0.350 OA
ATOM     17  C   UNL     1      -0.546   0.939  25.079  0.00  0.00    +0.169 C 
ATOM     18  C   UNL     1      -0.416   1.675  24.728  0.00  0.00    +0.170 C 
ATOM     19  C   UNL     1      -0.180   1.548  23.948  0.00  0.00    +0.169 C 
ATOM     20  O   UNL     1      -0.164   0.734  23.816  0.00  0.00    -0.350 OA
ATOM     21  C   UNL     1      -0.390   0.358  24.515  0.00  0.00    +0.167 C 
ENDROOT
BRANCH  18  22
ATOM     22  N   UNL     1      -0.507   2.409  25.095  0.00  0.00    -0.180 N 
ATOM     23  N   UNL     1      -0.003   2.734  25.662  0.00  0.00    -0.040 NA
ATOM     24  N   UNL     1      -0.302   3.472  25.876  0.00  0.00    -0.020 NA
ATOM     25  N   UNL     1      -0.990   3.604  25.441  0.00  0.00    -0.071 NA
ATOM     26  C   UNL     1      -1.117   2.947  24.958  0.00  0.00    +0.343 A 
BRANCH  26  27
ATOM     27  O   UNL     1      -1.744   2.846  24.431  0.00  0.00    -0.421 OA
BRANCH  27  28
ATOM     28  C   UNL     1      -2.514   3.024  24.667  0.00  0.00    +0.149 A 
ATOM     29  C   UNL     1      -3.072   2.421  24.744  0.00  0.00    +0.039 A 
ATOM     30  C   UNL     1      -3.842   2.598  24.980  0.00  0.00    +0.022 A 
ATOM     31  C   UNL     1      -4.054   3.380  25.140  0.00  0.00    +0.085 A 
ATOM     32  C   UNL     1      -3.496   3.983  25.064  0.00  0.00    +0.022 A 
ATOM     33  C   UNL     1      -2.726   3.804  24.827  0.00  0.00    +0.039 A 
BRANCH  31  34
ATOM     34  N   UNL     1      -4.824   3.558  25.376  0.00  0.00    -0.208 N 
ATOM     35  C   UNL     1      -5.365   3.029  25.706  0.00  0.00    +0.202 A 
ATOM     36  N   UNL     1      -6.064   3.440  25.858  0.00  0.00    -0.200 NA
ATOM     37  C   UNL     1      -5.955   4.223  25.623  0.00  0.00    +0.221 A 
ATOM     38  N   UNL     1      -5.189   4.296  25.325  0.00  0.00    -0.141 NA
ENDBRANCH  31  34
ENDBRANCH  27  28
ENDBRANCH  26  27
ENDBRANCH  18  22
BRANCH  14  13
ATOM     10  N   UNL     1      -1.813  -1.391  24.717  0.00  0.00    -0.161 NA
ATOM     11  C   UNL     1      -1.075  -1.619  24.425  0.00  0.00    +0.344 C 
ATOM     12  O   UNL     1      -0.985  -2.352  24.059  0.00  0.00    -0.249 OA
ATOM     13  N   UNL     1      -0.429  -1.112  24.499  0.00  0.00    -0.184 NA
BRANCH  10   9
ATOM      5  C   UNL     1      -3.810  -2.130  24.238  0.00  0.00    +0.073 A 
ATOM      6  C   UNL     1      -3.753  -2.912  24.495  0.00  0.00    +0.004 A 
ATOM      7  C   UNL     1      -3.049  -3.187  24.827  0.00  0.00    +0.001 A 
ATOM      8  C   UNL     1      -2.402  -2.681  24.901  0.00  0.00    +0.017 A 
ATOM      9  C   UNL     1      -2.459  -1.898  24.643  0.00  0.00    +0.075 A 
ATOM     39  C   UNL     1      -3.163  -1.624  24.312  0.00  0.00    +0.021 A 
BRANCH   5   2
ATOM      1  F   UNL     1      -5.217  -1.580  23.575  0.00  0.00    -0.166 F 
ATOM      2  C   UNL     1      -4.514  -1.855  23.906  0.00  0.00    +0.419 C 
ATOM      3  F   UNL     1      -4.482  -2.455  23.341  0.00  0.00    -0.166 F 
ATOM      4  F   UNL     1      -4.545  -1.255  24.471  0.00  0.00    -0.166 F 
ENDBRANCH   5   2
ENDBRANCH  10   9
ENDBRANCH  14  13
TORSDOF 7
ENDMDL
MODEL 2
REMARK VINA RESULT:     -12.2      1.658      4.992
REMARK  Name = 
REMARK  7 active torsions:
REMARK  status: ('A' for Active; 'I' for Inactive)
REMARK    1  A    between atoms: C_2  and  C_5
REMARK    2  A    between atoms: C_9  and  N_10
REMARK    3  A    between atoms: N_13  and  C_14
REMARK    4  A    between atoms: C_18  and  N_22
REMARK    5  A    between atoms: C_26  and  O_27
REMARK    6  A    between atoms: O_27  and  C_28
REMARK    7  A    between atoms: C_31  and  N_34
REMARK                            x       y       z     vdW  Elec       q    Type
REMARK                         _______ _______ _______ _____ _____    ______ ____
ROOT
ATOM     14  C   UNL     1      -1.653   3.257  25.015  0.00  0.00    +0.156 C 
ATOM     15  C   UNL     1      -1.821   3.108  24.221  0.00  0.00    +0.166 C 
ATOM     16  O   UNL     1      -1.415   2.424  24.000  0.00  0.00    -0.350 OA
ATOM     17  C   UNL     1      -0.998   2.151  24.656  0.00  0.00    +0.169 C 
ATOM     18  C   UNL     1      -0.489   1.560  24.925  0.00  0.00    +0.170 C 
ATOM     19  C   UNL     1      -0.321   1.709  25.719  0.00  0.00    +0.169 C 
ATOM     20  O   UNL     1      -0.727   2.392  25.941  0.00  0.00    -0.350 OA
ATOM     21  C   UNL     1      -1.145   2.666  25.283  0.00  0.00    +0.167 C 
ENDROOT
BRANCH  18  22
ATOM     22  N   UNL     1      -0.198   0.930  24.479  0.00  0.00    -0.180 N 
ATOM     23  N   UNL     1       0.321   0.987  23.839  0.00  0.00    -0.040 NA
ATOM     24  N   UNL     1       0.464   0.225  23.559  0.00  0.00    -0.020 NA
ATOM     25  N   UNL     1       0.033  -0.303  24.024  0.00  0.00    -0.071 NA
ATOM     26  C   UNL     1      -0.376   0.133  24.592  0.00  0.00    +0.343 A 
BRANCH  26  27
ATOM     27  O   UNL     1      -0.875  -0.175  25.173  0.00  0.00    -0.421 OA
BRANCH  27  28
ATOM     28  C   UNL     1      -1.467  -0.712  24.966  0.00  0.00    +0.149 A 
ATOM     29  C   UNL     1      -2.255  -0.470  24.948  0.00  0.00    +0.039 A 
ATOM     30  C   UNL     1      -2.847  -1.006  24.742  0.00  0.00    +0.022 A 
ATOM     31  C   UNL     1      -2.650  -1.784  24.552  0.00  0.00    +0.085 A 
ATOM     32  C   UNL     1      -1.861  -2.027  24.569  0.00  0.00    +0.022 A 
ATOM     33  C   UNL     1      -1.270  -1.490  24.776  0.00  0.00    +0.039 A 
BRANCH  31  34
ATOM     34  N   UNL     1      -3.241  -2.321  24.345  0.00  0.00    -0.208 N 
ATOM     35  C   UNL     1      -3.286  -3.109  24.586  0.00  0.00    +0.202 A 
ATOM     36  N   UNL     1      -3.964  -3.441  24.251  0.00  0.00    -0.200 NA
ATOM     37  C   UNL     1      -4.337  -2.857  23.803  0.00  0.00    +0.221 A 
ATOM     38  N   UNL     1      -3.890  -2.166  23.861  0.00  0.00    -0.141 NA
ENDBRANCH  31  34
ENDBRANCH  27  28
ENDBRANCH  26  27
ENDBRANCH  18  22
BRANCH  14  13
ATOM     10  N   UNL     1      -3.278   3.420  25.252  0.00  0.00    -0.161 NA
ATOM     11  C   UNL     1      -2.756   3.969  25.581  0.00  0.00    +0.344 C 
ATOM     12  O   UNL     1      -3.046   4.598  26.027  0.00  0.00    -0.249 OA
ATOM     13  N   UNL     1      -1.944   3.887  25.462  0.00  0.00    -0.184 NA
BRANCH  10   9
ATOM      5  C   UNL     1      -5.357   2.926  25.698  0.00  0.00    +0.073 A 
ATOM      6  C   UNL     1      -5.715   3.665  25.609  0.00  0.00    +0.004 A 
ATOM      7  C   UNL     1      -5.261   4.321  25.401  0.00  0.00    +0.001 A 
ATOM      8  C   UNL     1      -4.448   4.240  25.282  0.00  0.00    +0.017 A 
ATOM      9  C   UNL     1      -4.090   3.502  25.371  0.00  0.00    +0.075 A 
ATOM     39  C   UNL     1      -4.545   2.845  25.579  0.00  0.00    +0.021 A 
BRANCH   5   2
ATOM      1  F   UNL     1      -6.265   1.614  26.115  0.00  0.00    -0.166 F 
ATOM      2  C   UNL     1      -5.811   2.270  25.907  0.00  0.00    +0.419 C 
ATOM      3  F   UNL     1      -5.809   2.019  25.121  0.00  0.00    -0.166 F 
ATOM      4  F   UNL     1      -5.813   2.521  26.692  0.00  0.00    -0.166 F 
ENDBRANCH   5   2
ENDBRANCH  10   9
ENDBRANCH  14  13
TORSDOF 7
ENDMDL
MODEL 3
REMARK VINA RESULT:     -11.8      2.650      5.937
REMARK  Name = 
REMARK  7 active torsions:
REMARK  status: ('A' for Active; 'I' for Inactive)
REMARK    1  A    between atoms: C_2  and  C_5
REMARK    2  A    between atoms: C_9  and  N_10
REMARK    3  A    between atoms: N_13  and  C_14
REMARK    4  A    between atoms: C_18  and  N_22
REMARK    5  A    between atoms: C_26  and  O_27
REMARK    6  A    between atoms: O_27  and  C_28
REMARK    7  A    between atoms: C_31  and  N_34
REMARK                            x       y       z     vdW  Elec       q    Type
REMARK                         _______ _______ _______ _____ _____    ______ ____
ROOT
ATOM     14  C   UNL     1      -4.562   0.289  24.951  0.00  0.00    +0.156 C 
ATOM     15  C   UNL     1      -4.467   0.199  24.137  0.00  0.00    +0.166 C 
ATOM     16  O   UNL     1      -3.907  -0.393  24.010  0.00  0.00    -0.350 OA
ATOM     17  C   UNL     1      -3.654  -0.668  24.745  0.00  0.00    +0.169 C 
ATOM     18  C   UNL     1      -3.152  -1.203  25.122  0.00  0.00    +0.170 C 
ATOM     19  C   UNL     1      -3.247  -1.113  25.936  0.00  0.00    +0.169 C 
ATOM     20  O   UNL     1      -3.807  -0.521  26.063  0.00  0.00    -0.350 OA
ATOM     21  C   UNL     1      -4.059  -0.246  25.327  0.00  0.00    +0.167 C 
ENDROOT
BRANCH  18  22
ATOM     22  N   UNL     1      -2.644  -1.736  24.749  0.00  0.00    -0.180 N 
ATOM     23  N   UNL     1      -2.854  -2.473  24.441  0.00  0.00    -0.040 NA
ATOM     24  N   UNL     1      -2.177  -2.817  24.120  0.00  0.00    -0.020 NA
ATOM     25  N   UNL     1      -1.549  -2.294  24.229  0.00  0.00    -0.071 NA
ATOM     26  C   UNL     1      -1.838  -1.626  24.617  0.00  0.00    +0.343 A 
BRANCH  26  27
ATOM     27  O   UNL     1      -1.396  -0.963  24.836  0.00  0.00    -0.421 OA
BRANCH  27  28
ATOM     28  C   UNL     1      -0.732  -0.746  24.396  0.00  0.00    +0.149 A 
ATOM     29  C   UNL     1      -0.766  -0.095  23.891  0.00  0.00    +0.039 A 
ATOM     30  C   UNL     1      -0.103   0.122  23.452  0.00  0.00    +0.022 A 
ATOM     31  C   UNL     1       0.595  -0.313  23.518  0.00  0.00    +0.085 A 
ATOM     32  C   UNL     1       0.630  -0.965  24.024  0.00  0.00    +0.022 A 
ATOM     33  C   UNL     1      -0.035  -1.181  24.463  0.00  0.00    +0.039 A 
BRANCH  31  34
ATOM     34  N   UNL     1       1.260  -0.097  23.079  0.00  0.00    -0.208 N 
ATOM     35  C   UNL     1       1.426  -0.331  22.306  0.00  0.00    +0.202 A 
ATOM     36  N   UNL     1       2.143   0.012  22.084  0.00  0.00    -0.200 NA
ATOM     37  C   UNL     1       2.420   0.457  22.721  0.00  0.00    +0.221 A 
ATOM     38  N   UNL     1       1.874   0.390  23.336  0.00  0.00    -0.141 NA
ENDBRANCH  31  34
ENDBRANCH  27  28
ENDBRANCH  26  27
ENDBRANCH  18  22
BRANCH  14  13
ATOM     10  N   UNL     1      -4.236   1.906  24.911  0.00  0.00    -0.161 NA
ATOM     11  C   UNL     1      -4.907   1.630  25.304  0.00  0.00    +0.344 C 
ATOM     12  O   UNL     1      -5.415   2.163  25.677  0.00  0.00    -0.249 OA
ATOM     13  N   UNL     1      -5.070   0.822  25.324  0.00  0.00    -0.184 NA
BRANCH  10   9
ATOM      5  C   UNL     1      -3.246   3.820  25.262  0.00  0.00    +0.073 A 
ATOM      6  C   UNL     1      -3.747   4.332  24.852  0.00  0.00    +0.004 A 
ATOM      7  C   UNL     1      -4.411   4.035  24.461  0.00  0.00    +0.001 A 
ATOM      8  C   UNL     1      -4.574   3.227  24.481  0.00  0.00    +0.017 A 
ATOM      9  C   UNL     1      -4.073   2.715  24.891  0.00  0.00    +0.075 A 
ATOM     39  C   UNL     1      -3.410   3.011  25.281  0.00  0.00    +0.021 A 
BRANCH   5   2
ATOM      1  F   UNL     1      -1.920   4.413  26.042  0.00  0.00    -0.166 F 
ATOM      2  C   UNL     1      -2.583   4.116  25.652  0.00  0.00    +0.419 C 
ATOM      3  F   UNL     1      -2.134   4.012  24.968  0.00  0.00    -0.166 F 
ATOM      4  F   UNL     1      -3.032   4.221  26.336  0.00  0.00    -0.166 F 
ENDBRANCH   5   2
ENDBRANCH  10   9
ENDBRANCH  14  13
TORSDOF 7
ENDMDL
MODEL 4
REMARK VINA RESULT:     -11.5      3.731      5.148
REMARK  Name = 
REMARK  7 active torsions:
REMARK  status: ('A' for Active; 'I' for Inactive)
REMARK    1  A    between atoms: C_2  and  C_5
REMARK    2  A    between atoms: C_9  and  N_10
REMARK    3  A    between atoms: N_13  and  C_14
REMARK    4  A    between atoms: C_18  and  N_22
REMARK    5  A    between atoms: C_26  and  O_27
REMARK    6  A    between atoms: O_27  and  C_28
REMARK    7  A    between atoms: C_31  and  N_34
REMARK                            x       y       z     vdW  Elec       q    Type
REMARK                         _______ _______ _______ _____ _____    ______ ____
ROOT
ATOM     14  C   UNL     1       0.812   0.066  23.045  0.00  0.00    +0.156 C 
ATOM     15  C   UNL     1       0.866   0.714  23.552  0.00  0.00    +0.166 C 
ATOM     16  O   UNL     1       0.341   0.592  24.177  0.00  0.00    -0.350 OA
ATOM     17  C   UNL     1      -0.036  -0.131  24.056  0.00  0.00    +0.169 C 
ATOM     18  C   UNL     1      -0.593  -0.654  24.367  0.00  0.00    +0.170 C 
ATOM     19  C   UNL     1      -0.646  -1.302  23.860  0.00  0.00    +0.169 C 
ATOM     20  O   UNL     1      -0.122  -1.180  23.235  0.00  0.00    -0.350 OA
ATOM     21  C   UNL     1       0.255  -0.456  23.356  0.00  0.00    +0.167 C 
ENDROOT
BRANCH  18  22
ATOM     22  N   UNL     1      -1.022  -0.547  25.064  0.00  0.00    -0.180 N 
ATOM     23  N   UNL     1      -0.749  -0.694  25.829  0.00  0.00    -0.040 NA
ATOM     24  N   UNL     1      -1.357  -0.512  26.356  0.00  0.00    -0.020 NA
ATOM     25  N   UNL     1      -2.005  -0.253  25.917  0.00  0.00    -0.071 NA
ATOM     26  C   UNL     1      -1.798  -0.275  25.119  0.00  0.00    +0.343 A 
BRANCH  26  27
ATOM     27  O   UNL     1      -2.283  -0.061  24.486  0.00  0.00    -0.421 OA
BRANCH  27  28
ATOM     28  C   UNL     1      -2.967   0.380  24.621  0.00  0.00    +0.149 A 
ATOM     29  C   UNL     1      -2.944   1.203  24.574  0.00  0.00    +0.039 A 
ATOM     30  C   UNL     1      -3.627   1.644  24.709  0.00  0.00    +0.022 A 
ATOM     31  C   UNL     1      -4.336   1.261  24.891  0.00  0.00    +0.085 A 
ATOM     32  C   UNL     1      -4.360   0.437  24.938  0.00  0.00    +0.022 A 
ATOM     33  C   UNL     1      -3.675  -0.003  24.803  0.00  0.00    +0.039 A 
BRANCH  31  34
ATOM     34  N   UNL     1      -5.020   1.701  25.026  0.00  0.00    -0.208 N 
ATOM     35  C   UNL     1      -5.066   2.408  25.450  0.00  0.00    +0.202 A 
ATOM     36  N   UNL     1      -5.853   2.656  25.448  0.00  0.00    -0.200 NA
ATOM     37  C   UNL     1      -6.293   2.103  25.022  0.00  0.00    +0.221 A 
ATOM     38  N   UNL     1      -5.778   1.513  24.762  0.00  0.00    -0.141 NA
ENDBRANCH  31  34
ENDBRANCH  27  28
ENDBRANCH  26  27
ENDBRANCH  18  22
BRANCH  14  13
ATOM     10  N   UNL     1       2.453   0.238  23.052  0.00  0.00    -0.161 NA
ATOM     11  C   UNL     1       2.062   0.045  22.351  0.00  0.00    +0.344 C 
ATOM     12  O   UNL     1       2.490  -0.062  21.655  0.00  0.00    -0.249 OA
ATOM     13  N   UNL     1       1.241  -0.041  22.348  0.00  0.00    -0.184 NA
BRANCH  10   9
ATOM      5  C   UNL     1       4.561  -0.107  23.502  0.00  0.00    +0.073 A 
ATOM      6  C   UNL     1       4.915   0.494  23.061  0.00  0.00    +0.004 A 
ATOM      7  C   UNL     1       4.449   1.009  22.617  0.00  0.00    +0.001 A 
ATOM      8  C   UNL     1       3.628   0.924  22.613  0.00  0.00    +0.017 A 
ATOM      9  C   UNL     1       3.274   0.323  23.054  0.00  0.00    +0.075 A 
ATOM     39  C   UNL     1       3.741  -0.192  23.498  0.00  0.00    +0.021 A 
BRANCH   5   2
ATOM      1  F   UNL     1       5.494  -1.138  24.390  0.00  0.00    -0.166 F 
ATOM      2  C   UNL     1       5.028  -0.623  23.946  0.00  0.00    +0.419 C 
ATOM      3  F   UNL     1       5.430   0.021  24.270  0.00  0.00    -0.166 F 
ATOM      4  F   UNL     1       4.626  -1.266  23.622  0.00  0.00    -0.166 F 
ENDBRANCH   5   2
ENDBRANCH  10   9
ENDBRANCH  14  13
TORSDOF 7
ENDMDL
MODEL 5
REMARK VINA RESULT:     -11.0      2.056      4.276
REMARK  Name = 
REMARK  7 active torsions:
REMARK  status: ('A' for Active; 'I' for Inactive)
REMARK    1  A    between atoms: C_2  and  C_5
REMARK    2  A    between atoms: C_9  and  N_10
REMARK    3  A    between atoms: N_13  and  C_14
REMARK    4  A    between atoms: C_18  and  N_22
REMARK    5  A    between atoms: C_26  and  O_27
REMARK    6  A    between atoms: O_27  and  C_28
REMARK    7  A    between atoms: C_31  and  N_34
REMARK                            x       y       z     vdW  Elec       q    Type
REMARK                         _______ _______ _______ _____ _____    ______ ____
ROOT
ATOM     14  C   UNL     1      -4.298   2.783  24.731  0.00  0.00    +0.156 C 
ATOM     15  C   UNL     1      -3.965   2.902  23.986  0.00  0.00    +0.166 C 
ATOM     16  O   UNL     1      -3.300   3.380  24.078  0.00  0.00    -0.350 OA
ATOM     17  C   UNL     1      -3.221   3.557  24.880  0.00  0.00    +0.169 C 
ATOM     18  C   UNL     1      -2.762   3.962  25.433  0.00  0.00    +0.170 C 
ATOM     19  C   UNL     1      -3.095   3.843  26.178  0.00  0.00    +0.169 C 
ATOM     20  O   UNL     1      -3.761   3.365  26.086  0.00  0.00    -0.350 OA
ATOM     21  C   UNL     1      -3.839   3.188  25.283  0.00  0.00    +0.167 C 
ENDROOT
BRANCH  18  22
ATOM     22  N   UNL     1      -2.087   4.407  25.269  0.00  0.00    -0.180 N 
ATOM     23  N   UNL     1      -2.073   5.163  24.935  0.00  0.00    -0.040 NA
ATOM     24  N   UNL     1      -1.286   5.398  24.870  0.00  0.00    -0.020 NA
ATOM     25  N   UNL     1      -0.813   4.789  25.163  0.00  0.00    -0.071 NA
ATOM     26  C   UNL     1      -1.308   4.177  25.409  0.00  0.00    +0.343 A 
BRANCH  26  27
ATOM     27  O   UNL     1      -1.066   3.460  25.739  0.00  0.00    -0.421 OA
BRANCH  27  28
ATOM     28  C   UNL     1      -0.621   2.929  25.290  0.00  0.00    +0.149 A 
ATOM     29  C   UNL     1      -0.192   3.198  24.639  0.00  0.00    +0.039 A 
ATOM     30  C   UNL     1       0.253   2.668  24.191  0.00  0.00    +0.022 A 
ATOM     31  C   UNL     1       0.269   1.868  24.393  0.00  0.00    +0.085 A 
ATOM     32  C   UNL     1      -0.161   1.599  25.045  0.00  0.00    +0.022 A 
ATOM     33  C   UNL     1      -0.606   2.130  25.493  0.00  0.00    +0.039 A 
BRANCH  31  34
ATOM     34  N   UNL     1       0.713   1.337  23.945  0.00  0.00    -0.208 N 
ATOM     35  C   UNL     1       0.427   0.656  23.577  0.00  0.00    +0.202 A 
ATOM     36  N   UNL     1       1.059   0.290  23.191  0.00  0.00    -0.200 NA
ATOM     37  C   UNL     1       1.734   0.746  23.321  0.00  0.00    +0.221 A 
ATOM     38  N   UNL     1       1.521   1.392  23.787  0.00  0.00    -0.141 NA
ENDBRANCH  31  34
ENDBRANCH  27  28
ENDBRANCH  26  27
ENDBRANCH  18  22
BRANCH  14  13
ATOM     10  N   UNL     1      -4.222   1.135  24.715  0.00  0.00    -0.161 NA
ATOM     11  C   UNL     1      -4.936   1.513  24.887  0.00  0.00    +0.344 C 
ATOM     12  O   UNL     1      -5.610   1.067  25.051  0.00  0.00    -0.249 OA
ATOM     13  N   UNL     1      -4.973   2.337  24.895  0.00  0.00    -0.184 NA
BRANCH  10   9
ATOM      5  C   UNL     1      -3.725  -0.912  25.287  0.00  0.00    +0.073 A 
ATOM      6  C   UNL     1      -4.109  -1.338  24.693  0.00  0.00    +0.004 A 
ATOM      7  C   UNL     1      -4.530  -0.939  24.106  0.00  0.00    +0.001 A 
ATOM      8  C   UNL     1      -4.568  -0.115  24.113  0.00  0.00    +0.017 A 
ATOM      9  C   UNL     1      -4.185   0.311  24.707  0.00  0.00    +0.075 A 
ATOM     39  C   UNL     1      -3.763  -0.088  25.294  0.00  0.00    +0.021 A 
BRANCH   5   2
ATOM      1  F   UNL     1      -2.883  -1.710  26.460  0.00  0.00    -0.166 F 
ATOM      2  C   UNL     1      -3.304  -1.311  25.873  0.00  0.00    +0.419 C 
ATOM      3  F   UNL     1      -2.625  -1.283  25.405  0.00  0.00    -0.166 F 
ATOM      4  F   UNL     1      -3.982  -1.339  26.342  0.00  0.00    -0.166 F 
ENDBRANCH   5   2
ENDBRANCH  10   9
ENDBRANCH  14  13
TORSDOF 7
ENDMDL
MODEL 6
REMARK VINA RESULT:     -10.9      2.569      5.935
REMARK  Name = 
REMARK  7 active torsions:
REMARK  status: ('A' for Active; 'I' for Inactive)
REMARK    1  A    between atoms: C_2  and  C_5
REMARK    2  A    between atoms: C_9  and  N_10
REMARK    3  A    between atoms: N_13  and  C_14
REMARK    4  A    between atoms: C_18  and  N_22
REMARK    5  A    between atoms: C_26  and  O_27
REMARK    6  A    between atoms: O_27  and  C_28
REMARK    7  A    between atoms: C_31  and  N_34
REMARK                            x       y       z     vdW  Elec       q    Type
REMARK                         _______ _______ _______ _____ _____    ______ ____
ROOT
ATOM     14  C   UNL     1      -1.982   2.701  24.357  0.00  0.00    +0.156 C 
ATOM     15  C   UNL     1      -1.652   2.536  25.094  0.00  0.00    +0.166 C 
ATOM     16  O   UNL     1      -1.253   1.816  25.039  0.00  0.00    -0.350 OA
ATOM     17  C   UNL     1      -1.337   1.536  24.269  0.00  0.00    +0.169 C 
ATOM     18  C   UNL     1      -1.143   0.919  23.757  0.00  0.00    +0.170 C 
ATOM     19  C   UNL     1      -1.473   1.084  23.019  0.00  0.00    +0.169 C 
ATOM     20  O   UNL     1      -1.871   1.804  23.075  0.00  0.00    -0.350 OA
ATOM     21  C   UNL     1      -1.787   2.084  23.847  0.00  0.00    +0.167 C 
ENDROOT
BRANCH  18  22
ATOM     22  N   UNL     1      -0.696   0.252  23.950  0.00  0.00    -0.180 N 
ATOM     23  N   UNL     1      -0.903  -0.329  24.499  0.00  0.00    -0.040 NA
ATOM     24  N   UNL     1      -0.300  -0.890  24.516  0.00  0.00    -0.020 NA
ATOM     25  N   UNL     1       0.281  -0.657  23.979  0.00  0.00    -0.071 NA
ATOM     26  C   UNL     1       0.036   0.049  23.629  0.00  0.00    +0.343 A 
BRANCH  26  27
ATOM     27  O   UNL     1       0.450   0.477  23.058  0.00  0.00    -0.421 OA
BRANCH  27  28
ATOM     28  C   UNL     1       1.275   0.440  23.033  0.00  0.00    +0.149 A 
ATOM     29  C   UNL     1       1.648  -0.131  22.570  0.00  0.00    +0.039 A 
ATOM     30  C   UNL     1       2.471  -0.168  22.545  0.00  0.00    +0.022 A 
ATOM     31  C   UNL     1       2.922   0.367  22.982  0.00  0.00    +0.085 A 
ATOM     32  C   UNL     1       2.548   0.939  23.446  0.00  0.00    +0.022 A 
ATOM     33  C   UNL     1       1.724   0.975  23.470  0.00  0.00    +0.039 A 
BRANCH  31  34
ATOM     34  N   UNL     1       3.746   0.331  22.958  0.00  0.00    -0.208 N 
ATOM     35  C   UNL     1       4.239   0.823  22.515  0.00  0.00    +0.202 A 
ATOM     36  N   UNL     1       5.019   0.594  22.654  0.00  0.00    -0.200 NA
ATOM     37  C   UNL     1       5.008  -0.039  23.183  0.00  0.00    +0.221 A 
ATOM     38  N   UNL     1       4.221  -0.201  23.370  0.00  0.00    -0.141 NA
ENDBRANCH  31  34
ENDBRANCH  27  28
ENDBRANCH  26  27
ENDBRANCH  18  22
BRANCH  14  13
ATOM     10  N   UNL     1      -3.524   2.854  24.924  0.00  0.00    -0.161 NA
ATOM     11  C   UNL     1      -3.199   3.445  24.447  0.00  0.00    +0.344 C 
ATOM     12  O   UNL     1      -3.646   4.111  24.254  0.00  0.00    -0.249 OA
ATOM     13  N   UNL     1      -2.428   3.368  24.164  0.00  0.00    -0.184 NA
BRANCH  10   9
ATOM      5  C   UNL     1      -5.633   2.439  25.302  0.00  0.00    +0.073 A 
ATOM      6  C   UNL     1      -5.837   3.084  25.774  0.00  0.00    +0.004 A 
ATOM      7  C   UNL     1      -5.270   3.653  25.963  0.00  0.00    +0.001 A 
ATOM      8  C   UNL     1      -4.499   3.576  25.680  0.00  0.00    +0.017 A 
ATOM      9  C   UNL     1      -4.295   2.931  25.208  0.00  0.00    +0.075 A 
ATOM     39  C   UNL     1      -4.862   2.362  25.019  0.00  0.00    +0.021 A 
BRANCH   5   2
ATOM      1  F   UNL     1      -6.767   1.301  24.924  0.00  0.00    -0.166 F 
ATOM      2  C   UNL     1      -6.200   1.870  25.113  0.00  0.00    +0.419 C 
ATOM      3  F   UNL     1      -6.234   2.160  24.342  0.00  0.00    -0.166 F 
ATOM      4  F   UNL     1      -6.166   1.580  25.884  0.00  0.00    -0.166 F 
ENDBRANCH   5   2
ENDBRANCH  10   9
ENDBRANCH  14  13
TORSDOF 7
ENDMDL
