MODEL 1
REMARK VINA RESULT:     -15.4      0.000      0.000
REMARK  Name = 
REMARK  4 active torsions:
REMARK  status: ('A' for Active; 'I' for Inactive)
REMARK    1  A    between atoms: C_5  and  C_6
REMARK    2  A    between atoms: C_6  and  N_7
REMARK    3  A    between atoms: C_16  and  N_17
REMARK    4  A    between atoms: C_18  and  C_20
REMARK                            x       y       z     vdW  Elec       q    Type
REMARK                         _______ _______ _______ _____ _____    ______ ____
ROOT
ATOM      7  N   UNL     1      -2.769   2.934  25.071  0.00  0.00    -0.269 NA
ATOM      8  C   UNL     1      -2.849   3.745  25.255  0.00  0.00    +0.074 C 
ATOM      9  C   UNL     1      -3.833   3.805  25.315  0.00  0.00    +0.039 C 
ATOM     10  C   UNL     1      -4.615   4.019  25.400  0.00  0.00    +0.011 C 
ATOM     11  C   UNL     1      -4.249   3.438  25.253  0.00  0.00    +0.054 C 
ATOM     12  C   UNL     1      -3.296   3.396  25.199  0.00  0.00    +0.078 C 
ATOM     13  C   UNL     1      -4.358   2.546  25.060  0.00  0.00    +0.041 A 
ATOM     14  C   UNL     1      -4.949   1.980  24.963  0.00  0.00    +0.014 A 
ATOM     15  C   UNL     1      -4.748   1.201  24.780  0.00  0.00    +0.023 A 
ATOM     16  C   UNL     1      -3.955   0.989  24.695  0.00  0.00    +0.130 A 
ATOM     26  C   UNL     1      -3.363   1.555  24.793  0.00  0.00    +0.276 A 
ATOM     27  O   UNL     1      -2.571   1.343  24.708  0.00  0.00    -0.266 OA
ATOM     28  N   UNL     1      -3.565   2.334  24.975  0.00  0.00    -0.298 N 
ATOM     29  C   UNL     1      -3.937   2.873  25.113  0.00  0.00    +0.110 C 
ENDROOT
BRANCH  16  17
ATOM     17  N   UNL     1      -3.754   0.210  24.513  0.00  0.00    -0.171 NA
ATOM     18  C   UNL     1      -4.128  -0.414  24.903  0.00  0.00    +0.269 C 
ATOM     19  O   UNL     1      -4.701  -0.258  25.475  0.00  0.00    -0.268 OA
BRANCH  18  20
ATOM     20  C   UNL     1      -3.928  -1.193  24.721  0.00  0.00    +0.055 A 
ATOM     21  C   UNL     1      -4.219  -1.544  24.033  0.00  0.00    +0.005 A 
ATOM     22  C   UNL     1      -4.019  -2.324  23.851  0.00  0.00    +0.000 A 
ATOM     23  C   UNL     1      -3.528  -2.752  24.358  0.00  0.00    +0.000 A 
ATOM     24  C   UNL     1      -3.237  -2.402  25.045  0.00  0.00    +0.000 A 
ATOM     25  C   UNL     1      -3.437  -1.622  25.227  0.00  0.00    +0.005 A 
ENDBRANCH  18  20
ENDBRANCH  16  17
BRANCH   7   6
ATOM      6  C   UNL     1      -2.399   2.218  24.894  0.00  0.00    +0.099 C 
BRANCH   6   5
ATOM      1  F   UNL     1       0.893   2.055  24.741  0.00  0.00    -0.204 F 
ATOM      2  C   UNL     1       0.070   2.096  24.779  0.00  0.00    +0.140 A 
ATOM      3  C   UNL     1      -0.366   2.264  24.100  0.00  0.00    +0.029 A 
ATOM      4  C   UNL     1      -1.190   2.304  24.138  0.00  0.00    -0.001 A 
ATOM      5  C   UNL     1      -1.577   2.177  24.856  0.00  0.00    -0.006 A 
ATOM     30  C   UNL     1      -1.140   2.010  25.535  0.00  0.00    -0.001 A 
ATOM     31  C   UNL     1      -0.316   1.969  25.497  0.00  0.00    +0.029 A 
ENDBRANCH   6   5
ENDBRANCH   7   6
TORSDOF 4
ENDMDL
MODEL 2
REMARK VINA RESULT:     -14.4      1.455      1.927
REMARK  Name = 
REMARK  4 active torsions:
REMARK  status: ('A' for Active; 'I' for Inactive)
REMARK    1  A    between atoms: C_5  and  C_6
REMARK    2  A    between atoms: C_6  and  N_7
REMARK    3  A    between atoms: C_16  and  N_17
REMARK    4  A    between atoms: C_18  and  C_20
REMARK                            x       y       z     vdW  Elec       q    Type
REMARK                         _______ _______ _______ _____ _____    ______ ____
ROOT
ATOM      7  N   UNL     1      -4.101   2.850  25.183  0.00  0.00    -0.269 NA
ATOM      8  C   UNL     1      -4.735   3.386  25.273  0.00  0.00    +0.074 C 
ATOM      9  C   UNL     1      -5.492   2.751  25.253  0.00  0.00    +0.039 C 
ATOM     10  C   UNL     1      -6.211   2.368  25.256  0.00  0.00    +0.011 C 
ATOM     11  C   UNL     1      -5.532   2.198  25.200  0.00  0.00    +0.054 C 
ATOM     12  C   UNL     1      -4.811   2.823  25.221  0.00  0.00    +0.078 C 
ATOM     13  C   UNL     1      -4.978   1.472  25.096  0.00  0.00    +0.041 A 
ATOM     14  C   UNL     1      -5.004   0.652  25.016  0.00  0.00    +0.014 A 
ATOM     15  C   UNL     1      -4.305   0.223  24.933  0.00  0.00    +0.023 A 
ATOM     16  C   UNL     1      -3.578   0.614  24.930  0.00  0.00    +0.130 A 
ATOM     26  C   UNL     1      -3.552   1.435  25.010  0.00  0.00    +0.276 A 
ATOM     27  O   UNL     1      -2.825   1.826  25.008  0.00  0.00    -0.266 OA
ATOM     28  N   UNL     1      -4.251   1.864  25.093  0.00  0.00    -0.298 N 
ATOM     29  C   UNL     1      -4.905   2.000  25.144  0.00  0.00    +0.110 C 
ENDROOT
BRANCH  16  17
ATOM     17  N   UNL     1      -2.879   0.185  24.847  0.00  0.00    -0.171 NA
ATOM     18  C   UNL     1      -2.795  -0.543  25.228  0.00  0.00    +0.269 C 
ATOM     19  O   UNL     1      -3.410  -0.839  25.691  0.00  0.00    -0.268 OA
BRANCH  18  20
ATOM     20  C   UNL     1      -2.096  -0.973  25.146  0.00  0.00    +0.055 A 
ATOM     21  C   UNL     1      -1.418  -0.740  25.553  0.00  0.00    +0.005 A 
ATOM     22  C   UNL     1      -0.719  -1.171  25.470  0.00  0.00    +0.000 A 
ATOM     23  C   UNL     1      -0.699  -1.834  24.980  0.00  0.00    +0.000 A 
ATOM     24  C   UNL     1      -1.377  -2.068  24.573  0.00  0.00    +0.000 A 
ATOM     25  C   UNL     1      -2.076  -1.636  24.656  0.00  0.00    +0.005 A 
ENDBRANCH  18  20
ENDBRANCH  16  17
BRANCH   7   6
ATOM      6  C   UNL     1      -3.323   2.582  25.111  0.00  0.00    +0.099 C 
BRANCH   6   5
ATOM      1  F   UNL     1      -0.821   4.729  25.256  0.00  0.00    -0.204 F 
ATOM      2  C   UNL     1      -1.447   4.192  25.220  0.00  0.00    +0.140 A 
ATOM      3  C   UNL     1      -1.748   3.960  24.489  0.00  0.00    +0.029 A 
ATOM      4  C   UNL     1      -2.374   3.423  24.452  0.00  0.00    -0.001 A 
ATOM      5  C   UNL     1      -2.698   3.119  25.148  0.00  0.00    -0.006 A 
ATOM     30  C   UNL     1      -2.396   3.352  25.879  0.00  0.00    -0.001 A 
ATOM     31  C   UNL     1      -1.770   3.889  25.915  0.00  0.00    +0.029 A 
ENDBRANCH   6   5
ENDBRANCH   7   6
TORSDOF 4
ENDMDL
MODEL 3
REMARK VINA RESULT:     -14.4      1.626      3.010
REMARK  Name = 
REMARK  4 active torsions:
REMARK  status: ('A' for Active; 'I' for Inactive)
REMARK    1  A    between atoms: C_5  and  C_6
REMARK    2  A    between atoms: C_6  and  N_7
REMARK    3  A    between atoms: C_16  and  N_17
REMARK    4  A    between atoms: C_18  and  C_20
REMARK                            x       y       z     vdW  Elec       q    Type
REMARK                         _______ _______ _______ _____ _____    ______ ____
ROOT
ATOM      7  N   UNL     1      -1.846   2.750  25.441  0.00  0.00    -0.269 NA
ATOM      8  C   UNL     1      -1.354   3.358  25.735  0.00  0.00    +0.074 C 
ATOM      9  C   UNL     1      -0.523   2.843  25.881  0.00  0.00    +0.039 C 
ATOM     10  C   UNL     1       0.223   2.568  26.054  0.00  0.00    +0.011 C 
ATOM     11  C   UNL     1      -0.380   2.310  25.805  0.00  0.00    +0.054 C 
ATOM     12  C   UNL     1      -1.175   2.821  25.669  0.00  0.00    +0.078 C 
ATOM     13  C   UNL     1      -0.761   1.528  25.507  0.00  0.00    +0.041 A 
ATOM     14  C   UNL     1      -0.579   0.733  25.384  0.00  0.00    +0.014 A 
ATOM     15  C   UNL     1      -1.152   0.221  25.086  0.00  0.00    +0.023 A 
ATOM     16  C   UNL     1      -1.907   0.503  24.911  0.00  0.00    +0.130 A 
ATOM     26  C   UNL     1      -2.089   1.298  25.034  0.00  0.00    +0.276 A 
ATOM     27  O   UNL     1      -2.845   1.580  24.859  0.00  0.00    -0.266 OA
ATOM     28  N   UNL     1      -1.516   1.811  25.332  0.00  0.00    -0.298 N 
ATOM     29  C   UNL     1      -0.930   2.032  25.568  0.00  0.00    +0.110 C 
ENDROOT
BRANCH  16  17
ATOM     17  N   UNL     1      -2.480  -0.010  24.614  0.00  0.00    -0.171 NA
ATOM     18  C   UNL     1      -2.529  -0.783  24.899  0.00  0.00    +0.269 C 
ATOM     19  O   UNL     1      -2.006  -1.042  25.481  0.00  0.00    -0.268 OA
BRANCH  18  20
ATOM     20  C   UNL     1      -3.102  -1.297  24.602  0.00  0.00    +0.055 A 
ATOM     21  C   UNL     1      -3.013  -2.112  24.696  0.00  0.00    +0.005 A 
ATOM     22  C   UNL     1      -3.586  -2.627  24.399  0.00  0.00    +0.000 A 
ATOM     23  C   UNL     1      -4.247  -2.325  24.007  0.00  0.00    +0.000 A 
ATOM     24  C   UNL     1      -4.336  -1.511  23.913  0.00  0.00    +0.000 A 
ATOM     25  C   UNL     1      -3.762  -0.997  24.210  0.00  0.00    +0.005 A 
ENDBRANCH  18  20
ENDBRANCH  16  17
BRANCH   7   6
ATOM      6  C   UNL     1      -2.523   2.384  25.144  0.00  0.00    +0.099 C 
BRANCH   6   5
ATOM      1  F   UNL     1      -5.313   4.112  24.793  0.00  0.00    -0.204 F 
ATOM      2  C   UNL     1      -4.615   3.679  24.881  0.00  0.00    +0.140 A 
ATOM      3  C   UNL     1      -4.447   3.310  25.598  0.00  0.00    +0.029 A 
ATOM      4  C   UNL     1      -3.749   2.878  25.686  0.00  0.00    -0.001 A 
ATOM      5  C   UNL     1      -3.220   2.815  25.056  0.00  0.00    -0.006 A 
ATOM     30  C   UNL     1      -3.389   3.185  24.338  0.00  0.00    -0.001 A 
ATOM     31  C   UNL     1      -4.087   3.617  24.250  0.00  0.00    +0.029 A 
ENDBRANCH   6   5
ENDBRANCH   7   6
TORSDOF 4
ENDMDL
MODEL 4
REMARK VINA RESULT:     -14.2      1.457      3.967
REMARK  Name = 
REMARK  4 active torsions:
REMARK  status: ('A' for Active; 'I' for Inactive)
REMARK    1  A    between atoms: C_5  and  C_6
REMARK    2  A    between atoms: C_6  and  N_7
REMARK    3  A    between atoms: C_16  and  N_17
REMARK    4  A    between atoms: C_18  and  C_20
REMARK                            x       y       z     vdW  Elec       q    Type
REMARK                         _______ _______ _______ _____ _____    ______ ____
ROOT
ATOM      7  N   UNL     1      -4.999   0.950  24.999  0.00  0.00    -0.269 NA
ATOM      8  C   UNL     1      -5.832   0.922  25.061  0.00  0.00    +0.074 C 
ATOM      9  C   UNL     1      -6.023   1.885  25.175  0.00  0.00    +0.039 C 
ATOM     10  C   UNL     1      -6.342   2.627  25.277  0.00  0.00    +0.011 C 
ATOM     11  C   UNL     1      -5.705   2.342  25.198  0.00  0.00    +0.054 C 
ATOM     12  C   UNL     1      -5.537   1.409  25.088  0.00  0.00    +0.078 C 
ATOM     13  C   UNL     1      -4.815   2.568  25.152  0.00  0.00    +0.041 A 
ATOM     14  C   UNL     1      -4.319   3.226  25.182  0.00  0.00    +0.014 A 
ATOM     15  C   UNL     1      -3.503   3.130  25.108  0.00  0.00    +0.023 A 
ATOM     16  C   UNL     1      -3.183   2.376  25.006  0.00  0.00    +0.130 A 
ATOM     26  C   UNL     1      -3.679   1.718  24.976  0.00  0.00    +0.276 A 
ATOM     27  O   UNL     1      -3.360   0.965  24.874  0.00  0.00    -0.266 OA
ATOM     28  N   UNL     1      -4.496   1.814  25.049  0.00  0.00    -0.298 N 
ATOM     29  C   UNL     1      -5.091   2.110  25.126  0.00  0.00    +0.110 C 
ENDROOT
BRANCH  16  17
ATOM     17  N   UNL     1      -2.367   2.282  24.933  0.00  0.00    -0.171 NA
ATOM     18  C   UNL     1      -1.856   2.781  25.345  0.00  0.00    +0.269 C 
ATOM     19  O   UNL     1      -2.161   3.374  25.830  0.00  0.00    -0.268 OA
BRANCH  18  20
ATOM     20  C   UNL     1      -1.040   2.687  25.273  0.00  0.00    +0.055 A 
ATOM     21  C   UNL     1      -0.676   2.787  24.539  0.00  0.00    +0.005 A 
ATOM     22  C   UNL     1       0.140   2.693  24.466  0.00  0.00    +0.000 A 
ATOM     23  C   UNL     1       0.593   2.499  25.129  0.00  0.00    +0.000 A 
ATOM     24  C   UNL     1       0.231   2.399  25.862  0.00  0.00    +0.000 A 
ATOM     25  C   UNL     1      -0.587   2.493  25.934  0.00  0.00    +0.005 A 
ENDBRANCH  18  20
ENDBRANCH  16  17
BRANCH   7   6
ATOM      6  C   UNL     1      -4.224   0.680  24.911  0.00  0.00    +0.099 C 
BRANCH   6   5
ATOM      1  F   UNL     1      -3.631  -2.548  24.566  0.00  0.00    -0.204 F 
ATOM      2  C   UNL     1      -3.780  -1.741  24.653  0.00  0.00    +0.140 A 
ATOM      3  C   UNL     1      -3.695  -1.383  25.391  0.00  0.00    +0.029 A 
ATOM      4  C   UNL     1      -3.843  -0.575  25.477  0.00  0.00    -0.001 A 
ATOM      5  C   UNL     1      -4.076  -0.126  24.825  0.00  0.00    -0.006 A 
ATOM     30  C   UNL     1      -4.161  -0.485  24.087  0.00  0.00    -0.001 A 
ATOM     31  C   UNL     1      -4.013  -1.293  24.001  0.00  0.00    +0.029 A 
ENDBRANCH   6   5
ENDBRANCH   7   6
TORSDOF 4
ENDMDL
