MODEL 1
REMARK VINA RESULT:     -13.6      0.000      0.000
REMARK  Name = 
REMARK  6 active torsions:
REMARK  status: ('A' for Active; 'I' for Inactive)
REMARK    1  A    between atoms: C_4  and  C_5
REMARK    2  A    between atoms: C_5  and  N_6
REMARK    3  A    between atoms: C_10  and  C_11
REMARK    4  A    between atoms: C_13  and  C_16
REMARK    5  A    between atoms: C_19  and  O_20
REMARK    6  A    between atoms: O_20  and  C_21
REMARK                            x       y       z     vdW  Elec       q    Type
REMARK                         _______ _______ _______ _____ _____    ______ ____
ROOT
ATOM     11  C   UNL     1      -1.181   2.739  24.808  0.00  0.00    +0.251 A 
ATOM     12  N   UNL     1      -1.478   2.000  25.021  0.00  0.00    -0.190 NA
ATOM     13  C   UNL     1      -0.959   1.424  24.739  0.00  0.00    +0.205 A 
ATOM     14  N   UNL     1      -0.339   1.809  24.351  0.00  0.00    -0.056 NA
ATOM     15  O   UNL     1      -0.477   2.621  24.395  0.00  0.00    -0.336 OA
ENDROOT
BRANCH  13  16
ATOM     16  C   UNL     1      -1.042   0.609  24.828  0.00  0.00    +0.058 A 
ATOM     17  C   UNL     1      -1.181   0.288  25.575  0.00  0.00    +0.010 A 
ATOM     18  C   UNL     1      -1.265  -0.528  25.665  0.00  0.00    +0.058 A 
ATOM     19  C   UNL     1      -1.210  -1.023  25.006  0.00  0.00    +0.225 A 
ATOM     27  N   UNL     1      -1.071  -0.702  24.259  0.00  0.00    -0.210 NA
ATOM     28  C   UNL     1      -0.987   0.114  24.170  0.00  0.00    +0.105 A 
BRANCH  19  20
ATOM     20  O   UNL     1      -1.294  -1.839  25.096  0.00  0.00    -0.464 OA
BRANCH  20  21
ATOM     21  C   UNL     1      -2.017  -2.199  24.930  0.00  0.00    +0.168 C 
ATOM     22  C   UNL     1      -2.104  -2.655  24.247  0.00  0.00    +0.044 C 
ATOM     23  C   UNL     1      -2.827  -3.015  24.081  0.00  0.00    +0.004 C 
ATOM     24  C   UNL     1      -3.463  -2.920  24.597  0.00  0.00    +0.000 C 
ATOM     25  C   UNL     1      -3.377  -2.466  25.279  0.00  0.00    +0.004 C 
ATOM     26  C   UNL     1      -2.654  -2.105  25.447  0.00  0.00    +0.044 C 
ENDBRANCH  20  21
ENDBRANCH  19  20
ENDBRANCH  13  16
BRANCH  11  10
ATOM      6  N   UNL     1      -2.326   3.658  24.889  0.00  0.00    -0.263 NA
ATOM      7  C   UNL     1      -2.429   4.442  25.125  0.00  0.00    +0.073 C 
ATOM      8  C   UNL     1      -1.695   4.736  25.360  0.00  0.00    +0.019 C 
ATOM      9  C   UNL     1      -1.138   4.134  25.270  0.00  0.00    +0.027 C 
ATOM     10  C   UNL     1      -1.528   3.469  24.980  0.00  0.00    +0.138 C 
BRANCH   6   5
ATOM      5  C   UNL     1      -2.917   3.153  24.612  0.00  0.00    +0.101 C 
BRANCH   5   4
ATOM      1  C   UNL     1      -5.348   4.339  25.667  0.00  0.00    +0.130 C 
ATOM      2  N   UNL     1      -4.813   3.797  25.352  0.00  0.00    -0.324 N 
ATOM      3  C   UNL     1      -4.023   3.946  25.167  0.00  0.00    +0.073 A 
ATOM      4  C   UNL     1      -3.695   3.251  24.867  0.00  0.00    +0.012 A 
ATOM     29  C   UNL     1      -4.282   2.673  24.867  0.00  0.00    +0.015 A 
ATOM     30  C   UNL     1      -4.973   3.010  25.167  0.00  0.00    +0.060 A 
ATOM     31  C   UNL     1      -5.659   2.555  25.232  0.00  0.00    +0.017 A 
ATOM     32  C   UNL     1      -5.654   1.764  24.998  0.00  0.00    +0.001 A 
ATOM     33  C   UNL     1      -4.963   1.428  24.698  0.00  0.00    +0.000 A 
ATOM     34  C   UNL     1      -4.277   1.881  24.633  0.00  0.00    +0.001 A 
ENDBRANCH   5   4
ENDBRANCH   6   5
ENDBRANCH  11  10
TORSDOF 6
ENDMDL
MODEL 2
REMARK VINA RESULT:     -12.6      2.418      4.078
REMARK  Name = 
REMARK  6 active torsions:
REMARK  status: ('A' for Active; 'I' for Inactive)
REMARK    1  A    between atoms: C_4  and  C_5
REMARK    2  A    between atoms: C_5  and  N_6
REMARK    3  A    between atoms: C_10  and  C_11
REMARK    4  A    between atoms: C_13  and  C_16
REMARK    5  A    between atoms: C_19  and  O_20
REMARK    6  A    between atoms: O_20  and  C_21
REMARK                            x       y       z     vdW  Elec       q    Type
REMARK                         _______ _______ _______ _____ _____    ______ ____
ROOT
ATOM     11  C   UNL     1      -1.857  -0.174  25.078  0.00  0.00    +0.251 A 
ATOM     12  N   UNL     1      -1.416  -0.256  24.386  0.00  0.00    -0.190 NA
ATOM     13  C   UNL     1      -0.655   0.029  24.532  0.00  0.00    +0.205 A 
ATOM     14  N   UNL     1      -0.626   0.288  25.315  0.00  0.00    -0.056 NA
ATOM     15  O   UNL     1      -1.369   0.162  25.652  0.00  0.00    -0.336 OA
ENDROOT
BRANCH  13  16
ATOM     16  C   UNL     1      -0.033   0.051  23.991  0.00  0.00    +0.058 A 
ATOM     17  C   UNL     1       0.251   0.777  23.720  0.00  0.00    +0.010 A 
ATOM     18  C   UNL     1       0.873   0.800  23.178  0.00  0.00    +0.058 A 
ATOM     19  C   UNL     1       1.211   0.097  22.909  0.00  0.00    +0.225 A 
ATOM     27  N   UNL     1       0.927  -0.628  23.181  0.00  0.00    -0.210 NA
ATOM     28  C   UNL     1       0.305  -0.651  23.721  0.00  0.00    +0.105 A 
BRANCH  19  20
ATOM     20  O   UNL     1       1.834   0.120  22.367  0.00  0.00    -0.464 OA
BRANCH  20  21
ATOM     21  C   UNL     1       2.611   0.190  22.636  0.00  0.00    +0.168 C 
ATOM     22  C   UNL     1       2.987   0.924  22.621  0.00  0.00    +0.044 C 
ATOM     23  C   UNL     1       3.764   0.994  22.889  0.00  0.00    +0.004 C 
ATOM     24  C   UNL     1       4.165   0.331  23.173  0.00  0.00    +0.000 C 
ATOM     25  C   UNL     1       3.788  -0.402  23.187  0.00  0.00    +0.004 C 
ATOM     26  C   UNL     1       3.011  -0.474  22.919  0.00  0.00    +0.044 C 
ENDBRANCH  20  21
ENDBRANCH  19  20
ENDBRANCH  13  16
BRANCH  11  10
ATOM      6  N   UNL     1      -3.302   0.088  25.025  0.00  0.00    -0.263 NA
ATOM      7  C   UNL     1      -3.981  -0.348  25.201  0.00  0.00    +0.073 C 
ATOM      8  C   UNL     1      -3.745  -1.094  25.461  0.00  0.00    +0.019 C 
ATOM      9  C   UNL     1      -2.920  -1.120  25.447  0.00  0.00    +0.027 C 
ATOM     10  C   UNL     1      -2.647  -0.390  25.178  0.00  0.00    +0.138 C 
BRANCH   6   5
ATOM      5  C   UNL     1      -3.283   0.864  24.746  0.00  0.00    +0.101 C 
BRANCH   5   4
ATOM      1  C   UNL     1      -6.020   1.780  25.064  0.00  0.00    +0.130 C 
ATOM      2  N   UNL     1      -5.199   1.774  24.988  0.00  0.00    -0.324 N 
ATOM      3  C   UNL     1      -4.726   1.104  24.895  0.00  0.00    +0.073 A 
ATOM      4  C   UNL     1      -3.941   1.353  24.843  0.00  0.00    +0.012 A 
ATOM     29  C   UNL     1      -3.930   2.175  24.903  0.00  0.00    +0.015 A 
ATOM     30  C   UNL     1      -4.707   2.435  24.993  0.00  0.00    +0.060 A 
ATOM     31  C   UNL     1      -4.866   3.241  25.068  0.00  0.00    +0.017 A 
ATOM     32  C   UNL     1      -4.248   3.787  25.052  0.00  0.00    +0.001 A 
ATOM     33  C   UNL     1      -3.470   3.527  24.962  0.00  0.00    +0.000 A 
ATOM     34  C   UNL     1      -3.311   2.721  24.887  0.00  0.00    +0.001 A 
ENDBRANCH   5   4
ENDBRANCH   6   5
ENDBRANCH  11  10
TORSDOF 6
ENDMDL
MODEL 3
REMARK VINA RESULT:     -12.5      1.603      3.210
REMARK  Name = 
REMARK  6 active torsions:
REMARK  status: ('A' for Active; 'I' for Inactive)
REMARK    1  A    between atoms: C_4  and  C_5
REMARK    2  A    between atoms: C_5  and  N_6
REMARK    3  A    between atoms: C_10  and  C_11
REMARK    4  A    between atoms: C_13  and  C_16
REMARK    5  A    between atoms: C_19  and  O_20
REMARK    6  A    between atoms: O_20  and  C_21
REMARK                            x       y       z     vdW  Elec       q    Type
REMARK                         _______ _______ _______ _____ _____    ______ ____
ROOT
ATOM     11  C   UNL     1      -4.856   2.171  25.044  0.00  0.00    +0.251 A 
ATOM     12  N   UNL     1      -4.369   1.526  25.209  0.00  0.00    -0.190 NA
ATOM     13  C   UNL     1      -4.696   0.860  24.848  0.00  0.00    +0.205 A 
ATOM     14  N   UNL     1      -5.385   1.093  24.459  0.00  0.00    -0.056 NA
ATOM     15  O   UNL     1      -5.484   1.903  24.581  0.00  0.00    -0.336 OA
ENDROOT
BRANCH  13  16
ATOM     16  C   UNL     1      -4.388   0.095  24.872  0.00  0.00    +0.058 A 
ATOM     17  C   UNL     1      -4.339  -0.351  24.179  0.00  0.00    +0.010 A 
ATOM     18  C   UNL     1      -4.031  -1.117  24.202  0.00  0.00    +0.058 A 
ATOM     19  C   UNL     1      -3.772  -1.435  24.918  0.00  0.00    +0.225 A 
ATOM     27  N   UNL     1      -3.821  -0.989  25.610  0.00  0.00    -0.210 NA
ATOM     28  C   UNL     1      -4.128  -0.224  25.587  0.00  0.00    +0.105 A 
BRANCH  19  20
ATOM     20  O   UNL     1      -3.464  -2.201  24.941  0.00  0.00    -0.464 OA
BRANCH  20  21
ATOM     21  C   UNL     1      -2.661  -2.326  24.800  0.00  0.00    +0.168 C 
ATOM     22  C   UNL     1      -2.419  -2.723  24.118  0.00  0.00    +0.044 C 
ATOM     23  C   UNL     1      -1.616  -2.848  23.977  0.00  0.00    +0.004 C 
ATOM     24  C   UNL     1      -1.055  -2.577  24.518  0.00  0.00    +0.000 C 
ATOM     25  C   UNL     1      -1.297  -2.180  25.199  0.00  0.00    +0.004 C 
ATOM     26  C   UNL     1      -2.100  -2.055  25.341  0.00  0.00    +0.044 C 
ENDBRANCH  20  21
ENDBRANCH  19  20
ENDBRANCH  13  16
BRANCH  11  10
ATOM      6  N   UNL     1      -4.019   3.357  25.276  0.00  0.00    -0.263 NA
ATOM      7  C   UNL     1      -4.150   4.112  25.582  0.00  0.00    +0.073 C 
ATOM      8  C   UNL     1      -4.945   4.168  25.793  0.00  0.00    +0.019 C 
ATOM      9  C   UNL     1      -5.307   3.448  25.617  0.00  0.00    +0.027 C 
ATOM     10  C   UNL     1      -4.735   2.947  25.298  0.00  0.00    +0.138 C 
BRANCH   6   5
ATOM      5  C   UNL     1      -3.300   3.065  24.997  0.00  0.00    +0.101 C 
BRANCH   5   4
ATOM      1  C   UNL     1      -1.459   5.309  25.089  0.00  0.00    +0.130 C 
ATOM      2  N   UNL     1      -1.766   4.545  25.125  0.00  0.00    -0.324 N 
ATOM      3  C   UNL     1      -2.551   4.330  24.988  0.00  0.00    +0.073 A 
ATOM      4  C   UNL     1      -2.612   3.513  25.083  0.00  0.00    +0.012 A 
ATOM     29  C   UNL     1      -1.865   3.223  25.278  0.00  0.00    +0.015 A 
ATOM     30  C   UNL     1      -1.343   3.860  25.304  0.00  0.00    +0.060 A 
ATOM     31  C   UNL     1      -0.548   3.734  25.487  0.00  0.00    +0.017 A 
ATOM     32  C   UNL     1      -0.276   2.972  25.645  0.00  0.00    +0.001 A 
ATOM     33  C   UNL     1      -0.799   2.334  25.619  0.00  0.00    +0.000 A 
ATOM     34  C   UNL     1      -1.594   2.459  25.435  0.00  0.00    +0.001 A 
ENDBRANCH   5   4
ENDBRANCH   6   5
ENDBRANCH  11  10
TORSDOF 6
ENDMDL
MODEL 4
REMARK VINA RESULT:     -12.4      2.755      4.388
REMARK  Name = 
REMARK  6 active torsions:
REMARK  status: ('A' for Active; 'I' for Inactive)
REMARK    1  A    between atoms: C_4  and  C_5
REMARK    2  A    between atoms: C_5  and  N_6
REMARK    3  A    between atoms: C_10  and  C_11
REMARK    4  A    between atoms: C_13  and  C_16
REMARK    5  A    between atoms: C_19  and  O_20
REMARK    6  A    between atoms: O_20  and  C_21
REMARK                            x       y       z     vdW  Elec       q    Type
REMARK                         _______ _______ _______ _____ _____    ______ ____
ROOT
ATOM     11  C   UNL     1      -1.353   0.571  24.243  0.00  0.00    +0.251 A 
ATOM     12  N   UNL     1      -0.773   0.707  23.672  0.00  0.00    -0.190 NA
ATOM     13  C   UNL     1      -0.085   0.319  23.909  0.00  0.00    +0.205 A 
ATOM     14  N   UNL     1      -0.240  -0.058  24.627  0.00  0.00    -0.056 NA
ATOM     15  O   UNL     1      -1.023   0.098  24.832  0.00  0.00    -0.336 OA
ENDROOT
BRANCH  13  16
ATOM     16  C   UNL     1       0.631   0.308  23.501  0.00  0.00    +0.058 A 
ATOM     17  C   UNL     1       0.818  -0.330  23.013  0.00  0.00    +0.010 A 
ATOM     18  C   UNL     1       1.536  -0.340  22.604  0.00  0.00    +0.058 A 
ATOM     19  C   UNL     1       2.065   0.287  22.685  0.00  0.00    +0.225 A 
ATOM     27  N   UNL     1       1.878   0.925  23.173  0.00  0.00    -0.210 NA
ATOM     28  C   UNL     1       1.161   0.936  23.581  0.00  0.00    +0.105 A 
BRANCH  19  20
ATOM     20  O   UNL     1       2.782   0.277  22.276  0.00  0.00    -0.464 OA
BRANCH  20  21
ATOM     21  C   UNL     1       3.492   0.220  22.692  0.00  0.00    +0.168 C 
ATOM     22  C   UNL     1       3.722  -0.503  23.018  0.00  0.00    +0.044 C 
ATOM     23  C   UNL     1       4.432  -0.560  23.434  0.00  0.00    +0.004 C 
ATOM     24  C   UNL     1       4.912   0.104  23.524  0.00  0.00    +0.000 C 
ATOM     25  C   UNL     1       4.683   0.826  23.198  0.00  0.00    +0.004 C 
ATOM     26  C   UNL     1       3.973   0.884  22.782  0.00  0.00    +0.044 C 
ENDBRANCH  20  21
ENDBRANCH  19  20
ENDBRANCH  13  16
BRANCH  11  10
ATOM      6  N   UNL     1      -2.387   1.566  24.560  0.00  0.00    -0.263 NA
ATOM      7  C   UNL     1      -3.197   1.633  24.412  0.00  0.00    +0.073 C 
ATOM      8  C   UNL     1      -3.435   0.968  23.988  0.00  0.00    +0.019 C 
ATOM      9  C   UNL     1      -2.774   0.488  23.872  0.00  0.00    +0.027 C 
ATOM     10  C   UNL     1      -2.127   0.858  24.226  0.00  0.00    +0.138 C 
BRANCH   6   5
ATOM      5  C   UNL     1      -1.922   2.111  24.969  0.00  0.00    +0.101 C 
BRANCH   5   4
ATOM      1  C   UNL     1      -3.750   4.142  25.952  0.00  0.00    +0.130 C 
ATOM      2  N   UNL     1      -3.081   3.773  25.643  0.00  0.00    -0.324 N 
ATOM      3  C   UNL     1      -2.995   2.965  25.499  0.00  0.00    +0.073 A 
ATOM      4  C   UNL     1      -2.240   2.839  25.191  0.00  0.00    +0.012 A 
ATOM     29  C   UNL     1      -1.860   3.569  25.145  0.00  0.00    +0.015 A 
ATOM     30  C   UNL     1      -2.379   4.146  25.424  0.00  0.00    +0.060 A 
ATOM     31  C   UNL     1      -2.144   4.937  25.442  0.00  0.00    +0.017 A 
ATOM     32  C   UNL     1      -1.392   5.151  25.181  0.00  0.00    +0.001 A 
ATOM     33  C   UNL     1      -0.873   4.574  24.902  0.00  0.00    +0.000 A 
ATOM     34  C   UNL     1      -1.106   3.783  24.883  0.00  0.00    +0.001 A 
ENDBRANCH   5   4
ENDBRANCH   6   5
ENDBRANCH  11  10
TORSDOF 6
ENDMDL
MODEL 5
REMARK VINA RESULT:     -12.2      1.221      4.885
REMARK  Name = 
REMARK  6 active torsions:
REMARK  status: ('A' for Active; 'I' for Inactive)
REMARK    1  A    between atoms: C_4  and  C_5
REMARK    2  A    between atoms: C_5  and  N_6
REMARK    3  A    between atoms: C_10  and  C_11
REMARK    4  A    between atoms: C_13  and  C_16
REMARK    5  A    between atoms: C_19  and  O_20
REMARK    6  A    between atoms: O_20  and  C_21
REMARK                            x       y       z     vdW  Elec       q    Type
REMARK                         _______ _______ _______ _____ _____    ______ ____
ROOT
ATOM     11  C   UNL     1      -0.511   1.209  24.084  0.00  0.00    +0.251 A 
ATOM     12  N   UNL     1      -1.328   1.319  24.097  0.00  0.00    -0.190 NA
ATOM     13  C   UNL     1      -1.478   2.100  24.317  0.00  0.00    +0.205 A 
ATOM     14  N   UNL     1      -0.752   2.474  24.440  0.00  0.00    -0.056 NA
ATOM     15  O   UNL     1      -0.155   1.923  24.295  0.00  0.00    -0.336 OA
ENDROOT
BRANCH  13  16
ATOM     16  C   UNL     1      -2.221   2.448  24.401  0.00  0.00    +0.058 A 
ATOM     17  C   UNL     1      -2.758   2.426  23.775  0.00  0.00    +0.010 A 
ATOM     18  C   UNL     1      -3.502   2.774  23.858  0.00  0.00    +0.058 A 
ATOM     19  C   UNL     1      -3.708   3.142  24.567  0.00  0.00    +0.225 A 
ATOM     27  N   UNL     1      -3.170   3.164  25.192  0.00  0.00    -0.210 NA
ATOM     28  C   UNL     1      -2.427   2.817  25.109  0.00  0.00    +0.105 A 
BRANCH  19  20
ATOM     20  O   UNL     1      -4.452   3.490  24.650  0.00  0.00    -0.464 OA
BRANCH  20  21
ATOM     21  C   UNL     1      -5.062   3.074  25.018  0.00  0.00    +0.168 C 
ATOM     22  C   UNL     1      -5.313   3.292  25.774  0.00  0.00    +0.044 C 
ATOM     23  C   UNL     1      -5.923   2.876  26.141  0.00  0.00    +0.004 C 
ATOM     24  C   UNL     1      -6.283   2.243  25.754  0.00  0.00    +0.000 C 
ATOM     25  C   UNL     1      -6.032   2.025  24.999  0.00  0.00    +0.004 C 
ATOM     26  C   UNL     1      -5.422   2.441  24.630  0.00  0.00    +0.044 C 
ENDBRANCH  20  21
ENDBRANCH  19  20
ENDBRANCH  13  16
BRANCH  11  10
ATOM      6  N   UNL     1      -0.284  -0.238  24.203  0.00  0.00    -0.263 NA
ATOM      7  C   UNL     1       0.239  -0.777  23.859  0.00  0.00    +0.073 C 
ATOM      8  C   UNL     1       0.724  -0.363  23.336  0.00  0.00    +0.019 C 
ATOM      9  C   UNL     1       0.503   0.431  23.356  0.00  0.00    +0.027 C 
ATOM     10  C   UNL     1      -0.119   0.508  23.891  0.00  0.00    +0.138 C 
BRANCH   6   5
ATOM      5  C   UNL     1      -0.866  -0.415  24.759  0.00  0.00    +0.101 C 
BRANCH   5   4
ATOM      1  C   UNL     1      -1.723  -3.074  23.966  0.00  0.00    +0.130 C 
ATOM      2  N   UNL     1      -1.702  -2.331  24.322  0.00  0.00    -0.324 N 
ATOM      3  C   UNL     1      -1.104  -1.768  24.235  0.00  0.00    +0.073 A 
ATOM      4  C   UNL     1      -1.308  -1.108  24.686  0.00  0.00    +0.012 A 
ATOM     29  C   UNL     1      -2.032  -1.262  25.051  0.00  0.00    +0.015 A 
ATOM     30  C   UNL     1      -2.275  -2.018  24.826  0.00  0.00    +0.060 A 
ATOM     31  C   UNL     1      -2.987  -2.323  25.109  0.00  0.00    +0.017 A 
ATOM     32  C   UNL     1      -3.456  -1.873  25.617  0.00  0.00    +0.001 A 
ATOM     33  C   UNL     1      -3.212  -1.118  25.843  0.00  0.00    +0.000 A 
ATOM     34  C   UNL     1      -2.501  -0.812  25.560  0.00  0.00    +0.001 A 
ENDBRANCH   5   4
ENDBRANCH   6   5
ENDBRANCH  11  10
TORSDOF 6
ENDMDL
MODEL 6
REMARK VINA RESULT:     -11.8      1.812      5.119
REMARK  Name = 
REMARK  6 active torsions:
REMARK  status: ('A' for Active; 'I' for Inactive)
REMARK    1  A    between atoms: C_4  and  C_5
REMARK    2  A    between atoms: C_5  and  N_6
REMARK    3  A    between atoms: C_10  and  C_11
REMARK    4  A    between atoms: C_13  and  C_16
REMARK    5  A    between atoms: C_19  and  O_20
REMARK    6  A    between atoms: O_20  and  C_21
REMARK                            x       y       z     vdW  Elec       q    Type
REMARK                         _______ _______ _______ _____ _____    ______ ____
ROOT
ATOM     11  C   UNL     1      -0.340  -0.472  24.521  0.00  0.00    +0.251 A 
ATOM     12  N   UNL     1      -0.535   0.227  24.914  0.00  0.00    -0.190 NA
ATOM     13  C   UNL     1      -0.156   0.851  24.529  0.00  0.00    +0.205 A 
ATOM     14  N   UNL     1       0.274   0.537  23.898  0.00  0.00    -0.056 NA
ATOM     15  O   UNL     1       0.159  -0.280  23.893  0.00  0.00    -0.336 OA
ENDROOT
BRANCH  13  16
ATOM     16  C   UNL     1      -0.197   1.647  24.738  0.00  0.00    +0.058 A 
ATOM     17  C   UNL     1      -0.182   1.866  25.534  0.00  0.00    +0.010 A 
ATOM     18  C   UNL     1      -0.224   2.663  25.743  0.00  0.00    +0.058 A 
ATOM     19  C   UNL     1      -0.281   3.241  25.157  0.00  0.00    +0.225 A 
ATOM     27  N   UNL     1      -0.297   3.022  24.362  0.00  0.00    -0.210 NA
ATOM     28  C   UNL     1      -0.255   2.225  24.153  0.00  0.00    +0.105 A 
BRANCH  19  20
ATOM     20  O   UNL     1      -0.323   4.038  25.367  0.00  0.00    -0.464 OA
BRANCH  20  21
ATOM     21  C   UNL     1      -1.048   4.431  25.348  0.00  0.00    +0.168 C 
ATOM     22  C   UNL     1      -1.124   5.136  24.924  0.00  0.00    +0.044 C 
ATOM     23  C   UNL     1      -1.849   5.529  24.905  0.00  0.00    +0.004 C 
ATOM     24  C   UNL     1      -2.498   5.219  25.309  0.00  0.00    +0.000 C 
ATOM     25  C   UNL     1      -2.422   4.515  25.732  0.00  0.00    +0.004 C 
ATOM     26  C   UNL     1      -1.697   4.121  25.752  0.00  0.00    +0.044 C 
ENDBRANCH  20  21
ENDBRANCH  19  20
ENDBRANCH  13  16
BRANCH  11  10
ATOM      6  N   UNL     1      -1.336  -1.553  24.534  0.00  0.00    -0.263 NA
ATOM      7  C   UNL     1      -1.361  -2.319  24.841  0.00  0.00    +0.073 C 
ATOM      8  C   UNL     1      -0.643  -2.467  25.216  0.00  0.00    +0.019 C 
ATOM      9  C   UNL     1      -0.172  -1.794  25.143  0.00  0.00    +0.027 C 
ATOM     10  C   UNL     1      -0.601  -1.229  24.721  0.00  0.00    +0.138 C 
BRANCH   6   5
ATOM      5  C   UNL     1      -1.940  -1.179  24.114  0.00  0.00    +0.101 C 
BRANCH   5   4
ATOM      1  C   UNL     1      -4.217  -2.978  24.217  0.00  0.00    +0.130 C 
ATOM      2  N   UNL     1      -3.759  -2.292  24.207  0.00  0.00    -0.324 N 
ATOM      3  C   UNL     1      -2.936  -2.259  24.150  0.00  0.00    +0.073 A 
ATOM      4  C   UNL     1      -2.712  -1.465  24.160  0.00  0.00    +0.012 A 
ATOM     29  C   UNL     1      -3.396  -1.008  24.224  0.00  0.00    +0.015 A 
ATOM     30  C   UNL     1      -4.043  -1.520  24.254  0.00  0.00    +0.060 A 
ATOM     31  C   UNL     1      -4.806  -1.214  24.319  0.00  0.00    +0.017 A 
ATOM     32  C   UNL     1      -4.924  -0.399  24.354  0.00  0.00    +0.001 A 
ATOM     33  C   UNL     1      -4.277   0.112  24.325  0.00  0.00    +0.000 A 
ATOM     34  C   UNL     1      -3.513  -0.192  24.260  0.00  0.00    +0.001 A 
ENDBRANCH   5   4
ENDBRANCH   6   5
ENDBRANCH  11  10
TORSDOF 6
ENDMDL
