MODEL 1
REMARK VINA RESULT:     -11.5      0.000      0.000
REMARK  Name = 
REMARK  6 active torsions:
REMARK  status: ('A' for Active; 'I' for Inactive)
REMARK    1  A    between atoms: C_2  and  C_4
REMARK    2  A    between atoms: C_4  and  O_5
REMARK    3  A    between atoms: O_5  and  C_6
REMARK    4  A    between atoms: C_6  and  C_7
REMARK    5  A    between atoms: C_16  and  C_23
REMARK    6  A    between atoms: C_27  and  C_29
REMARK                            x       y       z     vdW  Elec       q    Type
REMARK                         _______ _______ _______ _____ _____    ______ ____
ROOT
ATOM      7  C   UNL     1      -2.799   2.409  24.382  0.00  0.00    +0.256 C 
ATOM      8  O   UNL     1      -3.555   2.171  24.615  0.00  0.00    -0.272 OA
ATOM      9  N   UNL     1      -2.196   1.851  24.304  0.00  0.00    -0.277 N 
ATOM     10  C   UNL     1      -1.436   1.543  24.149  0.00  0.00    +0.095 C 
ATOM     11  C   UNL     1      -1.604   0.586  24.333  0.00  0.00    +0.043 C 
ATOM     12  C   UNL     1      -1.579  -0.220  24.443  0.00  0.00    +0.011 C 
ATOM     13  C   UNL     1      -2.052   0.296  24.493  0.00  0.00    +0.058 C 
ATOM     14  C   UNL     1      -1.874   1.216  24.312  0.00  0.00    +0.099 C 
ATOM     15  C   UNL     1      -2.934   0.447  24.703  0.00  0.00    +0.041 A 
ATOM     16  C   UNL     1      -3.614   0.046  24.940  0.00  0.00    +0.012 A 
ATOM     17  C   UNL     1      -4.316   0.461  25.064  0.00  0.00    +0.006 A 
ATOM     18  C   UNL     1      -4.338   1.278  24.951  0.00  0.00    +0.061 A 
ATOM     19  C   UNL     1      -3.658   1.680  24.714  0.00  0.00    +0.261 A 
ATOM     20  O   UNL     1      -3.925   2.459  24.671  0.00  0.00    -0.267 OA
ATOM     21  N   UNL     1      -2.956   1.264  24.590  0.00  0.00    -0.299 N 
ATOM     22  C   UNL     1      -2.524   0.755  24.550  0.00  0.00    +0.110 C 
ENDROOT
BRANCH  16  23
ATOM     23  C   UNL     1      -3.592  -0.771  25.053  0.00  0.00    +0.002 A 
ATOM     24  C   UNL     1      -3.337  -1.081  25.774  0.00  0.00    +0.000 A 
ATOM     25  C   UNL     1      -3.316  -1.898  25.887  0.00  0.00    +0.001 A 
ATOM     26  C   UNL     1      -3.549  -2.405  25.280  0.00  0.00    +0.010 A 
ATOM     27  C   UNL     1      -3.804  -2.096  24.559  0.00  0.00    +0.068 A 
ATOM     28  C   UNL     1      -3.825  -1.279  24.446  0.00  0.00    +0.010 A 
BRANCH  27  29
ATOM     29  C   UNL     1      -4.037  -2.602  23.951  0.00  0.00    +0.100 C 
ATOM     30  N   UNL     1      -4.270  -3.109  23.343  0.00  0.00    -0.191 NA
ENDBRANCH  27  29
ENDBRANCH  16  23
BRANCH   7   6
ATOM      6  C   UNL     1      -2.647   3.205  24.226  0.00  0.00    +0.228 C 
BRANCH   6   5
ATOM      5  O   UNL     1      -2.281   3.674  24.797  0.00  0.00    -0.333 OA
BRANCH   5   4
ATOM      4  C   UNL     1      -2.101   4.463  24.630  0.00  0.00    +0.257 C 
BRANCH   4   2
ATOM      1  O   UNL     1      -2.004   5.220  25.838  0.00  0.00    -0.243 OA
ATOM      2  C   UNL     1      -1.651   4.904  25.162  0.00  0.00    +0.394 C 
ATOM      3  O   UNL     1      -0.847   5.028  25.019  0.00  0.00    -0.243 OA
ENDBRANCH   4   2
ENDBRANCH   5   4
ENDBRANCH   6   5
ENDBRANCH   7   6
TORSDOF 6
ENDMDL
MODEL 2
REMARK VINA RESULT:     -11.2      2.047      5.008
REMARK  Name = 
REMARK  6 active torsions:
REMARK  status: ('A' for Active; 'I' for Inactive)
REMARK    1  A    between atoms: C_2  and  C_4
REMARK    2  A    between atoms: C_4  and  O_5
REMARK    3  A    between atoms: O_5  and  C_6
REMARK    4  A    between atoms: C_6  and  C_7
REMARK    5  A    between atoms: C_16  and  C_23
REMARK    6  A    between atoms: C_27  and  C_29
REMARK                            x       y       z     vdW  Elec       q    Type
REMARK                         _______ _______ _______ _____ _____    ______ ____
ROOT
ATOM      7  C   UNL     1      -2.209  -0.038  24.427  0.00  0.00    +0.256 C 
ATOM      8  O   UNL     1      -1.639   0.212  24.969  0.00  0.00    -0.272 OA
ATOM      9  N   UNL     1      -2.741   0.507  24.107  0.00  0.00    -0.277 N 
ATOM     10  C   UNL     1      -3.370   0.801  23.643  0.00  0.00    +0.095 C 
ATOM     11  C   UNL     1      -3.334   1.754  23.900  0.00  0.00    +0.043 C 
ATOM     12  C   UNL     1      -3.435   2.556  24.004  0.00  0.00    +0.011 C 
ATOM     13  C   UNL     1      -3.011   2.051  24.244  0.00  0.00    +0.058 C 
ATOM     14  C   UNL     1      -3.059   1.133  23.986  0.00  0.00    +0.099 C 
ATOM     15  C   UNL     1      -2.301   1.915  24.812  0.00  0.00    +0.041 A 
ATOM     16  C   UNL     1      -1.806   2.326  25.329  0.00  0.00    +0.012 A 
ATOM     17  C   UNL     1      -1.212   1.925  25.737  0.00  0.00    +0.006 A 
ATOM     18  C   UNL     1      -1.113   1.113  25.628  0.00  0.00    +0.061 A 
ATOM     19  C   UNL     1      -1.607   0.702  25.112  0.00  0.00    +0.261 A 
ATOM     20  O   UNL     1      -1.319  -0.068  25.174  0.00  0.00    -0.267 OA
ATOM     21  N   UNL     1      -2.202   1.103  24.704  0.00  0.00    -0.299 N 
ATOM     22  C   UNL     1      -2.593   1.603  24.491  0.00  0.00    +0.110 C 
ENDROOT
BRANCH  16  23
ATOM     23  C   UNL     1      -1.906   3.138  25.437  0.00  0.00    +0.002 A 
ATOM     24  C   UNL     1      -2.522   3.419  25.908  0.00  0.00    +0.000 A 
ATOM     25  C   UNL     1      -2.621   4.231  26.016  0.00  0.00    +0.001 A 
ATOM     26  C   UNL     1      -2.105   4.762  25.653  0.00  0.00    +0.010 A 
ATOM     27  C   UNL     1      -1.490   4.481  25.181  0.00  0.00    +0.068 A 
ATOM     28  C   UNL     1      -1.390   3.669  25.073  0.00  0.00    +0.010 A 
BRANCH  27  29
ATOM     29  C   UNL     1      -0.973   5.011  24.818  0.00  0.00    +0.100 C 
ATOM     30  N   UNL     1      -0.456   5.542  24.454  0.00  0.00    -0.191 NA
ENDBRANCH  27  29
ENDBRANCH  16  23
BRANCH   7   6
ATOM      6  C   UNL     1      -2.249  -0.831  24.206  0.00  0.00    +0.228 C 
BRANCH   6   5
ATOM      5  O   UNL     1      -2.760  -1.345  24.601  0.00  0.00    -0.333 OA
BRANCH   5   4
ATOM      4  C   UNL     1      -2.763  -2.149  24.414  0.00  0.00    +0.257 C 
BRANCH   4   2
ATOM      1  O   UNL     1      -3.482  -2.809  25.457  0.00  0.00    -0.243 OA
ATOM      2  C   UNL     1      -3.391  -2.626  24.657  0.00  0.00    +0.394 C 
ATOM      3  O   UNL     1      -3.927  -2.919  24.102  0.00  0.00    -0.243 OA
ENDBRANCH   4   2
ENDBRANCH   5   4
ENDBRANCH   6   5
ENDBRANCH   7   6
TORSDOF 6
ENDMDL
MODEL 3
REMARK VINA RESULT:     -10.7      2.565      4.107
REMARK  Name = 
REMARK  6 active torsions:
REMARK  status: ('A' for Active; 'I' for Inactive)
REMARK    1  A    between atoms: C_2  and  C_4
REMARK    2  A    between atoms: C_4  and  O_5
REMARK    3  A    between atoms: O_5  and  C_6
REMARK    4  A    between atoms: C_6  and  C_7
REMARK    5  A    between atoms: C_16  and  C_23
REMARK    6  A    between atoms: C_27  and  C_29
REMARK                            x       y       z     vdW  Elec       q    Type
REMARK                         _______ _______ _______ _____ _____    ______ ____
ROOT
ATOM      7  C   UNL     1      -0.888   0.785  24.287  0.00  0.00    +0.256 C 
ATOM      8  O   UNL     1      -1.590   0.605  23.892  0.00  0.00    -0.272 OA
ATOM      9  N   UNL     1      -0.850   1.446  24.780  0.00  0.00    -0.277 N 
ATOM     10  C   UNL     1      -0.526   2.006  25.308  0.00  0.00    +0.095 C 
ATOM     11  C   UNL     1      -1.313   2.590  25.433  0.00  0.00    +0.043 C 
ATOM     12  C   UNL     1      -1.859   3.159  25.639  0.00  0.00    +0.011 C 
ATOM     13  C   UNL     1      -1.834   2.587  25.234  0.00  0.00    +0.058 C 
ATOM     14  C   UNL     1      -1.064   2.032  25.123  0.00  0.00    +0.099 C 
ATOM     15  C   UNL     1      -2.354   2.079  24.671  0.00  0.00    +0.041 A 
ATOM     16  C   UNL     1      -3.116   2.046  24.359  0.00  0.00    +0.012 A 
ATOM     17  C   UNL     1      -3.324   1.439  23.841  0.00  0.00    +0.006 A 
ATOM     18  C   UNL     1      -2.769   0.865  23.634  0.00  0.00    +0.061 A 
ATOM     19  C   UNL     1      -2.006   0.897  23.946  0.00  0.00    +0.261 A 
ATOM     20  O   UNL     1      -1.651   0.237  23.602  0.00  0.00    -0.267 OA
ATOM     21  N   UNL     1      -1.798   1.505  24.464  0.00  0.00    -0.299 N 
ATOM     22  C   UNL     1      -1.848   2.054  24.843  0.00  0.00    +0.110 C 
ENDROOT
BRANCH  16  23
ATOM     23  C   UNL     1      -3.671   2.621  24.565  0.00  0.00    +0.002 A 
ATOM     24  C   UNL     1      -3.654   3.361  24.201  0.00  0.00    +0.000 A 
ATOM     25  C   UNL     1      -4.209   3.936  24.408  0.00  0.00    +0.001 A 
ATOM     26  C   UNL     1      -4.782   3.770  24.978  0.00  0.00    +0.010 A 
ATOM     27  C   UNL     1      -4.799   3.030  25.342  0.00  0.00    +0.068 A 
ATOM     28  C   UNL     1      -4.244   2.456  25.135  0.00  0.00    +0.010 A 
BRANCH  27  29
ATOM     29  C   UNL     1      -5.371   2.864  25.912  0.00  0.00    +0.100 C 
ATOM     30  N   UNL     1      -5.944   2.697  26.483  0.00  0.00    -0.191 NA
ENDBRANCH  27  29
ENDBRANCH  16  23
BRANCH   7   6
ATOM      6  C   UNL     1      -0.225   0.305  24.190  0.00  0.00    +0.228 C 
BRANCH   6   5
ATOM      5  O   UNL     1       0.260   0.400  23.529  0.00  0.00    -0.333 OA
BRANCH   5   4
ATOM      4  C   UNL     1       0.892  -0.116  23.402  0.00  0.00    +0.257 C 
BRANCH   4   2
ATOM      1  O   UNL     1       1.245  -0.280  22.028  0.00  0.00    -0.243 OA
ATOM      2  C   UNL     1       1.415   0.018  22.779  0.00  0.00    +0.394 C 
ATOM      3  O   UNL     1       2.107   0.449  22.905  0.00  0.00    -0.243 OA
ENDBRANCH   4   2
ENDBRANCH   5   4
ENDBRANCH   6   5
ENDBRANCH   7   6
TORSDOF 6
ENDMDL
