MODEL 1
REMARK VINA RESULT:     -10.0      0.000      0.000
REMARK  Name = 
REMARK  5 active torsions:
REMARK  status: ('A' for Active; 'I' for Inactive)
REMARK    1  A    between atoms: C_3  and  N_18
REMARK    2  A    between atoms: C_6  and  C_7
REMARK    3  A    between atoms: C_7  and  N_8
REMARK    4  A    between atoms: C_9  and  C_11
REMARK    5  A    between atoms: N_18  and  C_19
REMARK                            x       y       z     vdW  Elec       q    Type
REMARK                         _______ _______ _______ _____ _____    ______ ____
ROOT
ATOM      1  O   UNL     1      -3.968   3.159  25.739  0.00  0.00    -0.219 OA
ATOM      2  C   UNL     1      -3.344   2.921  25.253  0.00  0.00    +0.199 C 
ATOM      3  C   UNL     1      -2.646   3.340  25.122  0.00  0.00    +0.135 C 
ATOM      4  C   UNL     1      -2.180   2.901  24.601  0.00  0.00    +0.162 C 
ATOM      5  O   UNL     1      -2.590   2.212  24.411  0.00  0.00    -0.350 OA
ATOM      6  C   UNL     1      -3.310   2.224  24.814  0.00  0.00    +0.169 C 
ENDROOT
BRANCH   6   7
ATOM      7  C   UNL     1      -3.893   1.641  24.783  0.00  0.00    +0.148 C 
BRANCH   7   8
ATOM      8  N   UNL     1      -3.679   0.844  24.764  0.00  0.00    -0.199 NA
ATOM      9  C   UNL     1      -4.263   0.261  24.754  0.00  0.00    +0.265 C 
ATOM     10  O   UNL     1      -5.059   0.475  24.763  0.00  0.00    -0.268 OA
BRANCH   9  11
ATOM     11  C   UNL     1      -4.049  -0.536  24.736  0.00  0.00    +0.055 A 
ATOM     12  C   UNL     1      -4.187  -0.984  24.058  0.00  0.00    +0.007 A 
ATOM     13  C   UNL     1      -3.973  -1.781  24.039  0.00  0.00    +0.030 A 
ATOM     14  C   UNL     1      -3.620  -2.129  24.700  0.00  0.00    +0.140 A 
ATOM     15  F   UNL     1      -3.406  -2.925  24.681  0.00  0.00    -0.204 F 
ATOM     16  C   UNL     1      -3.482  -1.680  25.378  0.00  0.00    +0.030 A 
ATOM     17  C   UNL     1      -3.697  -0.883  25.396  0.00  0.00    +0.007 A 
ENDBRANCH   9  11
ENDBRANCH   7   8
ENDBRANCH   6   7
BRANCH   3  18
ATOM     18  N   UNL     1      -2.448   4.069  25.453  0.00  0.00    -0.211 NA
BRANCH  18  19
ATOM     19  C   UNL     1      -1.735   4.434  25.252  0.00  0.00    +0.132 C 
ATOM     20  C   UNL     1      -1.524   5.167  24.938  0.00  0.00    +0.162 C 
ATOM     21  O   UNL     1      -0.728   4.949  24.968  0.00  0.00    -0.351 OA
ATOM     22  C   UNL     1      -0.941   4.216  25.282  0.00  0.00    +0.162 C 
ENDBRANCH  18  19
ENDBRANCH   3  18
TORSDOF 5
ENDMDL
MODEL 2
REMARK VINA RESULT:      -9.5      2.635      5.582
REMARK  Name = 
REMARK  5 active torsions:
REMARK  status: ('A' for Active; 'I' for Inactive)
REMARK    1  A    between atoms: C_3  and  N_18
REMARK    2  A    between atoms: C_6  and  C_7
REMARK    3  A    between atoms: C_7  and  N_8
REMARK    4  A    between atoms: C_9  and  C_11
REMARK    5  A    between atoms: N_18  and  C_19
REMARK                            x       y       z     vdW  Elec       q    Type
REMARK                         _______ _______ _______ _____ _____    ______ ____
ROOT
ATOM      1  O   UNL     1      -0.698  -0.639  25.248  0.00  0.00    -0.219 OA
ATOM      2  C   UNL     1      -1.449  -0.320  25.124  0.00  0.00    +0.199 C 
ATOM      3  C   UNL     1      -2.113  -0.733  24.863  0.00  0.00    +0.135 C 
ATOM      4  C   UNL     1      -2.742  -0.201  24.816  0.00  0.00    +0.162 C 
ATOM      5  O   UNL     1      -2.466   0.541  25.048  0.00  0.00    -0.350 OA
ATOM      6  C   UNL     1      -1.667   0.468  25.238  0.00  0.00    +0.169 C 
ENDROOT
BRANCH   6   7
ATOM      7  C   UNL     1      -1.171   1.074  25.497  0.00  0.00    +0.148 C 
BRANCH   7   8
ATOM      8  N   UNL     1      -1.364   1.861  25.335  0.00  0.00    -0.199 NA
ATOM      9  C   UNL     1      -0.912   2.470  25.659  0.00  0.00    +0.265 C 
ATOM     10  O   UNL     1      -0.268   2.294  26.144  0.00  0.00    -0.268 OA
BRANCH   9  11
ATOM     11  C   UNL     1      -1.105   3.256  25.498  0.00  0.00    +0.055 A 
ATOM     12  C   UNL     1      -1.801   3.581  25.798  0.00  0.00    +0.007 A 
ATOM     13  C   UNL     1      -1.994   4.366  25.636  0.00  0.00    +0.030 A 
ATOM     14  C   UNL     1      -1.489   4.828  25.175  0.00  0.00    +0.140 A 
ATOM     15  F   UNL     1      -1.681   5.614  25.014  0.00  0.00    -0.204 F 
ATOM     16  C   UNL     1      -0.792   4.504  24.875  0.00  0.00    +0.030 A 
ATOM     17  C   UNL     1      -0.600   3.718  25.037  0.00  0.00    +0.007 A 
ENDBRANCH   9  11
ENDBRANCH   7   8
ENDBRANCH   6   7
BRANCH   3  18
ATOM     18  N   UNL     1      -2.145  -1.537  24.681  0.00  0.00    -0.211 NA
BRANCH  18  19
ATOM     19  C   UNL     1      -2.870  -1.930  24.670  0.00  0.00    +0.132 C 
ATOM     20  C   UNL     1      -3.313  -2.353  25.223  0.00  0.00    +0.162 C 
ATOM     21  O   UNL     1      -3.896  -2.485  24.654  0.00  0.00    -0.351 OA
ATOM     22  C   UNL     1      -3.453  -2.062  24.102  0.00  0.00    +0.162 C 
ENDBRANCH  18  19
ENDBRANCH   3  18
TORSDOF 5
ENDMDL
MODEL 3
REMARK VINA RESULT:      -9.4      2.139      5.220
REMARK  Name = 
REMARK  5 active torsions:
REMARK  status: ('A' for Active; 'I' for Inactive)
REMARK    1  A    between atoms: C_3  and  N_18
REMARK    2  A    between atoms: C_6  and  C_7
REMARK    3  A    between atoms: C_7  and  N_8
REMARK    4  A    between atoms: C_9  and  C_11
REMARK    5  A    between atoms: N_18  and  C_19
REMARK                            x       y       z     vdW  Elec       q    Type
REMARK                         _______ _______ _______ _____ _____    ______ ____
ROOT
ATOM      1  O   UNL     1      -4.942   0.982  25.421  0.00  0.00    -0.219 OA
ATOM      2  C   UNL     1      -4.283   0.885  24.934  0.00  0.00    +0.199 C 
ATOM      3  C   UNL     1      -4.090   0.203  24.512  0.00  0.00    +0.135 C 
ATOM      4  C   UNL     1      -3.389   0.349  24.100  0.00  0.00    +0.162 C 
ATOM      5  O   UNL     1      -3.150   1.120  24.269  0.00  0.00    -0.350 OA
ATOM      6  C   UNL     1      -3.702   1.451  24.784  0.00  0.00    +0.169 C 
ENDROOT
BRANCH   6   7
ATOM      7  C   UNL     1      -3.678   2.215  25.096  0.00  0.00    +0.148 C 
BRANCH   7   8
ATOM      8  N   UNL     1      -3.007   2.683  24.987  0.00  0.00    -0.199 NA
ATOM      9  C   UNL     1      -2.943   3.407  25.378  0.00  0.00    +0.265 C 
ATOM     10  O   UNL     1      -3.548   3.661  25.878  0.00  0.00    -0.268 OA
BRANCH   9  11
ATOM     11  C   UNL     1      -2.272   3.876  25.269  0.00  0.00    +0.055 A 
ATOM     12  C   UNL     1      -1.521   3.538  25.310  0.00  0.00    +0.007 A 
ATOM     13  C   UNL     1      -0.851   4.006  25.201  0.00  0.00    +0.030 A 
ATOM     14  C   UNL     1      -0.932   4.814  25.051  0.00  0.00    +0.140 A 
ATOM     15  F   UNL     1      -0.263   5.282  24.942  0.00  0.00    -0.204 F 
ATOM     16  C   UNL     1      -1.684   5.152  25.010  0.00  0.00    +0.030 A 
ATOM     17  C   UNL     1      -2.354   4.683  25.119  0.00  0.00    +0.007 A 
ENDBRANCH   9  11
ENDBRANCH   7   8
ENDBRANCH   6   7
BRANCH   3  18
ATOM     18  N   UNL     1      -4.520  -0.500  24.501  0.00  0.00    -0.211 NA
BRANCH  18  19
ATOM     19  C   UNL     1      -4.134  -1.220  24.386  0.00  0.00    +0.132 C 
ATOM     20  C   UNL     1      -4.071  -1.755  23.761  0.00  0.00    +0.162 C 
ATOM     21  O   UNL     1      -3.586  -2.237  24.224  0.00  0.00    -0.351 OA
ATOM     22  C   UNL     1      -3.649  -1.701  24.848  0.00  0.00    +0.162 C 
ENDBRANCH  18  19
ENDBRANCH   3  18
TORSDOF 5
ENDMDL
MODEL 4
REMARK VINA RESULT:      -9.3      1.715      2.152
REMARK  Name = 
REMARK  5 active torsions:
REMARK  status: ('A' for Active; 'I' for Inactive)
REMARK    1  A    between atoms: C_3  and  N_18
REMARK    2  A    between atoms: C_6  and  C_7
REMARK    3  A    between atoms: C_7  and  N_8
REMARK    4  A    between atoms: C_9  and  C_11
REMARK    5  A    between atoms: N_18  and  C_19
REMARK                            x       y       z     vdW  Elec       q    Type
REMARK                         _______ _______ _______ _____ _____    ______ ____
ROOT
ATOM      1  O   UNL     1      -0.120   1.899  26.212  0.00  0.00    -0.219 OA
ATOM      2  C   UNL     1      -0.697   1.982  25.627  0.00  0.00    +0.199 C 
ATOM      3  C   UNL     1      -0.932   2.691  25.278  0.00  0.00    +0.135 C 
ATOM      4  C   UNL     1      -1.520   2.520  24.725  0.00  0.00    +0.162 C 
ATOM      5  O   UNL     1      -1.648   1.705  24.733  0.00  0.00    -0.350 OA
ATOM      6  C   UNL     1      -1.139   1.373  25.291  0.00  0.00    +0.169 C 
ENDROOT
BRANCH   6   7
ATOM      7  C   UNL     1      -1.082   0.572  25.480  0.00  0.00    +0.148 C 
BRANCH   7   8
ATOM      8  N   UNL     1      -1.683   0.052  25.256  0.00  0.00    -0.199 NA
ATOM      9  C   UNL     1      -1.623  -0.750  25.441  0.00  0.00    +0.265 C 
ATOM     10  O   UNL     1      -0.964  -1.032  25.848  0.00  0.00    -0.268 OA
BRANCH   9  11
ATOM     11  C   UNL     1      -2.224  -1.270  25.218  0.00  0.00    +0.055 A 
ATOM     12  C   UNL     1      -2.967  -1.220  25.573  0.00  0.00    +0.007 A 
ATOM     13  C   UNL     1      -3.567  -1.739  25.350  0.00  0.00    +0.030 A 
ATOM     14  C   UNL     1      -3.425  -2.310  24.771  0.00  0.00    +0.140 A 
ATOM     15  F   UNL     1      -4.025  -2.829  24.547  0.00  0.00    -0.204 F 
ATOM     16  C   UNL     1      -2.683  -2.360  24.415  0.00  0.00    +0.030 A 
ATOM     17  C   UNL     1      -2.082  -1.840  24.638  0.00  0.00    +0.007 A 
ENDBRANCH   9  11
ENDBRANCH   7   8
ENDBRANCH   6   7
BRANCH   3  18
ATOM     18  N   UNL     1      -0.633   3.441  25.450  0.00  0.00    -0.211 NA
BRANCH  18  19
ATOM     19  C   UNL     1      -1.089   4.112  25.301  0.00  0.00    +0.132 C 
ATOM     20  C   UNL     1      -1.831   4.378  25.544  0.00  0.00    +0.162 C 
ATOM     21  O   UNL     1      -1.734   5.061  25.089  0.00  0.00    -0.351 OA
ATOM     22  C   UNL     1      -0.992   4.793  24.847  0.00  0.00    +0.162 C 
ENDBRANCH  18  19
ENDBRANCH   3  18
TORSDOF 5
ENDMDL
MODEL 5
REMARK VINA RESULT:      -6.1     14.919     17.354
REMARK  Name = 
REMARK  5 active torsions:
REMARK  status: ('A' for Active; 'I' for Inactive)
REMARK    1  A    between atoms: C_3  and  N_18
REMARK    2  A    between atoms: C_6  and  C_7
REMARK    3  A    between atoms: C_7  and  N_8
REMARK    4  A    between atoms: C_9  and  C_11
REMARK    5  A    between atoms: N_18  and  C_19
REMARK                            x       y       z     vdW  Elec       q    Type
REMARK                         _______ _______ _______ _____ _____    ______ ____
ROOT
ATOM      1  O   UNL     1      -3.191 -10.781  14.498  0.00  0.00    -0.219 OA
ATOM      2  C   UNL     1      -3.941 -10.615  14.197  0.00  0.00    +0.199 C 
ATOM      3  C   UNL     1      -4.635 -10.548  14.636  0.00  0.00    +0.135 C 
ATOM      4  C   UNL     1      -5.252 -10.379  14.115  0.00  0.00    +0.162 C 
ATOM      5  O   UNL     1      -4.938 -10.342  13.353  0.00  0.00    -0.350 OA
ATOM      6  C   UNL     1      -4.128 -10.488  13.403  0.00  0.00    +0.169 C 
ENDROOT
BRANCH   6   7
ATOM      7  C   UNL     1      -3.597 -10.503  12.772  0.00  0.00    +0.148 C 
BRANCH   7   8
ATOM      8  N   UNL     1      -3.826 -10.213  12.034  0.00  0.00    -0.199 NA
ATOM      9  C   UNL     1      -3.310 -10.266  11.393  0.00  0.00    +0.265 C 
ATOM     10  O   UNL     1      -2.566 -10.609  11.489  0.00  0.00    -0.268 OA
BRANCH   9  11
ATOM     11  C   UNL     1      -3.539  -9.975  10.655  0.00  0.00    +0.055 A 
ATOM     12  C   UNL     1      -3.379  -9.192  10.452  0.00  0.00    +0.007 A 
ATOM     13  C   UNL     1      -3.608  -8.902   9.715  0.00  0.00    +0.030 A 
ATOM     14  C   UNL     1      -3.996  -9.395   9.179  0.00  0.00    +0.140 A 
ATOM     15  F   UNL     1      -4.225  -9.105   8.442  0.00  0.00    -0.204 F 
ATOM     16  C   UNL     1      -4.156 -10.179   9.382  0.00  0.00    +0.030 A 
ATOM     17  C   UNL     1      -3.927 -10.469  10.120  0.00  0.00    +0.007 A 
ENDBRANCH   9  11
ENDBRANCH   7   8
ENDBRANCH   6   7
BRANCH   3  18
ATOM     18  N   UNL     1      -4.703 -10.635  15.454  0.00  0.00    -0.211 NA
BRANCH  18  19
ATOM     19  C   UNL     1      -5.339 -10.294  15.854  0.00  0.00    +0.132 C 
ATOM     20  C   UNL     1      -5.428  -9.657  16.372  0.00  0.00    +0.162 C 
ATOM     21  O   UNL     1      -6.238  -9.812  16.421  0.00  0.00    -0.351 OA
ATOM     22  C   UNL     1      -6.147 -10.448  15.903  0.00  0.00    +0.162 C 
ENDBRANCH  18  19
ENDBRANCH   3  18
TORSDOF 5
ENDMDL
