MODEL 1
REMARK VINA RESULT:      -9.0      0.000      0.000
REMARK  Name = 
REMARK  6 active torsions:
REMARK  status: ('A' for Active; 'I' for Inactive)
REMARK    1  A    between atoms: N_2  and  C_4
REMARK    2  A    between atoms: C_7  and  C_10
REMARK    3  A    between atoms: N_15  and  C_16
REMARK    4  A    between atoms: C_20  and  N_24
REMARK    5  A    between atoms: N_24  and  S_25
REMARK    6  A    between atoms: S_25  and  C_28
REMARK                            x       y       z     vdW  Elec       q    Type
REMARK                         _______ _______ _______ _____ _____    ______ ____
ROOT
ATOM     16  C   UNL     1      -0.315   0.421  23.613  0.00  0.00    +0.154 C 
ATOM     17  C   UNL     1      -0.394  -0.227  23.109  0.00  0.00    +0.166 C 
ATOM     18  O   UNL     1       0.339  -0.369  22.759  0.00  0.00    -0.350 OA
ATOM     19  C   UNL     1       0.871   0.191  23.047  0.00  0.00    +0.164 C 
ATOM     20  C   UNL     1       1.654   0.450  23.009  0.00  0.00    +0.157 C 
ATOM     21  C   UNL     1       1.733   1.098  23.513  0.00  0.00    +0.164 C 
ATOM     22  O   UNL     1       1.000   1.240  23.863  0.00  0.00    -0.350 OA
ATOM     23  C   UNL     1       0.467   0.679  23.575  0.00  0.00    +0.166 C 
ENDROOT
BRANCH  16  15
ATOM     10  C   UNL     1      -2.822   1.779  23.814  0.00  0.00    +0.086 A 
ATOM     11  C   UNL     1      -2.879   1.796  22.992  0.00  0.00    +0.040 A 
ATOM     12  C   UNL     1      -2.280   1.465  22.530  0.00  0.00    +0.103 A 
ATOM     13  N   UNL     1      -1.625   1.117  22.891  0.00  0.00    -0.211 NA
ATOM     14  C   UNL     1      -1.569   1.100  23.714  0.00  0.00    +0.237 A 
ATOM     15  N   UNL     1      -0.913   0.752  24.075  0.00  0.00    -0.200 NA
ATOM     35  N   UNL     1      -2.166   1.431  24.175  0.00  0.00    -0.212 NA
BRANCH  10   7
ATOM      4  C   UNL     1      -4.616   2.774  25.199  0.00  0.00    +0.048 A 
ATOM      5  C   UNL     1      -4.676   1.991  24.945  0.00  0.00    +0.015 A 
ATOM      6  C   UNL     1      -4.079   1.660  24.483  0.00  0.00    +0.003 A 
ATOM      7  C   UNL     1      -3.420   2.111  24.276  0.00  0.00    +0.018 A 
ATOM      8  C   UNL     1      -3.359   2.893  24.529  0.00  0.00    +0.003 A 
ATOM      9  C   UNL     1      -3.957   3.225  24.991  0.00  0.00    +0.015 A 
BRANCH   4   2
ATOM      1  C   UNL     1      -5.708   2.618  26.107  0.00  0.00    +0.112 C 
ATOM      2  N   UNL     1      -5.214   3.105  25.660  0.00  0.00    -0.304 N 
ATOM      3  C   UNL     1      -5.320   3.923  25.675  0.00  0.00    +0.112 C 
ENDBRANCH   4   2
ENDBRANCH  10   7
ENDBRANCH  16  15
BRANCH  20  24
ATOM     24  N   UNL     1       2.252   0.119  22.547  0.00  0.00    -0.074 NA
BRANCH  24  25
ATOM     25  S   UNL     1       3.025   0.088  22.833  0.00  0.00    +0.077 S 
ATOM     26  O   UNL     1       2.895  -0.682  23.099  0.00  0.00    -0.152 OA
ATOM     27  O   UNL     1       3.155   0.858  22.567  0.00  0.00    -0.152 OA
BRANCH  25  28
ATOM     28  C   UNL     1       3.798   0.056  23.120  0.00  0.00    +0.124 A 
ATOM     29  C   UNL     1       4.303   0.701  23.018  0.00  0.00    +0.020 A 
ATOM     30  C   UNL     1       5.075   0.669  23.304  0.00  0.00    -0.003 A 
ATOM     31  C   UNL     1       5.344  -0.007  23.692  0.00  0.00    -0.022 A 
ATOM     32  C   UNL     1       6.118  -0.038  23.979  0.00  0.00    +0.031 C 
ATOM     33  C   UNL     1       4.840  -0.651  23.794  0.00  0.00    -0.003 A 
ATOM     34  C   UNL     1       4.067  -0.620  23.508  0.00  0.00    +0.020 A 
ENDBRANCH  25  28
ENDBRANCH  24  25
ENDBRANCH  20  24
TORSDOF 6
ENDMDL
MODEL 2
REMARK VINA RESULT:      -8.2      1.940      7.390
REMARK  Name = 
REMARK  6 active torsions:
REMARK  status: ('A' for Active; 'I' for Inactive)
REMARK    1  A    between atoms: N_2  and  C_4
REMARK    2  A    between atoms: C_7  and  C_10
REMARK    3  A    between atoms: N_15  and  C_16
REMARK    4  A    between atoms: C_20  and  N_24
REMARK    5  A    between atoms: N_24  and  S_25
REMARK    6  A    between atoms: S_25  and  C_28
REMARK                            x       y       z     vdW  Elec       q    Type
REMARK                         _______ _______ _______ _____ _____    ______ ____
ROOT
ATOM     16  C   UNL     1      -0.425   0.511  23.839  0.00  0.00    +0.154 C 
ATOM     17  C   UNL     1      -0.857  -0.179  23.704  0.00  0.00    +0.166 C 
ATOM     18  O   UNL     1      -1.650   0.030  23.622  0.00  0.00    -0.350 OA
ATOM     19  C   UNL     1      -1.710   0.847  23.707  0.00  0.00    +0.164 C 
ATOM     20  C   UNL     1      -2.236   1.482  23.710  0.00  0.00    +0.157 C 
ATOM     21  C   UNL     1      -1.805   2.172  23.846  0.00  0.00    +0.164 C 
ATOM     22  O   UNL     1      -1.011   1.964  23.927  0.00  0.00    -0.350 OA
ATOM     23  C   UNL     1      -0.952   1.145  23.842  0.00  0.00    +0.166 C 
ENDROOT
BRANCH  16  15
ATOM     10  C   UNL     1       2.235   0.070  22.892  0.00  0.00    +0.086 A 
ATOM     11  C   UNL     1       1.934  -0.245  22.191  0.00  0.00    +0.040 A 
ATOM     12  C   UNL     1       1.117  -0.292  22.078  0.00  0.00    +0.103 A 
ATOM     13  N   UNL     1       0.603  -0.024  22.665  0.00  0.00    -0.211 NA
ATOM     14  C   UNL     1       0.905   0.290  23.366  0.00  0.00    +0.237 A 
ATOM     15  N   UNL     1       0.391   0.558  23.953  0.00  0.00    -0.200 NA
ATOM     35  N   UNL     1       1.721   0.337  23.479  0.00  0.00    -0.212 NA
BRANCH  10   7
ATOM      4  C   UNL     1       4.683   0.210  23.231  0.00  0.00    +0.048 A 
ATOM      5  C   UNL     1       4.272   0.852  22.913  0.00  0.00    +0.015 A 
ATOM      6  C   UNL     1       3.457   0.805  22.800  0.00  0.00    +0.003 A 
ATOM      7  C   UNL     1       3.051   0.117  23.005  0.00  0.00    +0.018 A 
ATOM      8  C   UNL     1       3.460  -0.525  23.322  0.00  0.00    +0.003 A 
ATOM      9  C   UNL     1       4.276  -0.478  23.436  0.00  0.00    +0.015 A 
BRANCH   4   2
ATOM      1  C   UNL     1       5.806   0.761  23.920  0.00  0.00    +0.112 C 
ATOM      2  N   UNL     1       5.498   0.257  23.344  0.00  0.00    -0.304 N 
ATOM      3  C   UNL     1       6.007  -0.200  22.882  0.00  0.00    +0.112 C 
ENDBRANCH   4   2
ENDBRANCH  10   7
ENDBRANCH  16  15
BRANCH  20  24
ATOM     24  N   UNL     1      -3.053   1.435  23.597  0.00  0.00    -0.074 NA
BRANCH  24  25
ATOM     25  S   UNL     1      -3.558   1.924  24.029  0.00  0.00    +0.077 S 
ATOM     26  O   UNL     1      -3.579   1.364  24.635  0.00  0.00    -0.152 OA
ATOM     27  O   UNL     1      -3.537   2.482  23.422  0.00  0.00    -0.152 OA
BRANCH  25  28
ATOM     28  C   UNL     1      -4.064   2.411  24.461  0.00  0.00    +0.124 A 
ATOM     29  C   UNL     1      -3.980   3.231  24.421  0.00  0.00    +0.020 A 
ATOM     30  C   UNL     1      -4.486   3.719  24.854  0.00  0.00    -0.003 A 
ATOM     31  C   UNL     1      -5.075   3.387  25.327  0.00  0.00    -0.022 A 
ATOM     32  C   UNL     1      -5.580   3.875  25.759  0.00  0.00    +0.031 C 
ATOM     33  C   UNL     1      -5.159   2.568  25.366  0.00  0.00    -0.003 A 
ATOM     34  C   UNL     1      -4.653   2.079  24.934  0.00  0.00    +0.020 A 
ENDBRANCH  25  28
ENDBRANCH  24  25
ENDBRANCH  20  24
TORSDOF 6
ENDMDL
MODEL 3
REMARK VINA RESULT:      -6.7     15.266     16.344
REMARK  Name = 
REMARK  6 active torsions:
REMARK  status: ('A' for Active; 'I' for Inactive)
REMARK    1  A    between atoms: N_2  and  C_4
REMARK    2  A    between atoms: C_7  and  C_10
REMARK    3  A    between atoms: N_15  and  C_16
REMARK    4  A    between atoms: C_20  and  N_24
REMARK    5  A    between atoms: N_24  and  S_25
REMARK    6  A    between atoms: S_25  and  C_28
REMARK                            x       y       z     vdW  Elec       q    Type
REMARK                         _______ _______ _______ _____ _____    ______ ____
ROOT
ATOM     16  C   UNL     1      -7.185  -9.867  12.600  0.00  0.00    +0.154 C 
ATOM     17  C   UNL     1      -7.210 -10.649  12.342  0.00  0.00    +0.166 C 
ATOM     18  O   UNL     1      -6.588 -10.762  11.812  0.00  0.00    -0.350 OA
ATOM     19  C   UNL     1      -6.179 -10.050  11.742  0.00  0.00    +0.164 C 
ATOM     20  C   UNL     1      -5.542  -9.679  11.372  0.00  0.00    +0.157 C 
ATOM     21  C   UNL     1      -5.517  -8.896  11.630  0.00  0.00    +0.164 C 
ATOM     22  O   UNL     1      -6.139  -8.783  12.161  0.00  0.00    -0.350 OA
ATOM     23  C   UNL     1      -6.548  -9.496  12.230  0.00  0.00    +0.166 C 
ENDROOT
BRANCH  16  15
ATOM     10  C   UNL     1      -8.375  -9.774  15.197  0.00  0.00    +0.086 A 
ATOM     11  C   UNL     1      -7.929 -10.429  15.425  0.00  0.00    +0.040 A 
ATOM     12  C   UNL     1      -7.408 -10.780  14.890  0.00  0.00    +0.103 A 
ATOM     13  N   UNL     1      -7.333 -10.476  14.127  0.00  0.00    -0.211 NA
ATOM     14  C   UNL     1      -7.780  -9.820  13.899  0.00  0.00    +0.237 A 
ATOM     15  N   UNL     1      -7.706  -9.516  13.136  0.00  0.00    -0.200 NA
ATOM     35  N   UNL     1      -8.301  -9.469  14.434  0.00  0.00    -0.212 NA
BRANCH  10   7
ATOM      4  C   UNL     1      -9.938  -8.722  16.803  0.00  0.00    +0.048 A 
ATOM      5  C   UNL     1      -9.124  -8.690  16.937  0.00  0.00    +0.015 A 
ATOM      6  C   UNL     1      -8.603  -9.040  16.402  0.00  0.00    +0.003 A 
ATOM      7  C   UNL     1      -8.896  -9.423  15.732  0.00  0.00    +0.018 A 
ATOM      8  C   UNL     1      -9.709  -9.455  15.598  0.00  0.00    +0.003 A 
ATOM      9  C   UNL     1     -10.230  -9.105  16.133  0.00  0.00    +0.015 A 
BRANCH   4   2
ATOM      1  C   UNL     1     -10.718  -7.598  17.215  0.00  0.00    +0.112 C 
ATOM      2  N   UNL     1     -10.458  -8.371  17.338  0.00  0.00    -0.304 N 
ATOM      3  C   UNL     1     -10.719  -8.793  17.998  0.00  0.00    +0.112 C 
ENDBRANCH   4   2
ENDBRANCH  10   7
ENDBRANCH  16  15
BRANCH  20  24
ATOM     24  N   UNL     1      -5.021 -10.030  10.837  0.00  0.00    -0.074 NA
BRANCH  24  25
ATOM     25  S   UNL     1      -4.214  -9.865  10.878  0.00  0.00    +0.077 S 
ATOM     26  O   UNL     1      -4.086 -10.590  11.250  0.00  0.00    -0.152 OA
ATOM     27  O   UNL     1      -4.343  -9.140  10.505  0.00  0.00    -0.152 OA
BRANCH  25  28
ATOM     28  C   UNL     1      -3.407  -9.701  10.919  0.00  0.00    +0.124 A 
ATOM     29  C   UNL     1      -2.946 -10.047  11.510  0.00  0.00    +0.020 A 
ATOM     30  C   UNL     1      -2.138  -9.883  11.552  0.00  0.00    -0.003 A 
ATOM     31  C   UNL     1      -1.791  -9.374  11.003  0.00  0.00    -0.022 A 
ATOM     32  C   UNL     1      -0.984  -9.211  11.045  0.00  0.00    +0.031 C 
ATOM     33  C   UNL     1      -2.252  -9.029  10.413  0.00  0.00    -0.003 A 
ATOM     34  C   UNL     1      -3.060  -9.192  10.370  0.00  0.00    +0.020 A 
ENDBRANCH  25  28
ENDBRANCH  24  25
ENDBRANCH  20  24
TORSDOF 6
ENDMDL
MODEL 4
REMARK VINA RESULT:      -6.0     14.781     17.605
REMARK  Name = 
REMARK  6 active torsions:
REMARK  status: ('A' for Active; 'I' for Inactive)
REMARK    1  A    between atoms: N_2  and  C_4
REMARK    2  A    between atoms: C_7  and  C_10
REMARK    3  A    between atoms: N_15  and  C_16
REMARK    4  A    between atoms: C_20  and  N_24
REMARK    5  A    between atoms: N_24  and  S_25
REMARK    6  A    between atoms: S_25  and  C_28
REMARK                            x       y       z     vdW  Elec       q    Type
REMARK                         _______ _______ _______ _____ _____    ______ ____
ROOT
ATOM     16  C   UNL     1      12.071  -7.529  31.986  0.00  0.00    +0.154 C 
ATOM     17  C   UNL     1      12.218  -8.200  31.530  0.00  0.00    +0.166 C 
ATOM     18  O   UNL     1      11.529  -8.654  31.516  0.00  0.00    -0.350 OA
ATOM     19  C   UNL     1      10.956  -8.263  31.962  0.00  0.00    +0.164 C 
ATOM     20  C   UNL     1      10.177  -8.301  32.230  0.00  0.00    +0.157 C 
ATOM     21  C   UNL     1      10.030  -7.630  32.686  0.00  0.00    +0.164 C 
ATOM     22  O   UNL     1      10.719  -7.176  32.700  0.00  0.00    -0.350 OA
ATOM     23  C   UNL     1      11.292  -7.568  32.253  0.00  0.00    +0.166 C 
ENDROOT
BRANCH  16  15
ATOM     10  C   UNL     1      14.008  -5.633  31.078  0.00  0.00    +0.086 A 
ATOM     11  C   UNL     1      13.900  -5.894  30.303  0.00  0.00    +0.040 A 
ATOM     12  C   UNL     1      13.361  -6.499  30.142  0.00  0.00    +0.103 A 
ATOM     13  N   UNL     1      12.931  -6.842  30.757  0.00  0.00    -0.211 NA
ATOM     14  C   UNL     1      13.039  -6.581  31.532  0.00  0.00    +0.237 A 
ATOM     15  N   UNL     1      12.609  -6.924  32.147  0.00  0.00    -0.200 NA
ATOM     35  N   UNL     1      13.577  -5.977  31.692  0.00  0.00    -0.212 NA
BRANCH  10   7
ATOM      4  C   UNL     1      15.622  -3.820  31.559  0.00  0.00    +0.048 A 
ATOM      5  C   UNL     1      15.838  -4.445  31.064  0.00  0.00    +0.015 A 
ATOM      6  C   UNL     1      15.300  -5.048  30.904  0.00  0.00    +0.003 A 
ATOM      7  C   UNL     1      14.546  -5.029  31.238  0.00  0.00    +0.018 A 
ATOM      8  C   UNL     1      14.330  -4.405  31.733  0.00  0.00    +0.003 A 
ATOM      9  C   UNL     1      14.868  -3.801  31.893  0.00  0.00    +0.015 A 
BRANCH   4   2
ATOM      1  C   UNL     1      16.757  -3.333  32.276  0.00  0.00    +0.112 C 
ATOM      2  N   UNL     1      16.160  -3.216  31.719  0.00  0.00    -0.304 N 
ATOM      3  C   UNL     1      16.102  -2.495  31.323  0.00  0.00    +0.112 C 
ENDBRANCH   4   2
ENDBRANCH  10   7
ENDBRANCH  16  15
BRANCH  20  24
ATOM     24  N   UNL     1       9.639  -8.906  32.069  0.00  0.00    -0.074 NA
BRANCH  24  25
ATOM     25  S   UNL     1       8.828  -8.754  32.094  0.00  0.00    +0.077 S 
ATOM     26  O   UNL     1       8.802  -9.024  32.873  0.00  0.00    -0.152 OA
ATOM     27  O   UNL     1       8.854  -8.484  31.315  0.00  0.00    -0.152 OA
BRANCH  25  28
ATOM     28  C   UNL     1       8.017  -8.603  32.120  0.00  0.00    +0.124 A 
ATOM     29  C   UNL     1       7.640  -8.502  32.848  0.00  0.00    +0.020 A 
ATOM     30  C   UNL     1       6.829  -8.351  32.873  0.00  0.00    -0.003 A 
ATOM     31  C   UNL     1       6.396  -8.300  32.173  0.00  0.00    -0.022 A 
ATOM     32  C   UNL     1       5.586  -8.149  32.200  0.00  0.00    +0.031 C 
ATOM     33  C   UNL     1       6.774  -8.400  31.447  0.00  0.00    -0.003 A 
ATOM     34  C   UNL     1       7.584  -8.552  31.420  0.00  0.00    +0.020 A 
ENDBRANCH  25  28
ENDBRANCH  24  25
ENDBRANCH  20  24
TORSDOF 6
ENDMDL
MODEL 5
REMARK VINA RESULT:      -6.0     15.947     16.588
REMARK  Name = 
REMARK  6 active torsions:
REMARK  status: ('A' for Active; 'I' for Inactive)
REMARK    1  A    between atoms: N_2  and  C_4
REMARK    2  A    between atoms: C_7  and  C_10
REMARK    3  A    between atoms: N_15  and  C_16
REMARK    4  A    between atoms: C_20  and  N_24
REMARK    5  A    between atoms: N_24  and  S_25
REMARK    6  A    between atoms: S_25  and  C_28
REMARK                            x       y       z     vdW  Elec       q    Type
REMARK                         _______ _______ _______ _____ _____    ______ ____
ROOT
ATOM     16  C   UNL     1      -8.162 -10.036  13.676  0.00  0.00    +0.154 C 
ATOM     17  C   UNL     1      -8.739  -9.888  13.106  0.00  0.00    +0.166 C 
ATOM     18  O   UNL     1      -8.357  -9.693  12.402  0.00  0.00    -0.350 OA
ATOM     19  C   UNL     1      -7.544  -9.721  12.536  0.00  0.00    +0.164 C 
ATOM     20  C   UNL     1      -6.804  -9.619  12.185  0.00  0.00    +0.157 C 
ATOM     21  C   UNL     1      -6.227  -9.768  12.755  0.00  0.00    +0.164 C 
ATOM     22  O   UNL     1      -6.610  -9.963  13.459  0.00  0.00    -0.350 OA
ATOM     23  C   UNL     1      -7.424  -9.934  13.324  0.00  0.00    +0.166 C 
ENDROOT
BRANCH  16  15
ATOM     10  C   UNL     1      -9.431  -9.546  16.190  0.00  0.00    +0.086 A 
ATOM     11  C   UNL     1      -9.791  -8.872  15.877  0.00  0.00    +0.040 A 
ATOM     12  C   UNL     1      -9.653  -8.658  15.092  0.00  0.00    +0.103 A 
ATOM     13  N   UNL     1      -9.156  -9.117  14.620  0.00  0.00    -0.211 NA
ATOM     14  C   UNL     1      -8.797  -9.791  14.934  0.00  0.00    +0.237 A 
ATOM     15  N   UNL     1      -8.300 -10.250  14.462  0.00  0.00    -0.200 NA
ATOM     35  N   UNL     1      -8.934 -10.005  15.718  0.00  0.00    -0.212 NA
BRANCH  10   7
ATOM      4  C   UNL     1      -9.844 -10.187  18.545  0.00  0.00    +0.048 A 
ATOM      5  C   UNL     1     -10.476  -9.977  18.057  0.00  0.00    +0.015 A 
ATOM      6  C   UNL     1     -10.339  -9.764  17.272  0.00  0.00    +0.003 A 
ATOM      7  C   UNL     1      -9.569  -9.759  16.974  0.00  0.00    +0.018 A 
ATOM      8  C   UNL     1      -8.937  -9.969  17.461  0.00  0.00    +0.003 A 
ATOM      9  C   UNL     1      -9.075 -10.183  18.247  0.00  0.00    +0.015 A 
BRANCH   4   2
ATOM      1  C   UNL     1      -9.392 -10.781  19.762  0.00  0.00    +0.112 C 
ATOM      2  N   UNL     1      -9.982 -10.401  19.329  0.00  0.00    -0.304 N 
ATOM      3  C   UNL     1     -10.710 -10.234  19.681  0.00  0.00    +0.112 C 
ENDBRANCH   4   2
ENDBRANCH  10   7
ENDBRANCH  16  15
BRANCH  20  24
ATOM     24  N   UNL     1      -6.667  -9.405  11.400  0.00  0.00    -0.074 NA
BRANCH  24  25
ATOM     25  S   UNL     1      -5.895  -9.380  11.108  0.00  0.00    +0.077 S 
ATOM     26  O   UNL     1      -5.877  -8.564  11.230  0.00  0.00    -0.152 OA
ATOM     27  O   UNL     1      -5.915 -10.195  10.986  0.00  0.00    -0.152 OA
BRANCH  25  28
ATOM     28  C   UNL     1      -5.124  -9.353  10.816  0.00  0.00    +0.124 A 
ATOM     29  C   UNL     1      -4.692  -8.651  10.856  0.00  0.00    +0.020 A 
ATOM     30  C   UNL     1      -3.921  -8.624  10.564  0.00  0.00    -0.003 A 
ATOM     31  C   UNL     1      -3.581  -9.299  10.233  0.00  0.00    -0.022 A 
ATOM     32  C   UNL     1      -2.810  -9.272   9.942  0.00  0.00    +0.031 C 
ATOM     33  C   UNL     1      -4.013 -10.001  10.194  0.00  0.00    -0.003 A 
ATOM     34  C   UNL     1      -4.784 -10.028  10.485  0.00  0.00    +0.020 A 
ENDBRANCH  25  28
ENDBRANCH  24  25
ENDBRANCH  20  24
TORSDOF 6
ENDMDL
MODEL 6
REMARK VINA RESULT:      -5.9     16.405     17.638
REMARK  Name = 
REMARK  6 active torsions:
REMARK  status: ('A' for Active; 'I' for Inactive)
REMARK    1  A    between atoms: N_2  and  C_4
REMARK    2  A    between atoms: C_7  and  C_10
REMARK    3  A    between atoms: N_15  and  C_16
REMARK    4  A    between atoms: C_20  and  N_24
REMARK    5  A    between atoms: N_24  and  S_25
REMARK    6  A    between atoms: S_25  and  C_28
REMARK                            x       y       z     vdW  Elec       q    Type
REMARK                         _______ _______ _______ _____ _____    ______ ____
ROOT
ATOM     16  C   UNL     1      -4.884  -9.520   9.692  0.00  0.00    +0.154 C 
ATOM     17  C   UNL     1      -4.789 -10.313   9.489  0.00  0.00    +0.166 C 
ATOM     18  O   UNL     1      -4.108 -10.591   9.862  0.00  0.00    -0.350 OA
ATOM     19  C   UNL     1      -3.783  -9.970  10.295  0.00  0.00    +0.164 C 
ATOM     20  C   UNL     1      -3.161  -9.757  10.794  0.00  0.00    +0.157 C 
ATOM     21  C   UNL     1      -3.256  -8.963  10.997  0.00  0.00    +0.164 C 
ATOM     22  O   UNL     1      -3.937  -8.685  10.624  0.00  0.00    -0.350 OA
ATOM     23  C   UNL     1      -4.263  -9.308  10.190  0.00  0.00    +0.166 C 
ENDROOT
BRANCH  16  15
ATOM     10  C   UNL     1      -7.659  -8.835   9.655  0.00  0.00    +0.086 A 
ATOM     11  C   UNL     1      -7.826  -9.482  10.139  0.00  0.00    +0.040 A 
ATOM     12  C   UNL     1      -7.215  -9.977  10.390  0.00  0.00    +0.103 A 
ATOM     13  N   UNL     1      -6.438  -9.825  10.158  0.00  0.00    -0.211 NA
ATOM     14  C   UNL     1      -6.272  -9.177   9.673  0.00  0.00    +0.237 A 
ATOM     15  N   UNL     1      -5.495  -9.025   9.441  0.00  0.00    -0.200 NA
ATOM     35  N   UNL     1      -6.883  -8.683   9.422  0.00  0.00    -0.212 NA
BRANCH  10   7
ATOM      4  C   UNL     1      -9.492  -7.352   8.901  0.00  0.00    +0.048 A 
ATOM      5  C   UNL     1      -8.716  -7.204   8.661  0.00  0.00    +0.015 A 
ATOM      6  C   UNL     1      -8.106  -7.699   8.912  0.00  0.00    +0.003 A 
ATOM      7  C   UNL     1      -8.270  -8.341   9.404  0.00  0.00    +0.018 A 
ATOM      8  C   UNL     1      -9.045  -8.488   9.644  0.00  0.00    +0.003 A 
ATOM      9  C   UNL     1      -9.656  -7.994   9.393  0.00  0.00    +0.015 A 
BRANCH   4   2
ATOM      1  C   UNL     1     -10.144  -6.081   8.926  0.00  0.00    +0.112 C 
ATOM      2  N   UNL     1     -10.103  -6.857   8.650  0.00  0.00    -0.304 N 
ATOM      3  C   UNL     1     -10.672  -7.139   8.124  0.00  0.00    +0.112 C 
ENDBRANCH   4   2
ENDBRANCH  10   7
ENDBRANCH  16  15
BRANCH  20  24
ATOM     24  N   UNL     1      -2.550 -10.252  11.045  0.00  0.00    -0.074 NA
BRANCH  24  25
ATOM     25  S   UNL     1      -2.320 -10.254  11.838  0.00  0.00    +0.077 S 
ATOM     26  O   UNL     1      -1.672  -9.779  11.650  0.00  0.00    -0.152 OA
ATOM     27  O   UNL     1      -2.968 -10.729  12.024  0.00  0.00    -0.152 OA
BRANCH  25  28
ATOM     28  C   UNL     1      -2.089 -10.256  12.630  0.00  0.00    +0.124 A 
ATOM     29  C   UNL     1      -2.509 -10.705  13.180  0.00  0.00    +0.020 A 
ATOM     30  C   UNL     1      -2.279 -10.707  13.972  0.00  0.00    -0.003 A 
ATOM     31  C   UNL     1      -1.629 -10.260  14.214  0.00  0.00    -0.022 A 
ATOM     32  C   UNL     1      -1.399 -10.262  15.007  0.00  0.00    +0.031 C 
ATOM     33  C   UNL     1      -1.210  -9.811  13.664  0.00  0.00    -0.003 A 
ATOM     34  C   UNL     1      -1.440  -9.808  12.872  0.00  0.00    +0.020 A 
ENDBRANCH  25  28
ENDBRANCH  24  25
ENDBRANCH  20  24
TORSDOF 6
ENDMDL
MODEL 7
REMARK VINA RESULT:      -5.8     15.294     17.793
REMARK  Name = 
REMARK  6 active torsions:
REMARK  status: ('A' for Active; 'I' for Inactive)
REMARK    1  A    between atoms: N_2  and  C_4
REMARK    2  A    between atoms: C_7  and  C_10
REMARK    3  A    between atoms: N_15  and  C_16
REMARK    4  A    between atoms: C_20  and  N_24
REMARK    5  A    between atoms: N_24  and  S_25
REMARK    6  A    between atoms: S_25  and  C_28
REMARK                            x       y       z     vdW  Elec       q    Type
REMARK                         _______ _______ _______ _____ _____    ______ ____
ROOT
ATOM     16  C   UNL     1      11.578  -7.487  32.293  0.00  0.00    +0.154 C 
ATOM     17  C   UNL     1      11.152  -6.949  32.750  0.00  0.00    +0.166 C 
ATOM     18  O   UNL     1      10.398  -7.260  32.872  0.00  0.00    -0.350 OA
ATOM     19  C   UNL     1      10.358  -7.990  32.491  0.00  0.00    +0.164 C 
ATOM     20  C   UNL     1       9.868  -8.634  32.330  0.00  0.00    +0.157 C 
ATOM     21  C   UNL     1      10.294  -9.172  31.873  0.00  0.00    +0.164 C 
ATOM     22  O   UNL     1      11.048  -8.861  31.751  0.00  0.00    -0.350 OA
ATOM     23  C   UNL     1      11.088  -8.130  32.133  0.00  0.00    +0.166 C 
ENDROOT
BRANCH  16  15
ATOM     10  C   UNL     1      13.619  -5.900  31.073  0.00  0.00    +0.086 A 
ATOM     11  C   UNL     1      13.078  -5.286  30.968  0.00  0.00    +0.040 A 
ATOM     12  C   UNL     1      12.298  -5.376  31.221  0.00  0.00    +0.103 A 
ATOM     13  N   UNL     1      12.057  -6.079  31.578  0.00  0.00    -0.211 NA
ATOM     14  C   UNL     1      12.599  -6.694  31.683  0.00  0.00    +0.237 A 
ATOM     15  N   UNL     1      12.359  -7.398  32.040  0.00  0.00    -0.200 NA
ATOM     35  N   UNL     1      13.379  -6.604  31.430  0.00  0.00    -0.212 NA
BRANCH  10   7
ATOM      4  C   UNL     1      15.959  -5.631  30.314  0.00  0.00    +0.048 A 
ATOM      5  C   UNL     1      15.730  -5.347  31.055  0.00  0.00    +0.015 A 
ATOM      6  C   UNL     1      14.950  -5.437  31.307  0.00  0.00    +0.003 A 
ATOM      7  C   UNL     1      14.398  -5.811  30.820  0.00  0.00    +0.018 A 
ATOM      8  C   UNL     1      14.627  -6.094  30.080  0.00  0.00    +0.003 A 
ATOM      9  C   UNL     1      15.408  -6.005  29.827  0.00  0.00    +0.015 A 
BRANCH   4   2
ATOM      1  C   UNL     1      16.905  -5.098  29.386  0.00  0.00    +0.112 C 
ATOM      2  N   UNL     1      16.739  -5.541  30.062  0.00  0.00    -0.304 N 
ATOM      3  C   UNL     1      17.353  -5.895  30.484  0.00  0.00    +0.112 C 
ENDBRANCH   4   2
ENDBRANCH  10   7
ENDBRANCH  16  15
BRANCH  20  24
ATOM     24  N   UNL     1       9.087  -8.723  32.583  0.00  0.00    -0.074 NA
BRANCH  24  25
ATOM     25  S   UNL     1       8.547  -9.136  32.116  0.00  0.00    +0.077 S 
ATOM     26  O   UNL     1       8.321  -8.429  31.754  0.00  0.00    -0.152 OA
ATOM     27  O   UNL     1       8.773  -9.842  32.478  0.00  0.00    -0.152 OA
BRANCH  25  28
ATOM     28  C   UNL     1       8.006  -9.548  31.648  0.00  0.00    +0.124 A 
ATOM     29  C   UNL     1       7.558  -9.145  31.083  0.00  0.00    +0.020 A 
ATOM     30  C   UNL     1       7.018  -9.556  30.616  0.00  0.00    -0.003 A 
ATOM     31  C   UNL     1       6.924 -10.370  30.712  0.00  0.00    -0.022 A 
ATOM     32  C   UNL     1       6.383 -10.781  30.244  0.00  0.00    +0.031 C 
ATOM     33  C   UNL     1       7.371 -10.772  31.276  0.00  0.00    -0.003 A 
ATOM     34  C   UNL     1       7.912 -10.362  31.744  0.00  0.00    +0.020 A 
ENDBRANCH  25  28
ENDBRANCH  24  25
ENDBRANCH  20  24
TORSDOF 6
ENDMDL
MODEL 8
REMARK VINA RESULT:      -5.7     15.476     16.380
REMARK  Name = 
REMARK  6 active torsions:
REMARK  status: ('A' for Active; 'I' for Inactive)
REMARK    1  A    between atoms: N_2  and  C_4
REMARK    2  A    between atoms: C_7  and  C_10
REMARK    3  A    between atoms: N_15  and  C_16
REMARK    4  A    between atoms: C_20  and  N_24
REMARK    5  A    between atoms: N_24  and  S_25
REMARK    6  A    between atoms: S_25  and  C_28
REMARK                            x       y       z     vdW  Elec       q    Type
REMARK                         _______ _______ _______ _____ _____    ______ ____
ROOT
ATOM     16  C   UNL     1      -6.144 -10.683  13.004  0.00  0.00    +0.154 C 
ATOM     17  C   UNL     1      -6.489 -10.780  12.262  0.00  0.00    +0.166 C 
ATOM     18  O   UNL     1      -5.900 -10.683  11.693  0.00  0.00    -0.350 OA
ATOM     19  C   UNL     1      -5.191 -10.527  12.083  0.00  0.00    +0.164 C 
ATOM     20  C   UNL     1      -4.388 -10.371  11.973  0.00  0.00    +0.157 C 
ATOM     21  C   UNL     1      -4.043 -10.275  12.716  0.00  0.00    +0.164 C 
ATOM     22  O   UNL     1      -4.632 -10.371  13.285  0.00  0.00    -0.350 OA
ATOM     23  C   UNL     1      -5.342 -10.527  12.894  0.00  0.00    +0.166 C 
ENDROOT
BRANCH  16  15
ATOM     10  C   UNL     1      -8.370 -10.026  14.672  0.00  0.00    +0.086 A 
ATOM     11  C   UNL     1      -8.706  -9.595  14.054  0.00  0.00    +0.040 A 
ATOM     12  C   UNL     1      -8.317  -9.544  13.327  0.00  0.00    +0.103 A 
ATOM     13  N   UNL     1      -7.593  -9.924  13.219  0.00  0.00    -0.211 NA
ATOM     14  C   UNL     1      -7.257 -10.355  13.839  0.00  0.00    +0.237 A 
ATOM     15  N   UNL     1      -6.532 -10.735  13.731  0.00  0.00    -0.200 NA
ATOM     35  N   UNL     1      -7.646 -10.406  14.564  0.00  0.00    -0.212 NA
BRANCH  10   7
ATOM      4  C   UNL     1      -9.538 -10.179  16.849  0.00  0.00    +0.048 A 
ATOM      5  C   UNL     1      -8.746  -9.945  16.820  0.00  0.00    +0.015 A 
ATOM      6  C   UNL     1      -8.358  -9.894  16.095  0.00  0.00    +0.003 A 
ATOM      7  C   UNL     1      -8.759 -10.077  15.397  0.00  0.00    +0.018 A 
ATOM      8  C   UNL     1      -9.549 -10.311  15.426  0.00  0.00    +0.003 A 
ATOM      9  C   UNL     1      -9.939 -10.362  16.152  0.00  0.00    +0.015 A 
BRANCH   4   2
ATOM      1  C   UNL     1     -10.535 -10.776  17.678  0.00  0.00    +0.112 C 
ATOM      2  N   UNL     1      -9.926 -10.230  17.574  0.00  0.00    -0.304 N 
ATOM      3  C   UNL     1      -9.706  -9.734  18.197  0.00  0.00    +0.112 C 
ENDBRANCH   4   2
ENDBRANCH  10   7
ENDBRANCH  16  15
BRANCH  20  24
ATOM     24  N   UNL     1      -4.000 -10.320  11.247  0.00  0.00    -0.074 NA
BRANCH  24  25
ATOM     25  S   UNL     1      -3.234 -10.015  11.209  0.00  0.00    +0.077 S 
ATOM     26  O   UNL     1      -2.928 -10.780  11.253  0.00  0.00    -0.152 OA
ATOM     27  O   UNL     1      -3.540  -9.250  11.165  0.00  0.00    -0.152 OA
BRANCH  25  28
ATOM     28  C   UNL     1      -2.468  -9.711  11.171  0.00  0.00    +0.124 A 
ATOM     29  C   UNL     1      -2.315  -9.032  10.727  0.00  0.00    +0.020 A 
ATOM     30  C   UNL     1      -1.549  -8.728  10.690  0.00  0.00    -0.003 A 
ATOM     31  C   UNL     1      -0.936  -9.102  11.095  0.00  0.00    -0.022 A 
ATOM     32  C   UNL     1      -0.170  -8.798  11.057  0.00  0.00    +0.031 C 
ATOM     33  C   UNL     1      -1.089  -9.780  11.539  0.00  0.00    -0.003 A 
ATOM     34  C   UNL     1      -1.855 -10.085  11.577  0.00  0.00    +0.020 A 
ENDBRANCH  25  28
ENDBRANCH  24  25
ENDBRANCH  20  24
TORSDOF 6
ENDMDL
MODEL 9
REMARK VINA RESULT:      -5.5     16.873     18.552
REMARK  Name = 
REMARK  6 active torsions:
REMARK  status: ('A' for Active; 'I' for Inactive)
REMARK    1  A    between atoms: N_2  and  C_4
REMARK    2  A    between atoms: C_7  and  C_10
REMARK    3  A    between atoms: N_15  and  C_16
REMARK    4  A    between atoms: C_20  and  N_24
REMARK    5  A    between atoms: N_24  and  S_25
REMARK    6  A    between atoms: S_25  and  C_28
REMARK                            x       y       z     vdW  Elec       q    Type
REMARK                         _______ _______ _______ _____ _____    ______ ____
ROOT
ATOM     16  C   UNL     1      17.084  -5.945  26.363  0.00  0.00    +0.154 C 
ATOM     17  C   UNL     1      17.058  -6.515  25.767  0.00  0.00    +0.166 C 
ATOM     18  O   UNL     1      17.148  -6.130  25.043  0.00  0.00    -0.350 OA
ATOM     19  C   UNL     1      17.229  -5.323  25.191  0.00  0.00    +0.164 C 
ATOM     20  C   UNL     1      17.335  -4.585  24.836  0.00  0.00    +0.157 C 
ATOM     21  C   UNL     1      17.361  -4.016  25.432  0.00  0.00    +0.164 C 
ATOM     22  O   UNL     1      17.271  -4.401  26.156  0.00  0.00    -0.350 OA
ATOM     23  C   UNL     1      17.189  -5.209  26.007  0.00  0.00    +0.166 C 
ENDROOT
BRANCH  16  15
ATOM     10  C   UNL     1      15.673  -7.104  28.562  0.00  0.00    +0.086 A 
ATOM     11  C   UNL     1      15.104  -7.398  28.042  0.00  0.00    +0.040 A 
ATOM     12  C   UNL     1      15.172  -7.256  27.232  0.00  0.00    +0.103 A 
ATOM     13  N   UNL     1      15.809  -6.819  26.942  0.00  0.00    -0.211 NA
ATOM     14  C   UNL     1      16.378  -6.525  27.463  0.00  0.00    +0.237 A 
ATOM     15  N   UNL     1      17.015  -6.088  27.173  0.00  0.00    -0.200 NA
ATOM     35  N   UNL     1      16.310  -6.667  28.272  0.00  0.00    -0.212 NA
BRANCH  10   7
ATOM      4  C   UNL     1      15.467  -7.532  30.991  0.00  0.00    +0.048 A 
ATOM      5  C   UNL     1      15.237  -6.803  30.679  0.00  0.00    +0.015 A 
ATOM      6  C   UNL     1      15.306  -6.661  29.870  0.00  0.00    +0.003 A 
ATOM      7  C   UNL     1      15.604  -7.246  29.371  0.00  0.00    +0.018 A 
ATOM      8  C   UNL     1      15.834  -7.975  29.682  0.00  0.00    +0.003 A 
ATOM      9  C   UNL     1      15.766  -8.118  30.492  0.00  0.00    +0.015 A 
BRANCH   4   2
ATOM      1  C   UNL     1      14.654  -7.699  32.153  0.00  0.00    +0.112 C 
ATOM      2  N   UNL     1      15.399  -7.675  31.800  0.00  0.00    -0.304 N 
ATOM      3  C   UNL     1      16.075  -7.793  32.258  0.00  0.00    +0.112 C 
ENDBRANCH   4   2
ENDBRANCH  10   7
ENDBRANCH  16  15
BRANCH  20  24
ATOM     24  N   UNL     1      17.403  -4.443  24.026  0.00  0.00    -0.074 NA
BRANCH  24  25
ATOM     25  S   UNL     1      17.029  -3.790  23.689  0.00  0.00    +0.077 S 
ATOM     26  O   UNL     1      16.653  -4.286  23.148  0.00  0.00    -0.152 OA
ATOM     27  O   UNL     1      17.405  -3.294  24.231  0.00  0.00    -0.152 OA
BRANCH  25  28
ATOM     28  C   UNL     1      16.654  -3.137  23.351  0.00  0.00    +0.124 A 
ATOM     29  C   UNL     1      15.889  -3.212  23.049  0.00  0.00    +0.020 A 
ATOM     30  C   UNL     1      15.514  -2.560  22.711  0.00  0.00    -0.003 A 
ATOM     31  C   UNL     1      15.902  -1.833  22.675  0.00  0.00    -0.022 A 
ATOM     32  C   UNL     1      15.526  -1.181  22.337  0.00  0.00    +0.031 C 
ATOM     33  C   UNL     1      16.666  -1.759  22.977  0.00  0.00    -0.003 A 
ATOM     34  C   UNL     1      17.042  -2.411  23.315  0.00  0.00    +0.020 A 
ENDBRANCH  25  28
ENDBRANCH  24  25
ENDBRANCH  20  24
TORSDOF 6
ENDMDL
MODEL 10
REMARK VINA RESULT:      -5.3     16.205     18.116
REMARK  Name = 
REMARK  6 active torsions:
REMARK  status: ('A' for Active; 'I' for Inactive)
REMARK    1  A    between atoms: N_2  and  C_4
REMARK    2  A    between atoms: C_7  and  C_10
REMARK    3  A    between atoms: N_15  and  C_16
REMARK    4  A    between atoms: C_20  and  N_24
REMARK    5  A    between atoms: N_24  and  S_25
REMARK    6  A    between atoms: S_25  and  C_28
REMARK                            x       y       z     vdW  Elec       q    Type
REMARK                         _______ _______ _______ _____ _____    ______ ____
ROOT
ATOM     16  C   UNL     1      -7.929 -10.051  12.025  0.00  0.00    +0.154 C 
ATOM     17  C   UNL     1      -8.597 -10.505  11.859  0.00  0.00    +0.166 C 
ATOM     18  O   UNL     1      -8.909 -10.246  11.141  0.00  0.00    -0.350 OA
ATOM     19  C   UNL     1      -8.434  -9.632  10.863  0.00  0.00    +0.164 C 
ATOM     20  C   UNL     1      -8.331  -9.092  10.248  0.00  0.00    +0.157 C 
ATOM     21  C   UNL     1      -7.663  -8.638  10.415  0.00  0.00    +0.164 C 
ATOM     22  O   UNL     1      -7.352  -8.898  11.133  0.00  0.00    -0.350 OA
ATOM     23  C   UNL     1      -7.828  -9.512  11.410  0.00  0.00    +0.166 C 
ENDROOT
BRANCH  16  15
ATOM     10  C   UNL     1      -7.627 -10.136  14.867  0.00  0.00    +0.086 A 
ATOM     11  C   UNL     1      -8.440 -10.031  14.956  0.00  0.00    +0.040 A 
ATOM     12  C   UNL     1      -8.923  -9.958  14.291  0.00  0.00    +0.103 A 
ATOM     13  N   UNL     1      -8.592  -9.989  13.535  0.00  0.00    -0.211 NA
ATOM     14  C   UNL     1      -7.778 -10.094  13.446  0.00  0.00    +0.237 A 
ATOM     15  N   UNL     1      -7.447 -10.125  12.691  0.00  0.00    -0.200 NA
ATOM     35  N   UNL     1      -7.296 -10.167  14.111  0.00  0.00    -0.212 NA
BRANCH  10   7
ATOM      4  C   UNL     1      -6.180 -10.355  16.863  0.00  0.00    +0.048 A 
ATOM      5  C   UNL     1      -6.908 -10.743  16.836  0.00  0.00    +0.015 A 
ATOM      6  C   UNL     1      -7.390 -10.670  16.171  0.00  0.00    +0.003 A 
ATOM      7  C   UNL     1      -7.145 -10.209  15.532  0.00  0.00    +0.018 A 
ATOM      8  C   UNL     1      -6.418  -9.821  15.559  0.00  0.00    +0.003 A 
ATOM      9  C   UNL     1      -5.935  -9.894  16.224  0.00  0.00    +0.015 A 
BRANCH   4   2
ATOM      1  C   UNL     1      -4.890 -10.274  17.471  0.00  0.00    +0.112 C 
ATOM      2  N   UNL     1      -5.699 -10.428  17.528  0.00  0.00    -0.304 N 
ATOM      3  C   UNL     1      -6.024 -10.655  18.251  0.00  0.00    +0.112 C 
ENDBRANCH   4   2
ENDBRANCH  10   7
ENDBRANCH  16  15
BRANCH  20  24
ATOM     24  N   UNL     1      -8.814  -9.018   9.583  0.00  0.00    -0.074 NA
BRANCH  24  25
ATOM     25  S   UNL     1      -9.006  -8.270   9.293  0.00  0.00    +0.077 S 
ATOM     26  O   UNL     1      -8.277  -8.232   8.910  0.00  0.00    -0.152 OA
ATOM     27  O   UNL     1      -9.736  -8.310   9.676  0.00  0.00    -0.152 OA
BRANCH  25  28
ATOM     28  C   UNL     1      -9.198  -7.522   9.002  0.00  0.00    +0.124 A 
ATOM     29  C   UNL     1      -8.662  -7.116   8.523  0.00  0.00    +0.020 A 
ATOM     30  C   UNL     1      -8.854  -6.368   8.233  0.00  0.00    -0.003 A 
ATOM     31  C   UNL     1      -9.580  -6.026   8.421  0.00  0.00    -0.022 A 
ATOM     32  C   UNL     1      -9.771  -5.278   8.130  0.00  0.00    +0.031 C 
ATOM     33  C   UNL     1     -10.115  -6.432   8.899  0.00  0.00    -0.003 A 
ATOM     34  C   UNL     1      -9.925  -7.180   9.190  0.00  0.00    +0.020 A 
ENDBRANCH  25  28
ENDBRANCH  24  25
ENDBRANCH  20  24
TORSDOF 6
ENDMDL
