MODEL 1
REMARK VINA RESULT:     -12.6      0.000      0.000
REMARK  Name = 
REMARK  4 active torsions:
REMARK  status: ('A' for Active; 'I' for Inactive)
REMARK    1  A    between atoms: C_5  and  N_8
REMARK    2  A    between atoms: C_11  and  C_13
REMARK    3  A    between atoms: C_16  and  C_17
REMARK    4  A    between atoms: C_17  and  C_18
REMARK                            x       y       z     vdW  Elec       q    Type
REMARK                         _______ _______ _______ _____ _____    ______ ____
ROOT
ATOM     13  C   UNL     1      -4.337   1.939  25.126  0.00  0.00    +0.227 A 
ATOM     14  N   UNL     1      -5.097   1.738  25.378  0.00  0.00    -0.112 NA
ATOM     15  N   UNL     1      -5.247   0.963  25.140  0.00  0.00    -0.111 NA
ATOM     16  C   UNL     1      -4.582   0.684  24.741  0.00  0.00    +0.231 A 
ATOM     27  O   UNL     1      -4.019   1.288  24.732  0.00  0.00    -0.423 OA
ENDROOT
BRANCH  13  11
ATOM      8  N   UNL     1      -3.041   3.630  25.261  0.00  0.00    -0.273 NA
ATOM      9  C   UNL     1      -3.730   3.929  25.603  0.00  0.00    +0.073 C 
ATOM     10  C   UNL     1      -4.299   3.332  25.594  0.00  0.00    +0.028 C 
ATOM     11  C   UNL     1      -3.963   2.664  25.247  0.00  0.00    +0.095 C 
ATOM     12  C   UNL     1      -3.185   2.848  25.041  0.00  0.00    +0.081 C 
BRANCH   8   5
ATOM      1  C   UNL     1      -0.208   5.270  24.848  0.00  0.00    +0.090 C 
ATOM      2  N   UNL     1      -0.917   4.860  24.952  0.00  0.00    -0.271 NA
ATOM      3  C   UNL     1      -0.932   4.039  24.875  0.00  0.00    +0.074 C 
ATOM      4  C   UNL     1      -1.641   3.629  24.979  0.00  0.00    +0.033 C 
ATOM      5  C   UNL     1      -2.333   4.040  25.158  0.00  0.00    +0.060 C 
ATOM      6  C   UNL     1      -2.317   4.862  25.234  0.00  0.00    +0.033 C 
ATOM      7  C   UNL     1      -1.609   5.272  25.131  0.00  0.00    +0.074 C 
ENDBRANCH   8   5
ENDBRANCH  13  11
BRANCH  16  17
ATOM     17  C   UNL     1      -4.493  -0.066  24.408  0.00  0.00    +0.115 C 
BRANCH  17  18
ATOM     18  C   UNL     1      -4.103  -0.660  24.827  0.00  0.00    +0.008 A 
ATOM     19  C   UNL     1      -3.765  -0.583  25.576  0.00  0.00    +0.095 A 
ATOM     20  N   UNL     1      -3.435  -1.310  25.783  0.00  0.00    -0.244 NA
ATOM     21  C   UNL     1      -3.569  -1.836  25.162  0.00  0.00    +0.081 A 
ATOM     22  C   UNL     1      -3.982  -1.434  24.571  0.00  0.00    +0.016 A 
ATOM     23  C   UNL     1      -4.194  -1.826  23.877  0.00  0.00    +0.001 A 
ATOM     24  C   UNL     1      -3.994  -2.619  23.773  0.00  0.00    +0.000 A 
ATOM     25  C   UNL     1      -3.581  -3.021  24.363  0.00  0.00    +0.002 A 
ATOM     26  C   UNL     1      -3.368  -2.630  25.058  0.00  0.00    +0.019 A 
ENDBRANCH  17  18
ENDBRANCH  16  17
TORSDOF 4
ENDMDL
MODEL 2
REMARK VINA RESULT:     -12.0      1.614      2.418
REMARK  Name = 
REMARK  4 active torsions:
REMARK  status: ('A' for Active; 'I' for Inactive)
REMARK    1  A    between atoms: C_5  and  N_8
REMARK    2  A    between atoms: C_11  and  C_13
REMARK    3  A    between atoms: C_16  and  C_17
REMARK    4  A    between atoms: C_17  and  C_18
REMARK                            x       y       z     vdW  Elec       q    Type
REMARK                         _______ _______ _______ _____ _____    ______ ____
ROOT
ATOM     13  C   UNL     1      -1.072   0.738  25.408  0.00  0.00    +0.227 A 
ATOM     14  N   UNL     1      -0.624   0.185  24.991  0.00  0.00    -0.112 NA
ATOM     15  N   UNL     1      -1.040  -0.527  24.983  0.00  0.00    -0.111 NA
ATOM     16  C   UNL     1      -1.745  -0.415  25.394  0.00  0.00    +0.231 A 
ATOM     27  O   UNL     1      -1.765   0.367  25.657  0.00  0.00    -0.423 OA
ENDROOT
BRANCH  13  11
ATOM      8  N   UNL     1      -0.867   2.859  25.545  0.00  0.00    -0.273 NA
ATOM      9  C   UNL     1      -0.220   2.606  25.990  0.00  0.00    +0.073 C 
ATOM     10  C   UNL     1      -0.218   1.781  25.993  0.00  0.00    +0.028 C 
ATOM     11  C   UNL     1      -0.863   1.523  25.550  0.00  0.00    +0.095 C 
ATOM     12  C   UNL     1      -1.265   2.189  25.273  0.00  0.00    +0.081 C 
BRANCH   8   5
ATOM      1  C   UNL     1      -1.717   5.992  24.958  0.00  0.00    +0.090 C 
ATOM      2  N   UNL     1      -1.504   5.209  25.105  0.00  0.00    -0.271 NA
ATOM      3  C   UNL     1      -2.020   4.712  25.514  0.00  0.00    +0.074 C 
ATOM      4  C   UNL     1      -1.808   3.928  25.660  0.00  0.00    +0.033 C 
ATOM      5  C   UNL     1      -1.079   3.642  25.399  0.00  0.00    +0.060 C 
ATOM      6  C   UNL     1      -0.564   4.140  24.990  0.00  0.00    +0.033 C 
ATOM      7  C   UNL     1      -0.776   4.923  24.843  0.00  0.00    +0.074 C 
ENDBRANCH   8   5
ENDBRANCH  13  11
BRANCH  16  17
ATOM     17  C   UNL     1      -2.329  -0.985  25.522  0.00  0.00    +0.115 C 
BRANCH  17  18
ATOM     18  C   UNL     1      -2.985  -1.022  25.023  0.00  0.00    +0.008 A 
ATOM     19  C   UNL     1      -3.424  -0.379  24.751  0.00  0.00    +0.095 A 
ATOM     20  N   UNL     1      -4.028  -0.668  24.269  0.00  0.00    -0.244 NA
ATOM     21  C   UNL     1      -3.961  -1.489  24.243  0.00  0.00    +0.081 A 
ATOM     22  C   UNL     1      -3.317  -1.708  24.709  0.00  0.00    +0.016 A 
ATOM     23  C   UNL     1      -3.116  -2.505  24.787  0.00  0.00    +0.001 A 
ATOM     24  C   UNL     1      -3.559  -3.082  24.400  0.00  0.00    +0.000 A 
ATOM     25  C   UNL     1      -4.203  -2.863  23.933  0.00  0.00    +0.002 A 
ATOM     26  C   UNL     1      -4.405  -2.067  23.855  0.00  0.00    +0.019 A 
ENDBRANCH  17  18
ENDBRANCH  16  17
TORSDOF 4
ENDMDL
MODEL 3
REMARK VINA RESULT:     -11.8      0.858      5.649
REMARK  Name = 
REMARK  4 active torsions:
REMARK  status: ('A' for Active; 'I' for Inactive)
REMARK    1  A    between atoms: C_5  and  N_8
REMARK    2  A    between atoms: C_11  and  C_13
REMARK    3  A    between atoms: C_16  and  C_17
REMARK    4  A    between atoms: C_17  and  C_18
REMARK                            x       y       z     vdW  Elec       q    Type
REMARK                         _______ _______ _______ _____ _____    ______ ____
ROOT
ATOM     13  C   UNL     1      -4.075   2.010  24.830  0.00  0.00    +0.227 A 
ATOM     14  N   UNL     1      -4.301   2.586  24.284  0.00  0.00    -0.112 NA
ATOM     15  N   UNL     1      -3.914   3.288  24.479  0.00  0.00    -0.111 NA
ATOM     16  C   UNL     1      -3.449   3.147  25.145  0.00  0.00    +0.231 A 
ATOM     27  O   UNL     1      -3.549   2.357  25.362  0.00  0.00    -0.423 OA
ENDROOT
BRANCH  13  11
ATOM      8  N   UNL     1      -4.338  -0.108  24.777  0.00  0.00    -0.273 NA
ATOM      9  C   UNL     1      -5.107   0.145  24.940  0.00  0.00    +0.073 C 
ATOM     10  C   UNL     1      -5.101   0.969  24.980  0.00  0.00    +0.028 C 
ATOM     11  C   UNL     1      -4.331   1.226  24.842  0.00  0.00    +0.095 C 
ATOM     12  C   UNL     1      -3.859   0.561  24.716  0.00  0.00    +0.081 C 
BRANCH   8   5
ATOM      1  C   UNL     1      -3.356  -3.239  24.430  0.00  0.00    +0.090 C 
ATOM      2  N   UNL     1      -3.602  -2.456  24.516  0.00  0.00    -0.271 NA
ATOM      3  C   UNL     1      -3.430  -2.045  25.210  0.00  0.00    +0.074 C 
ATOM      4  C   UNL     1      -3.676  -1.261  25.297  0.00  0.00    +0.033 C 
ATOM      5  C   UNL     1      -4.093  -0.890  24.690  0.00  0.00    +0.060 C 
ATOM      6  C   UNL     1      -4.265  -1.302  23.996  0.00  0.00    +0.033 C 
ATOM      7  C   UNL     1      -4.020  -2.085  23.909  0.00  0.00    +0.074 C 
ENDBRANCH   8   5
ENDBRANCH  13  11
BRANCH  16  17
ATOM     17  C   UNL     1      -2.969   3.699  25.528  0.00  0.00    +0.115 C 
BRANCH  17  18
ATOM     18  C   UNL     1      -2.159   3.714  25.378  0.00  0.00    +0.008 A 
ATOM     19  C   UNL     1      -1.649   3.065  25.396  0.00  0.00    +0.095 A 
ATOM     20  N   UNL     1      -0.891   3.331  25.214  0.00  0.00    -0.244 NA
ATOM     21  C   UNL     1      -0.930   4.144  25.084  0.00  0.00    +0.081 A 
ATOM     22  C   UNL     1      -1.714   4.381  25.186  0.00  0.00    +0.016 A 
ATOM     23  C   UNL     1      -1.920   5.174  25.089  0.00  0.00    +0.001 A 
ATOM     24  C   UNL     1      -1.345   5.730  24.891  0.00  0.00    +0.000 A 
ATOM     25  C   UNL     1      -0.561   5.493  24.789  0.00  0.00    +0.002 A 
ATOM     26  C   UNL     1      -0.353   4.701  24.885  0.00  0.00    +0.019 A 
ENDBRANCH  17  18
ENDBRANCH  16  17
TORSDOF 4
ENDMDL
MODEL 4
REMARK VINA RESULT:     -11.2      1.900      6.103
REMARK  Name = 
REMARK  4 active torsions:
REMARK  status: ('A' for Active; 'I' for Inactive)
REMARK    1  A    between atoms: C_5  and  N_8
REMARK    2  A    between atoms: C_11  and  C_13
REMARK    3  A    between atoms: C_16  and  C_17
REMARK    4  A    between atoms: C_17  and  C_18
REMARK                            x       y       z     vdW  Elec       q    Type
REMARK                         _______ _______ _______ _____ _____    ______ ____
ROOT
ATOM     13  C   UNL     1      -0.725   0.695  24.961  0.00  0.00    +0.227 A 
ATOM     14  N   UNL     1      -0.180   0.928  24.387  0.00  0.00    -0.112 NA
ATOM     15  N   UNL     1       0.046   1.705  24.549  0.00  0.00    -0.111 NA
ATOM     16  C   UNL     1      -0.359   1.953  25.224  0.00  0.00    +0.231 A 
ATOM     27  O   UNL     1      -0.836   1.328  25.478  0.00  0.00    -0.423 OA
ENDROOT
BRANCH  13  11
ATOM      8  N   UNL     1      -1.964  -1.039  24.833  0.00  0.00    -0.273 NA
ATOM      9  C   UNL     1      -1.362  -1.308  25.329  0.00  0.00    +0.073 C 
ATOM     10  C   UNL     1      -0.825  -0.692  25.437  0.00  0.00    +0.028 C 
ATOM     11  C   UNL     1      -1.094  -0.041  25.008  0.00  0.00    +0.095 C 
ATOM     12  C   UNL     1      -1.798  -0.255  24.635  0.00  0.00    +0.081 C 
BRANCH   8   5
ATOM      1  C   UNL     1      -4.572  -2.787  23.820  0.00  0.00    +0.090 C 
ATOM      2  N   UNL     1      -3.921  -2.349  24.073  0.00  0.00    -0.271 NA
ATOM      3  C   UNL     1      -3.231  -2.737  24.306  0.00  0.00    +0.074 C 
ATOM      4  C   UNL     1      -2.578  -2.299  24.559  0.00  0.00    +0.033 C 
ATOM      5  C   UNL     1      -2.616  -1.475  24.580  0.00  0.00    +0.060 C 
ATOM      6  C   UNL     1      -3.307  -1.089  24.347  0.00  0.00    +0.033 C 
ATOM      7  C   UNL     1      -3.959  -1.525  24.094  0.00  0.00    +0.074 C 
ENDBRANCH   8   5
ENDBRANCH  13  11
BRANCH  16  17
ATOM     17  C   UNL     1      -0.299   2.694  25.581  0.00  0.00    +0.115 C 
BRANCH  17  18
ATOM     18  C   UNL     1      -0.961   3.183  25.632  0.00  0.00    +0.008 A 
ATOM     19  C   UNL     1      -1.686   2.984  25.972  0.00  0.00    +0.095 A 
ATOM     20  N   UNL     1      -2.187   3.635  25.902  0.00  0.00    -0.244 NA
ATOM     21  C   UNL     1      -1.773   4.236  25.518  0.00  0.00    +0.081 A 
ATOM     22  C   UNL     1      -1.015   3.956  25.351  0.00  0.00    +0.016 A 
ATOM     23  C   UNL     1      -0.472   4.443  24.965  0.00  0.00    +0.001 A 
ATOM     24  C   UNL     1      -0.686   5.208  24.746  0.00  0.00    +0.000 A 
ATOM     25  C   UNL     1      -1.444   5.488  24.913  0.00  0.00    +0.002 A 
ATOM     26  C   UNL     1      -1.988   5.002  25.299  0.00  0.00    +0.019 A 
ENDBRANCH  17  18
ENDBRANCH  16  17
TORSDOF 4
ENDMDL
MODEL 5
REMARK VINA RESULT:     -10.5      2.351      4.581
REMARK  Name = 
REMARK  4 active torsions:
REMARK  status: ('A' for Active; 'I' for Inactive)
REMARK    1  A    between atoms: C_5  and  N_8
REMARK    2  A    between atoms: C_11  and  C_13
REMARK    3  A    between atoms: C_16  and  C_17
REMARK    4  A    between atoms: C_17  and  C_18
REMARK                            x       y       z     vdW  Elec       q    Type
REMARK                         _______ _______ _______ _____ _____    ______ ____
ROOT
ATOM     13  C   UNL     1      -1.961   2.792  24.717  0.00  0.00    +0.227 A 
ATOM     14  N   UNL     1      -1.821   3.601  24.799  0.00  0.00    -0.112 NA
ATOM     15  N   UNL     1      -2.544   3.992  24.736  0.00  0.00    -0.111 NA
ATOM     16  C   UNL     1      -3.132   3.426  24.616  0.00  0.00    +0.231 A 
ATOM     27  O   UNL     1      -2.771   2.684  24.604  0.00  0.00    -0.423 OA
ENDROOT
BRANCH  13  11
ATOM      8  N   UNL     1      -0.813   0.995  24.820  0.00  0.00    -0.273 NA
ATOM      9  C   UNL     1      -0.217   1.561  24.751  0.00  0.00    +0.073 C 
ATOM     10  C   UNL     1      -0.575   2.303  24.704  0.00  0.00    +0.028 C 
ATOM     11  C   UNL     1      -1.391   2.196  24.744  0.00  0.00    +0.095 C 
ATOM     12  C   UNL     1      -1.539   1.388  24.816  0.00  0.00    +0.081 C 
BRANCH   8   5
ATOM      1  C   UNL     1      -0.371  -2.265  25.069  0.00  0.00    +0.090 C 
ATOM      2  N   UNL     1      -0.481  -1.450  25.007  0.00  0.00    -0.271 NA
ATOM      3  C   UNL     1      -0.210  -1.048  24.340  0.00  0.00    +0.074 C 
ATOM      4  C   UNL     1      -0.321  -0.232  24.278  0.00  0.00    +0.033 C 
ATOM      5  C   UNL     1      -0.702   0.180  24.883  0.00  0.00    +0.060 C 
ATOM      6  C   UNL     1      -0.973  -0.224  25.549  0.00  0.00    +0.033 C 
ATOM      7  C   UNL     1      -0.863  -1.038  25.612  0.00  0.00    +0.074 C 
ENDBRANCH   8   5
ENDBRANCH  13  11
BRANCH  16  17
ATOM     17  C   UNL     1      -3.938   3.575  24.523  0.00  0.00    +0.115 C 
BRANCH  17  18
ATOM     18  C   UNL     1      -4.461   3.418  25.141  0.00  0.00    +0.008 A 
ATOM     19  C   UNL     1      -4.477   3.801  25.872  0.00  0.00    +0.095 A 
ATOM     20  N   UNL     1      -5.085   3.469  26.320  0.00  0.00    -0.244 NA
ATOM     21  C   UNL     1      -5.444   2.882  25.866  0.00  0.00    +0.081 A 
ATOM     22  C   UNL     1      -5.059   2.850  25.138  0.00  0.00    +0.016 A 
ATOM     23  C   UNL     1      -5.302   2.308  24.566  0.00  0.00    +0.001 A 
ATOM     24  C   UNL     1      -5.931   1.798  24.722  0.00  0.00    +0.000 A 
ATOM     25  C   UNL     1      -6.317   1.830  25.450  0.00  0.00    +0.002 A 
ATOM     26  C   UNL     1      -6.074   2.372  26.023  0.00  0.00    +0.019 A 
ENDBRANCH  17  18
ENDBRANCH  16  17
TORSDOF 4
ENDMDL
MODEL 6
REMARK VINA RESULT:      -8.6     17.408     19.254
REMARK  Name = 
REMARK  4 active torsions:
REMARK  status: ('A' for Active; 'I' for Inactive)
REMARK    1  A    between atoms: C_5  and  N_8
REMARK    2  A    between atoms: C_11  and  C_13
REMARK    3  A    between atoms: C_16  and  C_17
REMARK    4  A    between atoms: C_17  and  C_18
REMARK                            x       y       z     vdW  Elec       q    Type
REMARK                         _______ _______ _______ _____ _____    ______ ____
ROOT
ATOM     13  C   UNL     1      12.615   7.677  20.359  0.00  0.00    +0.227 A 
ATOM     14  N   UNL     1      12.484   6.962  20.751  0.00  0.00    -0.112 NA
ATOM     15  N   UNL     1      13.128   6.822  21.247  0.00  0.00    -0.111 NA
ATOM     16  C   UNL     1      13.656   7.449  21.163  0.00  0.00    +0.231 A 
ATOM     27  O   UNL     1      13.339   7.977  20.614  0.00  0.00    -0.423 OA
ENDROOT
BRANCH  13  11
ATOM      8  N   UNL     1      11.590   8.461  18.659  0.00  0.00    -0.273 NA
ATOM      9  C   UNL     1      11.076   8.675  19.268  0.00  0.00    +0.073 C 
ATOM     10  C   UNL     1      11.397   8.407  19.979  0.00  0.00    +0.028 C 
ATOM     11  C   UNL     1      12.109   8.028  19.810  0.00  0.00    +0.095 C 
ATOM     12  C   UNL     1      12.229   8.061  18.994  0.00  0.00    +0.081 C 
BRANCH   8   5
ATOM      1  C   UNL     1      11.164   9.094  15.449  0.00  0.00    +0.090 C 
ATOM      2  N   UNL     1      11.271   8.936  16.251  0.00  0.00    -0.271 NA
ATOM      3  C   UNL     1      10.629   8.701  16.713  0.00  0.00    +0.074 C 
ATOM      4  C   UNL     1      10.736   8.543  17.517  0.00  0.00    +0.033 C 
ATOM      5  C   UNL     1      11.484   8.619  17.856  0.00  0.00    +0.060 C 
ATOM      6  C   UNL     1      12.125   8.854  17.393  0.00  0.00    +0.033 C 
ATOM      7  C   UNL     1      12.019   9.012  16.591  0.00  0.00    +0.074 C 
ENDBRANCH   8   5
ENDBRANCH  13  11
BRANCH  16  17
ATOM     17  C   UNL     1      14.376   7.534  21.558  0.00  0.00    +0.115 C 
BRANCH  17  18
ATOM     18  C   UNL     1      15.068   7.236  21.224  0.00  0.00    +0.008 A 
ATOM     19  C   UNL     1      15.142   6.523  20.815  0.00  0.00    +0.095 A 
ATOM     20  N   UNL     1      15.928   6.445  20.578  0.00  0.00    -0.244 NA
ATOM     21  C   UNL     1      16.340   7.110  20.840  0.00  0.00    +0.081 A 
ATOM     22  C   UNL     1      15.809   7.598  21.239  0.00  0.00    +0.016 A 
ATOM     23  C   UNL     1      16.069   8.310  21.565  0.00  0.00    +0.001 A 
ATOM     24  C   UNL     1      16.859   8.533  21.492  0.00  0.00    +0.000 A 
ATOM     25  C   UNL     1      17.390   8.045  21.093  0.00  0.00    +0.002 A 
ATOM     26  C   UNL     1      17.131   7.333  20.766  0.00  0.00    +0.019 A 
ENDBRANCH  17  18
ENDBRANCH  16  17
TORSDOF 4
ENDMDL
