MODEL 1
REMARK VINA RESULT:     -12.7      0.000      0.000
REMARK  Name = 
REMARK  4 active torsions:
REMARK  status: ('A' for Active; 'I' for Inactive)
REMARK    1  A    between atoms: C_5  and  C_8
REMARK    2  A    between atoms: C_11  and  C_13
REMARK    3  A    between atoms: N_16  and  C_17
REMARK    4  A    between atoms: C_17  and  C_18
REMARK                            x       y       z     vdW  Elec       q    Type
REMARK                         _______ _______ _______ _____ _____    ______ ____
ROOT
ATOM      8  C   UNL     1      -4.341   0.267  24.835  0.00  0.00    +0.250 A 
ATOM      9  N   UNL     1      -5.103   0.541  24.987  0.00  0.00    -0.107 NA
ATOM     10  N   UNL     1      -5.073   1.364  25.039  0.00  0.00    -0.111 NA
ATOM     11  C   UNL     1      -4.291   1.598  24.920  0.00  0.00    +0.227 A 
ATOM     12  O   UNL     1      -3.839   0.919  24.794  0.00  0.00    -0.419 OA
ENDROOT
BRANCH   8   5
ATOM      1 CL   UNL     1      -3.454  -2.890  24.459  0.00  0.00    -0.082 Cl
ATOM      2  C   UNL     1      -3.676  -2.101  24.553  0.00  0.00    +0.058 A 
ATOM      3  C   UNL     1      -4.068  -1.706  23.943  0.00  0.00    +0.012 A 
ATOM      4  C   UNL     1      -4.289  -0.917  24.037  0.00  0.00    +0.006 A 
ATOM      5  C   UNL     1      -4.119  -0.523  24.741  0.00  0.00    +0.055 A 
ATOM      6  C   UNL     1      -3.728  -0.916  25.351  0.00  0.00    +0.006 A 
ATOM      7  C   UNL     1      -3.507  -1.705  25.257  0.00  0.00    +0.012 A 
ENDBRANCH   8   5
BRANCH  11  13
ATOM     13  C   UNL     1      -4.011   2.373  24.926  0.00  0.00    +0.096 C 
ATOM     14  C   UNL     1      -4.166   2.950  24.356  0.00  0.00    +0.028 C 
ATOM     15  C   UNL     1      -3.776   3.642  24.581  0.00  0.00    +0.073 C 
ATOM     16  N   UNL     1      -3.381   3.493  25.289  0.00  0.00    -0.267 NA
ATOM     24  C   UNL     1      -3.525   2.709  25.503  0.00  0.00    +0.082 C 
BRANCH  16  17
ATOM     17  C   UNL     1      -2.921   4.034  25.710  0.00  0.00    +0.119 C 
BRANCH  17  18
ATOM     18  C   UNL     1      -2.144   4.184  25.477  0.00  0.00    +0.075 A 
ATOM     19  N   UNL     1      -1.565   3.603  25.571  0.00  0.00    -0.247 NA
ATOM     20  C   UNL     1      -0.788   3.753  25.339  0.00  0.00    +0.098 A 
ATOM     21  C   UNL     1      -0.590   4.485  25.012  0.00  0.00    +0.021 A 
ATOM     22  C   UNL     1      -1.168   5.065  24.918  0.00  0.00    +0.003 A 
ATOM     23  C   UNL     1      -1.945   4.915  25.151  0.00  0.00    +0.016 A 
ENDBRANCH  17  18
ENDBRANCH  16  17
ENDBRANCH  11  13
TORSDOF 4
ENDMDL
MODEL 2
REMARK VINA RESULT:     -11.5      2.519      5.656
REMARK  Name = 
REMARK  4 active torsions:
REMARK  status: ('A' for Active; 'I' for Inactive)
REMARK    1  A    between atoms: C_5  and  C_8
REMARK    2  A    between atoms: C_11  and  C_13
REMARK    3  A    between atoms: N_16  and  C_17
REMARK    4  A    between atoms: C_17  and  C_18
REMARK                            x       y       z     vdW  Elec       q    Type
REMARK                         _______ _______ _______ _____ _____    ______ ____
ROOT
ATOM      8  C   UNL     1      -1.068   2.288  25.067  0.00  0.00    +0.250 A 
ATOM      9  N   UNL     1      -0.415   1.899  24.747  0.00  0.00    -0.107 NA
ATOM     10  N   UNL     1      -0.532   1.087  24.835  0.00  0.00    -0.111 NA
ATOM     11  C   UNL     1      -1.259   0.974  25.209  0.00  0.00    +0.227 A 
ATOM     12  O   UNL     1      -1.589   1.717  25.353  0.00  0.00    -0.419 OA
ENDROOT
BRANCH   8   5
ATOM      1 CL   UNL     1      -1.514   5.556  25.184  0.00  0.00    -0.082 Cl
ATOM      2  C   UNL     1      -1.403   4.739  25.155  0.00  0.00    +0.058 A 
ATOM      3  C   UNL     1      -0.755   4.425  24.751  0.00  0.00    +0.012 A 
ATOM      4  C   UNL     1      -0.643   3.608  24.722  0.00  0.00    +0.006 A 
ATOM      5  C   UNL     1      -1.179   3.105  25.096  0.00  0.00    +0.055 A 
ATOM      6  C   UNL     1      -1.826   3.418  25.500  0.00  0.00    +0.006 A 
ATOM      7  C   UNL     1      -1.938   4.235  25.529  0.00  0.00    +0.012 A 
ENDBRANCH   8   5
BRANCH  11  13
ATOM     13  C   UNL     1      -1.595   0.248  25.406  0.00  0.00    +0.096 C 
ATOM     14  C   UNL     1      -1.185  -0.433  25.630  0.00  0.00    +0.028 C 
ATOM     15  C   UNL     1      -1.738  -1.028  25.776  0.00  0.00    +0.073 C 
ATOM     16  N   UNL     1      -2.489  -0.716  25.642  0.00  0.00    -0.267 NA
ATOM     24  C   UNL     1      -2.402   0.073  25.414  0.00  0.00    +0.082 C 
BRANCH  16  17
ATOM     17  C   UNL     1      -3.204  -1.121  25.723  0.00  0.00    +0.119 C 
BRANCH  17  18
ATOM     18  C   UNL     1      -3.500  -1.564  25.094  0.00  0.00    +0.075 A 
ATOM     19  N   UNL     1      -3.298  -2.361  25.019  0.00  0.00    -0.247 NA
ATOM     20  C   UNL     1      -3.594  -2.805  24.390  0.00  0.00    +0.098 A 
ATOM     21  C   UNL     1      -4.092  -2.452  23.835  0.00  0.00    +0.021 A 
ATOM     22  C   UNL     1      -4.294  -1.656  23.909  0.00  0.00    +0.003 A 
ATOM     23  C   UNL     1      -3.998  -1.211  24.539  0.00  0.00    +0.016 A 
ENDBRANCH  17  18
ENDBRANCH  16  17
ENDBRANCH  11  13
TORSDOF 4
ENDMDL
MODEL 3
REMARK VINA RESULT:     -11.5      1.879      2.536
REMARK  Name = 
REMARK  4 active torsions:
REMARK  status: ('A' for Active; 'I' for Inactive)
REMARK    1  A    between atoms: C_5  and  C_8
REMARK    2  A    between atoms: C_11  and  C_13
REMARK    3  A    between atoms: N_16  and  C_17
REMARK    4  A    between atoms: C_17  and  C_18
REMARK                            x       y       z     vdW  Elec       q    Type
REMARK                         _______ _______ _______ _____ _____    ______ ____
ROOT
ATOM      8  C   UNL     1      -2.116  -0.861  24.959  0.00  0.00    +0.250 A 
ATOM      9  N   UNL     1      -1.567  -1.123  25.516  0.00  0.00    -0.107 NA
ATOM     10  N   UNL     1      -1.031  -0.512  25.655  0.00  0.00    -0.111 NA
ATOM     11  C   UNL     1      -1.248   0.128  25.183  0.00  0.00    +0.227 A 
ATOM     12  O   UNL     1      -1.918  -0.087  24.753  0.00  0.00    -0.419 OA
ENDROOT
BRANCH   8   5
ATOM      1 CL   UNL     1      -4.653  -2.600  23.763  0.00  0.00    -0.082 Cl
ATOM      2  C   UNL     1      -4.018  -2.165  24.062  0.00  0.00    +0.058 A 
ATOM      3  C   UNL     1      -3.333  -2.552  24.311  0.00  0.00    +0.012 A 
ATOM      4  C   UNL     1      -2.699  -2.118  24.609  0.00  0.00    +0.006 A 
ATOM      5  C   UNL     1      -2.750  -1.296  24.660  0.00  0.00    +0.055 A 
ATOM      6  C   UNL     1      -3.434  -0.909  24.412  0.00  0.00    +0.006 A 
ATOM      7  C   UNL     1      -4.068  -1.343  24.113  0.00  0.00    +0.012 A 
ENDBRANCH   8   5
BRANCH  11  13
ATOM     13  C   UNL     1      -0.862   0.857  25.147  0.00  0.00    +0.096 C 
ATOM     14  C   UNL     1      -0.329   1.095  24.564  0.00  0.00    +0.028 C 
ATOM     15  C   UNL     1      -0.079   1.861  24.745  0.00  0.00    +0.073 C 
ATOM     16  N   UNL     1      -0.458   2.096  25.438  0.00  0.00    -0.267 NA
ATOM     24  C   UNL     1      -0.942   1.475  25.687  0.00  0.00    +0.082 C 
BRANCH  16  17
ATOM     17  C   UNL     1      -0.369   2.823  25.817  0.00  0.00    +0.119 C 
BRANCH  17  18
ATOM     18  C   UNL     1      -0.862   3.455  25.619  0.00  0.00    +0.075 A 
ATOM     19  N   UNL     1      -1.626   3.495  25.930  0.00  0.00    -0.247 NA
ATOM     20  C   UNL     1      -2.118   4.126  25.732  0.00  0.00    +0.098 A 
ATOM     21  C   UNL     1      -1.847   4.717  25.223  0.00  0.00    +0.021 A 
ATOM     22  C   UNL     1      -1.084   4.677  24.913  0.00  0.00    +0.003 A 
ATOM     23  C   UNL     1      -0.591   4.045  25.111  0.00  0.00    +0.016 A 
ENDBRANCH  17  18
ENDBRANCH  16  17
ENDBRANCH  11  13
TORSDOF 4
ENDMDL
MODEL 4
REMARK VINA RESULT:     -11.1      2.036      5.210
REMARK  Name = 
REMARK  4 active torsions:
REMARK  status: ('A' for Active; 'I' for Inactive)
REMARK    1  A    between atoms: C_5  and  C_8
REMARK    2  A    between atoms: C_11  and  C_13
REMARK    3  A    between atoms: N_16  and  C_17
REMARK    4  A    between atoms: C_17  and  C_18
REMARK                            x       y       z     vdW  Elec       q    Type
REMARK                         _______ _______ _______ _____ _____    ______ ____
ROOT
ATOM      8  C   UNL     1      -3.055   3.064  24.981  0.00  0.00    +0.250 A 
ATOM      9  N   UNL     1      -3.839   3.264  25.141  0.00  0.00    -0.107 NA
ATOM     10  N   UNL     1      -4.298   2.582  25.071  0.00  0.00    -0.111 NA
ATOM     11  C   UNL     1      -3.796   1.959  24.867  0.00  0.00    +0.227 A 
ATOM     12  O   UNL     1      -3.029   2.257  24.812  0.00  0.00    -0.419 OA
ENDROOT
BRANCH   8   5
ATOM      1 CL   UNL     1      -0.479   5.126  25.013  0.00  0.00    -0.082 Cl
ATOM      2  C   UNL     1      -1.123   4.611  25.005  0.00  0.00    +0.058 A 
ATOM      3  C   UNL     1      -1.857   4.861  25.291  0.00  0.00    +0.012 A 
ATOM      4  C   UNL     1      -2.500   4.345  25.283  0.00  0.00    +0.006 A 
ATOM      5  C   UNL     1      -2.411   3.579  24.989  0.00  0.00    +0.055 A 
ATOM      6  C   UNL     1      -1.680   3.329  24.704  0.00  0.00    +0.006 A 
ATOM      7  C   UNL     1      -1.036   3.845  24.712  0.00  0.00    +0.012 A 
ENDBRANCH   8   5
BRANCH  11  13
ATOM     13  C   UNL     1      -4.022   1.176  24.741  0.00  0.00    +0.096 C 
ATOM     14  C   UNL     1      -4.621   0.774  25.142  0.00  0.00    +0.028 C 
ATOM     15  C   UNL     1      -4.658   0.006  24.840  0.00  0.00    +0.073 C 
ATOM     16  N   UNL     1      -4.083  -0.066  24.254  0.00  0.00    -0.267 NA
ATOM     24  C   UNL     1      -3.690   0.657  24.192  0.00  0.00    +0.082 C 
BRANCH  16  17
ATOM     17  C   UNL     1      -3.927  -0.742  23.807  0.00  0.00    +0.119 C 
BRANCH  17  18
ATOM     18  C   UNL     1      -3.525  -1.377  24.146  0.00  0.00    +0.075 A 
ATOM     19  N   UNL     1      -2.712  -1.328  24.279  0.00  0.00    -0.247 NA
ATOM     20  C   UNL     1      -2.310  -1.963  24.618  0.00  0.00    +0.098 A 
ATOM     21  C   UNL     1      -2.721  -2.648  24.825  0.00  0.00    +0.021 A 
ATOM     22  C   UNL     1      -3.533  -2.698  24.692  0.00  0.00    +0.003 A 
ATOM     23  C   UNL     1      -3.936  -2.062  24.353  0.00  0.00    +0.016 A 
ENDBRANCH  17  18
ENDBRANCH  16  17
ENDBRANCH  11  13
TORSDOF 4
ENDMDL
