REMARK  Name = 
REMARK  2 active torsions:
REMARK  status: ('A' for Active; 'I' for Inactive)
REMARK    1  A    between atoms: N_11  and  C_12
REMARK    2  A    between atoms: C_12  and  C_13
REMARK                            x       y       z     vdW  Elec       q    Type
REMARK                         _______ _______ _______ _____ _____    ______ ____
ROOT
ATOM      1  C   UNL     1      -0.584   0.017   0.000  0.00  0.00    +0.095 C 
ATOM      2  C   UNL     1      -0.171  -0.698   0.000  0.00  0.00    +0.226 C 
ATOM      3  O   UNL     1      -0.584  -1.412   0.000  0.00  0.00    -0.275 OA
ATOM      4  N   UNL     1       0.654  -0.698   0.000  0.00  0.00    -0.275 N 
ATOM      5  C   UNL     1       1.139  -0.030   0.000  0.00  0.00    +0.125 C 
ATOM      6  C   UNL     1       1.923  -0.285   0.000  0.00  0.00    +0.155 C 
ATOM      7  O   UNL     1       2.638   0.127   0.000  0.00  0.00    -0.343 OA
ATOM      8  C   UNL     1       3.352  -0.285   0.000  0.00  0.00    +0.227 C 
ATOM      9  C   UNL     1       3.352  -1.110   0.000  0.00  0.00    +0.256 C 
ATOM     10  O   UNL     1       4.067  -1.523   0.000  0.00  0.00    -0.272 OA
ATOM     11  N   UNL     1       2.638  -1.523   0.000  0.00  0.00    -0.271 N 
ATOM     19  C   UNL     1       1.923  -1.110   0.000  0.00  0.00    +0.124 C 
ATOM     20  C   UNL     1       1.139  -1.365   0.000  0.00  0.00    +0.116 C 
ENDROOT
BRANCH  11  12
ATOM     12  C   UNL     1       2.638  -2.348   0.000  0.00  0.00    +0.120 C 
BRANCH  12  13
ATOM     13  C   UNL     1       1.923  -2.760   0.000  0.00  0.00    +0.001 A 
ATOM     14  C   UNL     1       1.923  -3.585   0.000  0.00  0.00    +0.018 A 
ATOM     15  C   UNL     1       1.209  -3.998   0.000  0.00  0.00    +0.099 A 
ATOM     16  N   UNL     1       0.494  -3.585   0.000  0.00  0.00    -0.242 NA
ATOM     17  C   UNL     1       0.494  -2.760   0.000  0.00  0.00    +0.099 A 
ATOM     18  C   UNL     1       1.209  -2.348   0.000  0.00  0.00    +0.018 A 
ENDBRANCH  12  13
ENDBRANCH  11  12
TORSDOF 2
