MODEL 1
REMARK VINA RESULT:     -11.2      0.000      0.000
REMARK  Name = 
REMARK  5 active torsions:
REMARK  status: ('A' for Active; 'I' for Inactive)
REMARK    1  A    between atoms: N_5  and  C_6
REMARK    2  A    between atoms: C_6  and  C_7
REMARK    3  A    between atoms: C_14  and  C_15
REMARK    4  A    between atoms: C_15  and  N_16
REMARK    5  A    between atoms: N_19  and  C_20
REMARK                            x       y       z     vdW  Elec       q    Type
REMARK                         _______ _______ _______ _____ _____    ______ ____
ROOT
ATOM      7  C   UNL     1      -4.320   2.880  25.225  0.00  0.00    +0.032 C 
ATOM      8  C   UNL     1      -3.736   2.466  24.921  0.00  0.00    +0.073 C 
ATOM      9  N   UNL     1      -4.501   2.193  25.071  0.00  0.00    -0.272 NA
ATOM     10  C   UNL     1      -5.040   2.994  25.480  0.00  0.00    +0.072 C 
ATOM     11  C   UNL     1      -5.594   3.240  25.724  0.00  0.00    +0.017 C 
ATOM     12  C   UNL     1      -5.068   2.606  25.370  0.00  0.00    +0.005 C 
ATOM     13  C   UNL     1      -5.441   1.821  25.245  0.00  0.00    +0.018 C 
ATOM     14  C   UNL     1      -4.895   1.380  24.944  0.00  0.00    +0.079 C 
ENDROOT
BRANCH   7   6
ATOM      6  C   UNL     1      -4.164   3.668  25.418  0.00  0.00    +0.074 C 
BRANCH   6   5
ATOM      1  C   UNL     1      -1.102   4.862  25.121  0.00  0.00    +0.090 C 
ATOM      2  N   UNL     1      -1.868   4.564  25.195  0.00  0.00    -0.269 NA
ATOM      3  C   UNL     1      -2.366   4.537  24.538  0.00  0.00    +0.090 C 
ATOM      4  C   UNL     1      -3.132   4.238  24.613  0.00  0.00    +0.090 C 
ATOM      5  N   UNL     1      -3.399   3.966  25.344  0.00  0.00    -0.270 NA
ATOM     26  C   UNL     1      -2.901   3.993  26.001  0.00  0.00    +0.090 C 
ATOM     27  C   UNL     1      -2.135   4.292  25.926  0.00  0.00    +0.090 C 
ENDBRANCH   6   5
ENDBRANCH   7   6
BRANCH  14  15
ATOM     15  C   UNL     1      -4.749   0.618  24.667  0.00  0.00    +0.133 C 
BRANCH  15  16
ATOM     16  N   UNL     1      -4.386   0.063  25.158  0.00  0.00    -0.185 NA
ATOM     17  C   UNL     1      -4.009  -0.594  24.832  0.00  0.00    +0.344 C 
ATOM     18  O   UNL     1      -3.996  -0.697  24.014  0.00  0.00    -0.249 OA
ATOM     19  N   UNL     1      -3.647  -1.149  25.324  0.00  0.00    -0.161 NA
BRANCH  19  20
ATOM     20  C   UNL     1      -3.270  -1.806  24.997  0.00  0.00    +0.075 A 
ATOM     21  C   UNL     1      -2.458  -1.787  24.854  0.00  0.00    +0.017 A 
ATOM     22  C   UNL     1      -2.081  -2.445  24.527  0.00  0.00    +0.001 A 
ATOM     23  C   UNL     1      -2.517  -3.121  24.343  0.00  0.00    +0.000 A 
ATOM     24  C   UNL     1      -3.329  -3.139  24.486  0.00  0.00    +0.001 A 
ATOM     25  C   UNL     1      -3.706  -2.482  24.813  0.00  0.00    +0.017 A 
ENDBRANCH  19  20
ENDBRANCH  15  16
ENDBRANCH  14  15
TORSDOF 5
ENDMDL
MODEL 2
REMARK VINA RESULT:      -9.7      1.209      5.241
REMARK  Name = 
REMARK  5 active torsions:
REMARK  status: ('A' for Active; 'I' for Inactive)
REMARK    1  A    between atoms: N_5  and  C_6
REMARK    2  A    between atoms: C_6  and  C_7
REMARK    3  A    between atoms: C_14  and  C_15
REMARK    4  A    between atoms: C_15  and  N_16
REMARK    5  A    between atoms: N_19  and  C_20
REMARK                            x       y       z     vdW  Elec       q    Type
REMARK                         _______ _______ _______ _____ _____    ______ ____
ROOT
ATOM      7  C   UNL     1      -4.587   0.654  24.887  0.00  0.00    +0.032 C 
ATOM      8  C   UNL     1      -3.876   0.794  24.604  0.00  0.00    +0.073 C 
ATOM      9  N   UNL     1      -4.445   1.361  24.794  0.00  0.00    -0.272 NA
ATOM     10  C   UNL     1      -5.288   0.847  25.149  0.00  0.00    +0.072 C 
ATOM     11  C   UNL     1      -5.897   0.849  25.385  0.00  0.00    +0.017 C 
ATOM     12  C   UNL     1      -5.140   1.216  25.072  0.00  0.00    +0.005 C 
ATOM     13  C   UNL     1      -5.129   2.092  25.020  0.00  0.00    +0.018 C 
ATOM     14  C   UNL     1      -4.441   2.272  24.743  0.00  0.00    +0.079 C 
ENDROOT
BRANCH   7   6
ATOM      6  C   UNL     1      -4.796  -0.136  25.011  0.00  0.00    +0.074 C 
BRANCH   6   5
ATOM      1  C   UNL     1      -2.577  -2.526  24.511  0.00  0.00    +0.090 C 
ATOM      2  N   UNL     1      -3.132  -1.928  24.636  0.00  0.00    -0.269 NA
ATOM      3  C   UNL     1      -3.674  -1.737  24.044  0.00  0.00    +0.090 C 
ATOM      4  C   UNL     1      -4.228  -1.140  24.169  0.00  0.00    +0.090 C 
ATOM      5  N   UNL     1      -4.241  -0.733  24.887  0.00  0.00    -0.270 NA
ATOM     26  C   UNL     1      -3.699  -0.923  25.479  0.00  0.00    +0.090 C 
ATOM     27  C   UNL     1      -3.145  -1.521  25.353  0.00  0.00    +0.090 C 
ENDBRANCH   6   5
ENDBRANCH   7   6
BRANCH  14  15
ATOM     15  C   UNL     1      -3.970   2.913  24.525  0.00  0.00    +0.133 C 
BRANCH  15  16
ATOM     16  N   UNL     1      -3.513   3.300  25.093  0.00  0.00    -0.185 NA
ATOM     17  C   UNL     1      -2.843   3.724  24.864  0.00  0.00    +0.344 C 
ATOM     18  O   UNL     1      -2.631   3.761  24.068  0.00  0.00    -0.249 OA
ATOM     19  N   UNL     1      -2.386   4.110  25.432  0.00  0.00    -0.161 NA
BRANCH  19  20
ATOM     20  C   UNL     1      -1.716   4.535  25.202  0.00  0.00    +0.075 A 
ATOM     21  C   UNL     1      -1.756   5.354  25.118  0.00  0.00    +0.017 A 
ATOM     22  C   UNL     1      -1.086   5.778  24.889  0.00  0.00    +0.001 A 
ATOM     23  C   UNL     1      -0.377   5.383  24.744  0.00  0.00    +0.000 A 
ATOM     24  C   UNL     1      -0.337   4.563  24.829  0.00  0.00    +0.001 A 
ATOM     25  C   UNL     1      -1.007   4.139  25.058  0.00  0.00    +0.017 A 
ENDBRANCH  19  20
ENDBRANCH  15  16
ENDBRANCH  14  15
TORSDOF 5
ENDMDL
MODEL 3
REMARK VINA RESULT:      -9.3      1.610      2.689
REMARK  Name = 
REMARK  5 active torsions:
REMARK  status: ('A' for Active; 'I' for Inactive)
REMARK    1  A    between atoms: N_5  and  C_6
REMARK    2  A    between atoms: C_6  and  C_7
REMARK    3  A    between atoms: C_14  and  C_15
REMARK    4  A    between atoms: C_15  and  N_16
REMARK    5  A    between atoms: N_19  and  C_20
REMARK                            x       y       z     vdW  Elec       q    Type
REMARK                         _______ _______ _______ _____ _____    ______ ____
ROOT
ATOM      7  C   UNL     1      -1.753   2.561  25.315  0.00  0.00    +0.032 C 
ATOM      8  C   UNL     1      -2.307   2.077  25.060  0.00  0.00    +0.073 C 
ATOM      9  N   UNL     1      -1.533   1.870  25.261  0.00  0.00    -0.272 NA
ATOM     10  C   UNL     1      -1.046   2.747  25.564  0.00  0.00    +0.072 C 
ATOM     11  C   UNL     1      -0.512   3.054  25.781  0.00  0.00    +0.017 C 
ATOM     12  C   UNL     1      -0.996   2.350  25.509  0.00  0.00    +0.005 C 
ATOM     13  C   UNL     1      -0.580   1.577  25.501  0.00  0.00    +0.018 C 
ATOM     14  C   UNL     1      -1.095   1.070  25.255  0.00  0.00    +0.079 C 
ENDROOT
BRANCH   7   6
ATOM      6  C   UNL     1      -1.954   3.358  25.393  0.00  0.00    +0.074 C 
BRANCH   6   5
ATOM      1  C   UNL     1      -5.115   4.287  25.218  0.00  0.00    +0.090 C 
ATOM      2  N   UNL     1      -4.324   4.055  25.262  0.00  0.00    -0.269 NA
ATOM      3  C   UNL     1      -3.975   3.915  25.996  0.00  0.00    +0.090 C 
ATOM      4  C   UNL     1      -3.185   3.682  26.039  0.00  0.00    +0.090 C 
ATOM      5  N   UNL     1      -2.743   3.590  25.349  0.00  0.00    -0.270 NA
ATOM     26  C   UNL     1      -3.092   3.730  24.614  0.00  0.00    +0.090 C 
ATOM     27  C   UNL     1      -3.883   3.963  24.571  0.00  0.00    +0.090 C 
ENDBRANCH   6   5
ENDBRANCH   7   6
BRANCH  14  15
ATOM     15  C   UNL     1      -1.195   0.269  25.084  0.00  0.00    +0.133 C 
BRANCH  15  16
ATOM     16  N   UNL     1      -1.820  -0.149  25.423  0.00  0.00    -0.185 NA
ATOM     17  C   UNL     1      -2.203  -0.739  24.992  0.00  0.00    +0.344 C 
ATOM     18  O   UNL     1      -1.961  -0.911  24.223  0.00  0.00    -0.249 OA
ATOM     19  N   UNL     1      -2.828  -1.158  25.331  0.00  0.00    -0.161 NA
BRANCH  19  20
ATOM     20  C   UNL     1      -3.211  -1.748  24.900  0.00  0.00    +0.075 A 
ATOM     21  C   UNL     1      -3.819  -1.550  24.378  0.00  0.00    +0.017 A 
ATOM     22  C   UNL     1      -4.201  -2.140  23.947  0.00  0.00    +0.001 A 
ATOM     23  C   UNL     1      -3.977  -2.929  24.038  0.00  0.00    +0.000 A 
ATOM     24  C   UNL     1      -3.369  -3.127  24.559  0.00  0.00    +0.001 A 
ATOM     25  C   UNL     1      -2.987  -2.537  24.991  0.00  0.00    +0.017 A 
ENDBRANCH  19  20
ENDBRANCH  15  16
ENDBRANCH  14  15
TORSDOF 5
ENDMDL
