MODEL 1
REMARK VINA RESULT:     -15.4      0.000      0.000
REMARK  Name = 
REMARK  4 active torsions:
REMARK  status: ('A' for Active; 'I' for Inactive)
REMARK    1  A    between atoms: C_5  and  C_6
REMARK    2  A    between atoms: C_7  and  C_8
REMARK    3  A    between atoms: C_18  and  C_20
REMARK    4  A    between atoms: C_23  and  C_26
REMARK                            x       y       z     vdW  Elec       q    Type
REMARK                         _______ _______ _______ _____ _____    ______ ____
ROOT
ATOM      8  C   UNL     1      -4.304   0.886  24.818  0.00  0.00    +0.056 A 
ATOM      9  C   UNL     1      -5.107   1.006  24.966  0.00  0.00    +0.006 A 
ATOM     10  C   UNL     1      -5.385   1.760  25.149  0.00  0.00    +0.013 A 
ATOM     11  C   UNL     1      -4.861   2.396  25.185  0.00  0.00    +0.041 A 
ATOM     12  C   UNL     1      -4.845   3.300  25.349  0.00  0.00    +0.058 C 
ATOM     13  C   UNL     1      -5.265   3.837  25.515  0.00  0.00    +0.011 C 
ATOM     14  C   UNL     1      -4.473   3.715  25.368  0.00  0.00    +0.043 C 
ATOM     15  C   UNL     1      -3.497   3.771  25.226  0.00  0.00    +0.096 C 
ATOM     16  N   UNL     1      -3.335   2.970  25.052  0.00  0.00    -0.276 N 
ATOM     17  C   UNL     1      -3.902   3.370  25.215  0.00  0.00    +0.099 C 
ATOM     18  C   UNL     1      -2.897   2.297  24.859  0.00  0.00    +0.249 C 
ATOM     19  O   UNL     1      -3.274   1.567  24.783  0.00  0.00    -0.270 OA
ATOM     28  C   UNL     1      -4.480   2.771  25.195  0.00  0.00    +0.110 C 
ATOM     29  N   UNL     1      -4.058   2.276  25.037  0.00  0.00    -0.299 N 
ATOM     30  C   UNL     1      -3.779   1.522  24.854  0.00  0.00    +0.261 A 
ATOM     31  O   UNL     1      -3.060   1.161  24.674  0.00  0.00    -0.267 OA
ENDROOT
BRANCH  18  20
ATOM     20  C   UNL     1      -2.083   2.355  24.742  0.00  0.00    +0.054 A 
ATOM     21  C   UNL     1      -1.783   2.502  23.988  0.00  0.00    +0.005 A 
ATOM     22  C   UNL     1      -0.968   2.560  23.871  0.00  0.00    +0.010 A 
ATOM     23  C   UNL     1      -0.454   2.471  24.510  0.00  0.00    +0.068 A 
ATOM     24  C   UNL     1      -0.752   2.325  25.264  0.00  0.00    +0.010 A 
ATOM     25  C   UNL     1      -1.567   2.267  25.381  0.00  0.00    +0.005 A 
BRANCH  23  26
ATOM     26  C   UNL     1       0.362   2.529  24.393  0.00  0.00    +0.100 C 
ATOM     27  N   UNL     1       1.176   2.587  24.276  0.00  0.00    -0.191 NA
ENDBRANCH  23  26
ENDBRANCH  18  20
BRANCH   8   7
ATOM      6  C   UNL     1      -4.438  -0.534  24.896  0.00  0.00    +0.000 C 
ATOM      7  C   UNL     1      -4.026   0.132  24.635  0.00  0.00    +0.005 C 
BRANCH   6   5
ATOM      1 CL   UNL     1      -3.326  -3.553  24.162  0.00  0.00    -0.082 Cl
ATOM      2  C   UNL     1      -3.604  -2.799  24.345  0.00  0.00    +0.058 A 
ATOM      3  C   UNL     1      -4.074  -2.390  23.805  0.00  0.00    +0.011 A 
ATOM      4  C   UNL     1      -4.352  -1.635  23.988  0.00  0.00    +0.001 A 
ATOM      5  C   UNL     1      -4.160  -1.289  24.712  0.00  0.00    +0.000 A 
ATOM     32  C   UNL     1      -3.690  -1.698  25.254  0.00  0.00    +0.001 A 
ATOM     33  C   UNL     1      -3.411  -2.453  25.070  0.00  0.00    +0.011 A 
ENDBRANCH   6   5
ENDBRANCH   8   7
TORSDOF 4
ENDMDL
MODEL 2
REMARK VINA RESULT:     -14.7      1.609      2.042
REMARK  Name = 
REMARK  4 active torsions:
REMARK  status: ('A' for Active; 'I' for Inactive)
REMARK    1  A    between atoms: C_5  and  C_6
REMARK    2  A    between atoms: C_7  and  C_8
REMARK    3  A    between atoms: C_18  and  C_20
REMARK    4  A    between atoms: C_23  and  C_26
REMARK                            x       y       z     vdW  Elec       q    Type
REMARK                         _______ _______ _______ _____ _____    ______ ____
ROOT
ATOM      8  C   UNL     1      -3.691   0.520  25.043  0.00  0.00    +0.056 A 
ATOM      9  C   UNL     1      -4.378   0.064  25.050  0.00  0.00    +0.006 A 
ATOM     10  C   UNL     1      -5.117   0.430  25.065  0.00  0.00    +0.013 A 
ATOM     11  C   UNL     1      -5.169   1.253  25.073  0.00  0.00    +0.041 A 
ATOM     12  C   UNL     1      -5.792   1.928  25.089  0.00  0.00    +0.058 C 
ATOM     13  C   UNL     1      -6.485   2.038  25.101  0.00  0.00    +0.011 C 
ATOM     14  C   UNL     1      -5.805   2.486  25.094  0.00  0.00    +0.043 C 
ATOM     15  C   UNL     1      -5.111   3.189  25.090  0.00  0.00    +0.096 C 
ATOM     16  N   UNL     1      -4.426   2.710  25.075  0.00  0.00    -0.276 N 
ATOM     17  C   UNL     1      -5.133   2.619  25.085  0.00  0.00    +0.099 C 
ATOM     18  C   UNL     1      -3.625   2.512  25.060  0.00  0.00    +0.249 C 
ATOM     19  O   UNL     1      -3.396   1.719  25.049  0.00  0.00    -0.270 OA
ATOM     28  C   UNL     1      -5.147   1.787  25.077  0.00  0.00    +0.110 C 
ATOM     29  N   UNL     1      -4.482   1.710  25.066  0.00  0.00    -0.299 N 
ATOM     30  C   UNL     1      -3.743   1.344  25.051  0.00  0.00    +0.261 A 
ATOM     31  O   UNL     1      -2.949   1.566  25.041  0.00  0.00    -0.267 OA
ENDROOT
BRANCH  18  20
ATOM     20  C   UNL     1      -3.054   3.107  25.057  0.00  0.00    +0.054 A 
ATOM     21  C   UNL     1      -2.741   3.374  24.342  0.00  0.00    +0.005 A 
ATOM     22  C   UNL     1      -2.169   3.970  24.339  0.00  0.00    +0.010 A 
ATOM     23  C   UNL     1      -1.911   4.297  25.051  0.00  0.00    +0.068 A 
ATOM     24  C   UNL     1      -2.224   4.030  25.765  0.00  0.00    +0.010 A 
ATOM     25  C   UNL     1      -2.795   3.435  25.769  0.00  0.00    +0.005 A 
BRANCH  23  26
ATOM     26  C   UNL     1      -1.339   4.892  25.047  0.00  0.00    +0.100 C 
ATOM     27  N   UNL     1      -0.768   5.487  25.044  0.00  0.00    -0.191 NA
ENDBRANCH  23  26
ENDBRANCH  18  20
BRANCH   8   7
ATOM      6  C   UNL     1      -2.884  -0.644  25.227  0.00  0.00    +0.000 C 
ATOM      7  C   UNL     1      -2.953   0.154  25.028  0.00  0.00    +0.005 C 
BRANCH   6   5
ATOM      1 CL   UNL     1       0.072  -2.110  25.167  0.00  0.00    -0.082 Cl
ATOM      2  C   UNL     1      -0.667  -1.744  25.182  0.00  0.00    +0.058 A 
ATOM      3  C   UNL     1      -0.824  -1.156  25.738  0.00  0.00    +0.011 A 
ATOM      4  C   UNL     1      -1.563  -0.789  25.753  0.00  0.00    +0.001 A 
ATOM      5  C   UNL     1      -2.144  -1.011  25.212  0.00  0.00    +0.000 A 
ATOM     32  C   UNL     1      -1.988  -1.599  24.655  0.00  0.00    +0.001 A 
ATOM     33  C   UNL     1      -1.248  -1.966  24.640  0.00  0.00    +0.011 A 
ENDBRANCH   6   5
ENDBRANCH   8   7
TORSDOF 4
ENDMDL
MODEL 3
REMARK VINA RESULT:     -14.1      1.904      3.678
REMARK  Name = 
REMARK  4 active torsions:
REMARK  status: ('A' for Active; 'I' for Inactive)
REMARK    1  A    between atoms: C_5  and  C_6
REMARK    2  A    between atoms: C_7  and  C_8
REMARK    3  A    between atoms: C_18  and  C_20
REMARK    4  A    between atoms: C_23  and  C_26
REMARK                            x       y       z     vdW  Elec       q    Type
REMARK                         _______ _______ _______ _____ _____    ______ ____
ROOT
ATOM      8  C   UNL     1      -1.256   1.997  25.099  0.00  0.00    +0.056 A 
ATOM      9  C   UNL     1      -0.516   2.361  25.134  0.00  0.00    +0.006 A 
ATOM     10  C   UNL     1      -0.462   3.184  25.158  0.00  0.00    +0.013 A 
ATOM     11  C   UNL     1      -1.147   3.643  25.147  0.00  0.00    +0.041 A 
ATOM     12  C   UNL     1      -1.419   4.521  25.162  0.00  0.00    +0.058 C 
ATOM     13  C   UNL     1      -1.166   5.175  25.188  0.00  0.00    +0.011 C 
ATOM     14  C   UNL     1      -1.894   4.812  25.153  0.00  0.00    +0.043 C 
ATOM     15  C   UNL     1      -2.850   4.565  25.114  0.00  0.00    +0.096 C 
ATOM     16  N   UNL     1      -2.779   3.733  25.095  0.00  0.00    -0.276 N 
ATOM     17  C   UNL     1      -2.347   4.298  25.124  0.00  0.00    +0.099 C 
ATOM     18  C   UNL     1      -3.010   2.941  25.066  0.00  0.00    +0.249 C 
ATOM     19  O   UNL     1      -2.440   2.344  25.069  0.00  0.00    -0.270 OA
ATOM     28  C   UNL     1      -1.620   3.892  25.138  0.00  0.00    +0.110 C 
ATOM     29  N   UNL     1      -1.887   3.279  25.112  0.00  0.00    -0.299 N 
ATOM     30  C   UNL     1      -1.941   2.456  25.089  0.00  0.00    +0.261 A 
ATOM     31  O   UNL     1      -2.532   1.882  25.053  0.00  0.00    -0.267 OA
ENDROOT
BRANCH  18  20
ATOM     20  C   UNL     1      -3.811   2.747  25.033  0.00  0.00    +0.054 A 
ATOM     21  C   UNL     1      -4.264   2.746  25.723  0.00  0.00    +0.005 A 
ATOM     22  C   UNL     1      -5.066   2.551  25.690  0.00  0.00    +0.010 A 
ATOM     23  C   UNL     1      -5.413   2.357  24.968  0.00  0.00    +0.068 A 
ATOM     24  C   UNL     1      -4.961   2.358  24.279  0.00  0.00    +0.010 A 
ATOM     25  C   UNL     1      -4.160   2.552  24.311  0.00  0.00    +0.005 A 
BRANCH  23  26
ATOM     26  C   UNL     1      -6.215   2.163  24.936  0.00  0.00    +0.100 C 
ATOM     27  N   UNL     1      -7.016   1.968  24.903  0.00  0.00    -0.191 NA
ENDBRANCH  23  26
ENDBRANCH  18  20
BRANCH   8   7
ATOM      6  C   UNL     1      -0.624   0.716  25.074  0.00  0.00    +0.000 C 
ATOM      7  C   UNL     1      -1.309   1.175  25.076  0.00  0.00    +0.005 C 
BRANCH   6   5
ATOM      1 CL   UNL     1      -0.839  -2.575  24.979  0.00  0.00    -0.082 Cl
ATOM      2  C   UNL     1      -0.786  -1.753  25.003  0.00  0.00    +0.058 A 
ATOM      3  C   UNL     1      -0.992  -1.346  25.690  0.00  0.00    +0.011 A 
ATOM      4  C   UNL     1      -0.938  -0.523  25.714  0.00  0.00    +0.001 A 
ATOM      5  C   UNL     1      -0.678  -0.107  25.051  0.00  0.00    +0.000 A 
ATOM     32  C   UNL     1      -0.471  -0.514  24.363  0.00  0.00    +0.001 A 
ATOM     33  C   UNL     1      -0.525  -1.337  24.339  0.00  0.00    +0.011 A 
ENDBRANCH   6   5
ENDBRANCH   8   7
TORSDOF 4
ENDMDL
MODEL 4
REMARK VINA RESULT:     -13.7      2.065      4.111
REMARK  Name = 
REMARK  4 active torsions:
REMARK  status: ('A' for Active; 'I' for Inactive)
REMARK    1  A    between atoms: C_5  and  C_6
REMARK    2  A    between atoms: C_7  and  C_8
REMARK    3  A    between atoms: C_18  and  C_20
REMARK    4  A    between atoms: C_23  and  C_26
REMARK                            x       y       z     vdW  Elec       q    Type
REMARK                         _______ _______ _______ _____ _____    ______ ____
ROOT
ATOM      8  C   UNL     1      -3.890   0.007  24.938  0.00  0.00    +0.056 A 
ATOM      9  C   UNL     1      -4.463  -0.583  25.007  0.00  0.00    +0.006 A 
ATOM     10  C   UNL     1      -4.254  -1.375  24.910  0.00  0.00    +0.013 A 
ATOM     11  C   UNL     1      -3.472  -1.577  24.744  0.00  0.00    +0.041 A 
ATOM     12  C   UNL     1      -2.942  -2.312  24.588  0.00  0.00    +0.058 C 
ATOM     13  C   UNL     1      -2.971  -3.012  24.544  0.00  0.00    +0.011 C 
ATOM     14  C   UNL     1      -2.408  -2.427  24.477  0.00  0.00    +0.043 C 
ATOM     15  C   UNL     1      -1.597  -1.876  24.359  0.00  0.00    +0.096 C 
ATOM     16  N   UNL     1      -1.926  -1.117  24.476  0.00  0.00    -0.276 N 
ATOM     17  C   UNL     1      -2.149  -1.793  24.472  0.00  0.00    +0.099 C 
ATOM     18  C   UNL     1      -1.960  -0.295  24.542  0.00  0.00    +0.249 C 
ATOM     19  O   UNL     1      -2.679   0.076  24.708  0.00  0.00    -0.270 OA
ATOM     28  C   UNL     1      -2.953  -1.654  24.638  0.00  0.00    +0.110 C 
ATOM     29  N   UNL     1      -2.899  -0.988  24.674  0.00  0.00    -0.299 N 
ATOM     30  C   UNL     1      -3.108  -0.196  24.771  0.00  0.00    +0.261 A 
ATOM     31  O   UNL     1      -2.740   0.542  24.753  0.00  0.00    -0.267 OA
ENDROOT
BRANCH  18  20
ATOM     20  C   UNL     1      -1.277   0.156  24.441  0.00  0.00    +0.054 A 
ATOM     21  C   UNL     1      -0.845   0.403  25.099  0.00  0.00    +0.005 A 
ATOM     22  C   UNL     1      -0.161   0.854  24.998  0.00  0.00    +0.010 A 
ATOM     23  C   UNL     1       0.090   1.058  24.239  0.00  0.00    +0.068 A 
ATOM     24  C   UNL     1      -0.342   0.812  23.582  0.00  0.00    +0.010 A 
ATOM     25  C   UNL     1      -1.026   0.361  23.682  0.00  0.00    +0.005 A 
BRANCH  23  26
ATOM     26  C   UNL     1       0.774   1.509  24.139  0.00  0.00    +0.100 C 
ATOM     27  N   UNL     1       1.457   1.960  24.038  0.00  0.00    -0.191 NA
ENDBRANCH  23  26
ENDBRANCH  18  20
BRANCH   8   7
ATOM      6  C   UNL     1      -4.894   1.009  25.109  0.00  0.00    +0.000 C 
ATOM      7  C   UNL     1      -4.100   0.798  25.035  0.00  0.00    +0.005 C 
BRANCH   6   5
ATOM      1 CL   UNL     1      -5.732   4.177  25.497  0.00  0.00    -0.082 Cl
ATOM      2  C   UNL     1      -5.522   3.385  25.400  0.00  0.00    +0.058 A 
ATOM      3  C   UNL     1      -5.028   3.163  24.779  0.00  0.00    +0.011 A 
ATOM      4  C   UNL     1      -4.818   2.371  24.682  0.00  0.00    +0.001 A 
ATOM      5  C   UNL     1      -5.104   1.802  25.206  0.00  0.00    +0.000 A 
ATOM     32  C   UNL     1      -5.599   2.023  25.827  0.00  0.00    +0.001 A 
ATOM     33  C   UNL     1      -5.808   2.816  25.925  0.00  0.00    +0.011 A 
ENDBRANCH   6   5
ENDBRANCH   8   7
TORSDOF 4
ENDMDL
MODEL 5
REMARK VINA RESULT:     -13.6      1.306      3.230
REMARK  Name = 
REMARK  4 active torsions:
REMARK  status: ('A' for Active; 'I' for Inactive)
REMARK    1  A    between atoms: C_5  and  C_6
REMARK    2  A    between atoms: C_7  and  C_8
REMARK    3  A    between atoms: C_18  and  C_20
REMARK    4  A    between atoms: C_23  and  C_26
REMARK                            x       y       z     vdW  Elec       q    Type
REMARK                         _______ _______ _______ _____ _____    ______ ____
ROOT
ATOM      8  C   UNL     1      -1.902   0.720  24.948  0.00  0.00    +0.056 A 
ATOM      9  C   UNL     1      -1.108   0.497  24.957  0.00  0.00    +0.006 A 
ATOM     10  C   UNL     1      -0.524   1.055  25.125  0.00  0.00    +0.013 A 
ATOM     11  C   UNL     1      -0.735   1.836  25.285  0.00  0.00    +0.041 A 
ATOM     12  C   UNL     1      -0.359   2.648  25.495  0.00  0.00    +0.058 C 
ATOM     13  C   UNL     1       0.263   2.954  25.610  0.00  0.00    +0.011 C 
ATOM     14  C   UNL     1      -0.522   3.171  25.601  0.00  0.00    +0.043 C 
ATOM     15  C   UNL     1      -1.401   3.620  25.637  0.00  0.00    +0.096 C 
ATOM     16  N   UNL     1      -1.897   2.973  25.455  0.00  0.00    -0.276 N 
ATOM     17  C   UNL     1      -1.201   3.097  25.534  0.00  0.00    +0.099 C 
ATOM     18  C   UNL     1      -2.593   2.554  25.310  0.00  0.00    +0.249 C 
ATOM     19  O   UNL     1      -2.560   1.749  25.131  0.00  0.00    -0.270 OA
ATOM     28  C   UNL     1      -0.924   2.327  25.382  0.00  0.00    +0.110 C 
ATOM     29  N   UNL     1      -1.529   2.059  25.277  0.00  0.00    -0.299 N 
ATOM     30  C   UNL     1      -2.113   1.501  25.109  0.00  0.00    +0.261 A 
ATOM     31  O   UNL     1      -2.934   1.475  25.042  0.00  0.00    -0.267 OA
ENDROOT
BRANCH  18  20
ATOM     20  C   UNL     1      -3.321   2.939  25.343  0.00  0.00    +0.054 A 
ATOM     21  C   UNL     1      -3.661   3.240  24.654  0.00  0.00    +0.005 A 
ATOM     22  C   UNL     1      -4.390   3.626  24.687  0.00  0.00    +0.010 A 
ATOM     23  C   UNL     1      -4.779   3.711  25.410  0.00  0.00    +0.068 A 
ATOM     24  C   UNL     1      -4.440   3.410  26.099  0.00  0.00    +0.010 A 
ATOM     25  C   UNL     1      -3.711   3.024  26.065  0.00  0.00    +0.005 A 
BRANCH  23  26
ATOM     26  C   UNL     1      -5.508   4.097  25.443  0.00  0.00    +0.100 C 
ATOM     27  N   UNL     1      -6.236   4.482  25.476  0.00  0.00    -0.191 NA
ENDBRANCH  23  26
ENDBRANCH  18  20
BRANCH   8   7
ATOM      6  C   UNL     1      -2.274  -0.620  24.624  0.00  0.00    +0.000 C 
ATOM      7  C   UNL     1      -2.485   0.162  24.780  0.00  0.00    +0.005 C 
BRANCH   6   5
ATOM      1 CL   UNL     1      -4.608  -2.854  23.950  0.00  0.00    -0.082 Cl
ATOM      2  C   UNL     1      -4.025  -2.296  24.119  0.00  0.00    +0.058 A 
ATOM      3  C   UNL     1      -4.044  -1.557  23.753  0.00  0.00    +0.011 A 
ATOM      4  C   UNL     1      -3.460  -0.999  23.921  0.00  0.00    +0.001 A 
ATOM      5  C   UNL     1      -2.858  -1.179  24.456  0.00  0.00    +0.000 A 
ATOM     32  C   UNL     1      -2.839  -1.918  24.822  0.00  0.00    +0.001 A 
ATOM     33  C   UNL     1      -3.423  -2.477  24.654  0.00  0.00    +0.011 A 
ENDBRANCH   6   5
ENDBRANCH   8   7
TORSDOF 4
ENDMDL
MODEL 6
REMARK VINA RESULT:     -13.6      1.737      4.155
REMARK  Name = 
REMARK  4 active torsions:
REMARK  status: ('A' for Active; 'I' for Inactive)
REMARK    1  A    between atoms: C_5  and  C_6
REMARK    2  A    between atoms: C_7  and  C_8
REMARK    3  A    between atoms: C_18  and  C_20
REMARK    4  A    between atoms: C_23  and  C_26
REMARK                            x       y       z     vdW  Elec       q    Type
REMARK                         _______ _______ _______ _____ _____    ______ ____
ROOT
ATOM      8  C   UNL     1      -3.130   2.405  24.858  0.00  0.00    +0.056 A 
ATOM      9  C   UNL     1      -3.389   3.169  25.029  0.00  0.00    +0.006 A 
ATOM     10  C   UNL     1      -4.175   3.300  25.243  0.00  0.00    +0.013 A 
ATOM     11  C   UNL     1      -4.702   2.667  25.284  0.00  0.00    +0.041 A 
ATOM     12  C   UNL     1      -5.581   2.483  25.476  0.00  0.00    +0.058 C 
ATOM     13  C   UNL     1      -6.180   2.794  25.668  0.00  0.00    +0.011 C 
ATOM     14  C   UNL     1      -5.921   2.041  25.498  0.00  0.00    +0.043 C 
ATOM     15  C   UNL     1      -5.802   1.074  25.332  0.00  0.00    +0.096 C 
ATOM     16  N   UNL     1      -4.991   1.065  25.130  0.00  0.00    -0.276 N 
ATOM     17  C   UNL     1      -5.482   1.546  25.319  0.00  0.00    +0.099 C 
ATOM     18  C   UNL     1      -4.257   0.762  24.906  0.00  0.00    +0.249 C 
ATOM     19  O   UNL     1      -3.611   1.269  24.817  0.00  0.00    -0.270 OA
ATOM     28  C   UNL     1      -5.001   2.224  25.296  0.00  0.00    +0.110 C 
ATOM     29  N   UNL     1      -4.443   1.903  25.112  0.00  0.00    -0.299 N 
ATOM     30  C   UNL     1      -3.657   1.772  24.899  0.00  0.00    +0.261 A 
ATOM     31  O   UNL     1      -3.177   1.134  24.691  0.00  0.00    -0.267 OA
ENDROOT
BRANCH  18  20
ATOM     20  C   UNL     1      -4.169  -0.046  24.770  0.00  0.00    +0.054 A 
ATOM     21  C   UNL     1      -3.918  -0.542  25.380  0.00  0.00    +0.005 A 
ATOM     22  C   UNL     1      -3.830  -1.352  25.244  0.00  0.00    +0.010 A 
ATOM     23  C   UNL     1      -3.993  -1.664  24.498  0.00  0.00    +0.068 A 
ATOM     24  C   UNL     1      -4.243  -1.169  23.889  0.00  0.00    +0.010 A 
ATOM     25  C   UNL     1      -4.332  -0.360  24.024  0.00  0.00    +0.005 A 
BRANCH  23  26
ATOM     26  C   UNL     1      -3.905  -2.474  24.363  0.00  0.00    +0.100 C 
ATOM     27  N   UNL     1      -3.817  -3.282  24.227  0.00  0.00    -0.191 NA
ENDBRANCH  23  26
ENDBRANCH  18  20
BRANCH   8   7
ATOM      6  C   UNL     1      -1.747   2.749  24.959  0.00  0.00    +0.000 C 
ATOM      7  C   UNL     1      -2.344   2.274  24.645  0.00  0.00    +0.005 C 
BRANCH   6   5
ATOM      1 CL   UNL     1       1.398   2.225  24.105  0.00  0.00    -0.082 Cl
ATOM      2  C   UNL     1       0.612   2.357  24.318  0.00  0.00    +0.058 A 
ATOM      3  C   UNL     1       0.154   2.894  23.894  0.00  0.00    +0.011 A 
ATOM      4  C   UNL     1      -0.632   3.025  24.107  0.00  0.00    +0.001 A 
ATOM      5  C   UNL     1      -0.960   2.618  24.745  0.00  0.00    +0.000 A 
ATOM     32  C   UNL     1      -0.502   2.080  25.171  0.00  0.00    +0.001 A 
ATOM     33  C   UNL     1       0.285   1.949  24.957  0.00  0.00    +0.011 A 
ENDBRANCH   6   5
ENDBRANCH   8   7
TORSDOF 4
ENDMDL
