MODEL 1
REMARK VINA RESULT:     -10.0      0.000      0.000
REMARK  Name = 
REMARK  7 active torsions:
REMARK  status: ('A' for Active; 'I' for Inactive)
REMARK    1  A    between atoms: C_2  and  N_4
REMARK    2  A    between atoms: C_5  and  C_7
REMARK    3  A    between atoms: C_7  and  C_8
REMARK    4  A    between atoms: C_10  and  C_11
REMARK    5  A    between atoms: C_11  and  N_12
REMARK    6  A    between atoms: N_12  and  C_13
REMARK    7  A    between atoms: C_13  and  C_14
REMARK                            x       y       z     vdW  Elec       q    Type
REMARK                         _______ _______ _______ _____ _____    ______ ____
ROOT
ATOM      8  C   UNL     1      -4.375   3.024  25.486  0.00  0.00    +0.157 C 
ATOM      9  O   UNL     1      -4.104   2.351  25.095  0.00  0.00    -0.351 OA
ATOM     10  C   UNL     1      -4.759   1.887  24.903  0.00  0.00    +0.165 C 
ATOM     20  C   UNL     1      -5.435   2.275  25.174  0.00  0.00    +0.213 C 
ATOM     21  O   UNL     1      -6.211   2.007  25.099  0.00  0.00    -0.218 OA
ATOM     22  C   UNL     1      -5.197   2.978  25.535  0.00  0.00    +0.212 C 
ATOM     23  O   UNL     1      -5.694   3.536  25.883  0.00  0.00    -0.218 OA
ENDROOT
BRANCH   8   7
ATOM      7  C   UNL     1      -3.905   3.638  25.776  0.00  0.00    +0.119 C 
BRANCH   7   5
ATOM      4  N   UNL     1      -2.503   3.898  25.861  0.00  0.00    -0.207 NA
ATOM      5  C   UNL     1      -3.189   3.818  25.409  0.00  0.00    +0.244 C 
ATOM      6  O   UNL     1      -3.158   3.917  24.591  0.00  0.00    -0.273 OA
BRANCH   4   2
ATOM      1  C   UNL     1      -1.224   3.485  25.375  0.00  0.00    +0.023 C 
ATOM      2  C   UNL     1      -1.786   4.078  25.494  0.00  0.00    +0.095 C 
ATOM      3  C   UNL     1      -1.631   4.849  25.246  0.00  0.00    +0.023 C 
ENDBRANCH   4   2
ENDBRANCH   7   5
ENDBRANCH   8   7
BRANCH  10  11
ATOM     11  C   UNL     1      -4.741   1.163  24.508  0.00  0.00    +0.121 C 
BRANCH  11  12
ATOM     12  N   UNL     1      -4.235   0.565  24.764  0.00  0.00    -0.209 NA
BRANCH  12  13
ATOM     13  C   UNL     1      -3.947   0.009  24.227  0.00  0.00    +0.134 C 
BRANCH  13  14
ATOM     14  C   UNL     1      -3.797  -0.764  24.473  0.00  0.00    +0.077 A 
ATOM     15  N   UNL     1      -3.376  -0.901  25.170  0.00  0.00    -0.247 NA
ATOM     16  C   UNL     1      -3.226  -1.674  25.415  0.00  0.00    +0.098 A 
ATOM     17  C   UNL     1      -3.495  -2.310  24.966  0.00  0.00    +0.021 A 
ATOM     18  C   UNL     1      -3.916  -2.174  24.269  0.00  0.00    +0.003 A 
ATOM     19  C   UNL     1      -4.067  -1.400  24.023  0.00  0.00    +0.016 A 
ENDBRANCH  13  14
ENDBRANCH  12  13
ENDBRANCH  11  12
ENDBRANCH  10  11
TORSDOF 7
ENDMDL
MODEL 2
REMARK VINA RESULT:      -9.5      0.799      4.397
REMARK  Name = 
REMARK  7 active torsions:
REMARK  status: ('A' for Active; 'I' for Inactive)
REMARK    1  A    between atoms: C_2  and  N_4
REMARK    2  A    between atoms: C_5  and  C_7
REMARK    3  A    between atoms: C_7  and  C_8
REMARK    4  A    between atoms: C_10  and  C_11
REMARK    5  A    between atoms: C_11  and  N_12
REMARK    6  A    between atoms: N_12  and  C_13
REMARK    7  A    between atoms: C_13  and  C_14
REMARK                            x       y       z     vdW  Elec       q    Type
REMARK                         _______ _______ _______ _____ _____    ______ ____
ROOT
ATOM      8  C   UNL     1      -4.987   1.707  24.972  0.00  0.00    +0.157 C 
ATOM      9  O   UNL     1      -4.313   2.126  25.193  0.00  0.00    -0.351 OA
ATOM     10  C   UNL     1      -4.555   2.840  25.529  0.00  0.00    +0.165 C 
ATOM     20  C   UNL     1      -5.379   2.862  25.514  0.00  0.00    +0.213 C 
ATOM     21  O   UNL     1      -5.853   3.476  25.794  0.00  0.00    -0.218 OA
ATOM     22  C   UNL     1      -5.646   2.161  25.170  0.00  0.00    +0.212 C 
ATOM     23  O   UNL     1      -6.435   1.952  25.045  0.00  0.00    -0.218 OA
ENDROOT
BRANCH   8   7
ATOM      7  C   UNL     1      -5.001   0.963  24.614  0.00  0.00    +0.119 C 
BRANCH   7   5
ATOM      4  N   UNL     1      -4.385  -0.252  25.048  0.00  0.00    -0.207 NA
ATOM      5  C   UNL     1      -4.338   0.474  24.657  0.00  0.00    +0.244 C 
ATOM      6  O   UNL     1      -3.628   0.709  24.309  0.00  0.00    -0.273 OA
BRANCH   4   2
ATOM      1  C   UNL     1      -3.492  -1.181  24.432  0.00  0.00    +0.023 C 
ATOM      2  C   UNL     1      -3.723  -0.741  25.091  0.00  0.00    +0.095 C 
ATOM      3  C   UNL     1      -3.291  -0.790  25.792  0.00  0.00    +0.023 C 
ENDBRANCH   4   2
ENDBRANCH   7   5
ENDBRANCH   8   7
BRANCH  10  11
ATOM     11  C   UNL     1      -4.059   3.429  25.827  0.00  0.00    +0.121 C 
BRANCH  11  12
ATOM     12  N   UNL     1      -3.287   3.500  25.546  0.00  0.00    -0.209 NA
BRANCH  12  13
ATOM     13  C   UNL     1      -2.751   3.993  25.932  0.00  0.00    +0.134 C 
BRANCH  13  14
ATOM     14  C   UNL     1      -2.022   4.162  25.586  0.00  0.00    +0.077 A 
ATOM     15  N   UNL     1      -1.445   3.574  25.529  0.00  0.00    -0.247 NA
ATOM     16  C   UNL     1      -0.716   3.744  25.182  0.00  0.00    +0.098 A 
ATOM     17  C   UNL     1      -0.563   4.501  24.894  0.00  0.00    +0.021 A 
ATOM     18  C   UNL     1      -1.138   5.089  24.951  0.00  0.00    +0.003 A 
ATOM     19  C   UNL     1      -1.868   4.919  25.297  0.00  0.00    +0.016 A 
ENDBRANCH  13  14
ENDBRANCH  12  13
ENDBRANCH  11  12
ENDBRANCH  10  11
TORSDOF 7
ENDMDL
MODEL 3
REMARK VINA RESULT:      -9.1      2.226      5.010
REMARK  Name = 
REMARK  7 active torsions:
REMARK  status: ('A' for Active; 'I' for Inactive)
REMARK    1  A    between atoms: C_2  and  N_4
REMARK    2  A    between atoms: C_5  and  C_7
REMARK    3  A    between atoms: C_7  and  C_8
REMARK    4  A    between atoms: C_10  and  C_11
REMARK    5  A    between atoms: C_11  and  N_12
REMARK    6  A    between atoms: N_12  and  C_13
REMARK    7  A    between atoms: C_13  and  C_14
REMARK                            x       y       z     vdW  Elec       q    Type
REMARK                         _______ _______ _______ _____ _____    ______ ____
ROOT
ATOM      8  C   UNL     1      -1.499  -0.305  24.635  0.00  0.00    +0.157 C 
ATOM      9  O   UNL     1      -2.086   0.273  24.665  0.00  0.00    -0.351 OA
ATOM     10  C   UNL     1      -1.752   0.987  24.422  0.00  0.00    +0.165 C 
ATOM     20  C   UNL     1      -0.959   0.851  24.242  0.00  0.00    +0.213 C 
ATOM     21  O   UNL     1      -0.418   1.413  23.977  0.00  0.00    -0.218 OA
ATOM     22  C   UNL     1      -0.803   0.051  24.374  0.00  0.00    +0.212 C 
ATOM     23  O   UNL     1      -0.077  -0.325  24.263  0.00  0.00    -0.218 OA
ENDROOT
BRANCH   8   7
ATOM      7  C   UNL     1      -1.592  -1.101  24.832  0.00  0.00    +0.119 C 
BRANCH   7   5
ATOM      4  N   UNL     1      -2.652  -1.916  24.328  0.00  0.00    -0.207 NA
ATOM      5  C   UNL     1      -2.349  -1.419  24.914  0.00  0.00    +0.244 C 
ATOM      6  O   UNL     1      -2.802  -1.241  25.579  0.00  0.00    -0.273 OA
BRANCH   4   2
ATOM      1  C   UNL     1      -3.525  -2.909  24.872  0.00  0.00    +0.023 C 
ATOM      2  C   UNL     1      -3.409  -2.234  24.410  0.00  0.00    +0.095 C 
ATOM      3  C   UNL     1      -4.049  -1.880  24.030  0.00  0.00    +0.023 C 
ENDBRANCH   4   2
ENDBRANCH   7   5
ENDBRANCH   8   7
BRANCH  10  11
ATOM     11  C   UNL     1      -2.143   1.712  24.369  0.00  0.00    +0.121 C 
BRANCH  11  12
ATOM     12  N   UNL     1      -2.921   1.783  24.635  0.00  0.00    -0.209 NA
BRANCH  12  13
ATOM     13  C   UNL     1      -3.357   2.460  24.459  0.00  0.00    +0.134 C 
BRANCH  13  14
ATOM     14  C   UNL     1      -4.099   2.573  24.801  0.00  0.00    +0.077 A 
ATOM     15  N   UNL     1      -4.202   3.151  25.382  0.00  0.00    -0.247 NA
ATOM     16  C   UNL     1      -4.944   3.263  25.724  0.00  0.00    +0.098 A 
ATOM     17  C   UNL     1      -5.583   2.800  25.487  0.00  0.00    +0.021 A 
ATOM     18  C   UNL     1      -5.481   2.223  24.907  0.00  0.00    +0.003 A 
ATOM     19  C   UNL     1      -4.739   2.110  24.564  0.00  0.00    +0.016 A 
ENDBRANCH  13  14
ENDBRANCH  12  13
ENDBRANCH  11  12
ENDBRANCH  10  11
TORSDOF 7
ENDMDL
MODEL 4
REMARK VINA RESULT:      -8.9      1.555      2.975
REMARK  Name = 
REMARK  7 active torsions:
REMARK  status: ('A' for Active; 'I' for Inactive)
REMARK    1  A    between atoms: C_2  and  N_4
REMARK    2  A    between atoms: C_5  and  C_7
REMARK    3  A    between atoms: C_7  and  C_8
REMARK    4  A    between atoms: C_10  and  C_11
REMARK    5  A    between atoms: C_11  and  N_12
REMARK    6  A    between atoms: N_12  and  C_13
REMARK    7  A    between atoms: C_13  and  C_14
REMARK                            x       y       z     vdW  Elec       q    Type
REMARK                         _______ _______ _______ _____ _____    ______ ____
ROOT
ATOM      8  C   UNL     1      -2.352   2.678  24.774  0.00  0.00    +0.157 C 
ATOM      9  O   UNL     1      -2.407   1.879  24.969  0.00  0.00    -0.351 OA
ATOM     10  C   UNL     1      -1.641   1.586  25.059  0.00  0.00    +0.165 C 
ATOM     20  C   UNL     1      -1.113   2.205  24.919  0.00  0.00    +0.213 C 
ATOM     21  O   UNL     1      -0.290   2.157  24.950  0.00  0.00    -0.218 OA
ATOM     22  C   UNL     1      -1.553   2.880  24.744  0.00  0.00    +0.212 C 
ATOM     23  O   UNL     1      -1.247   3.626  24.568  0.00  0.00    -0.218 OA
ENDROOT
BRANCH   8   7
ATOM      7  C   UNL     1      -2.987   3.188  24.635  0.00  0.00    +0.119 C 
BRANCH   7   5
ATOM      4  N   UNL     1      -4.388   2.908  24.652  0.00  0.00    -0.207 NA
ATOM      5  C   UNL     1      -3.691   3.093  25.054  0.00  0.00    +0.244 C 
ATOM      6  O   UNL     1      -3.698   3.183  25.874  0.00  0.00    -0.273 OA
BRANCH   4   2
ATOM      1  C   UNL     1      -5.458   2.074  25.101  0.00  0.00    +0.023 C 
ATOM      2  C   UNL     1      -5.092   2.813  25.072  0.00  0.00    +0.095 C 
ATOM      3  C   UNL     1      -5.430   3.457  25.462  0.00  0.00    +0.023 C 
ENDBRANCH   4   2
ENDBRANCH   7   5
ENDBRANCH   8   7
BRANCH  10  11
ATOM     11  C   UNL     1      -1.438   0.810  25.254  0.00  0.00    +0.121 C 
BRANCH  11  12
ATOM     12  N   UNL     1      -1.978   0.199  25.134  0.00  0.00    -0.209 NA
BRANCH  12  13
ATOM     13  C   UNL     1      -1.826  -0.552  25.437  0.00  0.00    +0.134 C 
BRANCH  13  14
ATOM     14  C   UNL     1      -2.303  -1.189  25.222  0.00  0.00    +0.077 A 
ATOM     15  N   UNL     1      -2.036  -1.735  24.663  0.00  0.00    -0.247 NA
ATOM     16  C   UNL     1      -2.515  -2.372  24.448  0.00  0.00    +0.098 A 
ATOM     17  C   UNL     1      -3.259  -2.463  24.790  0.00  0.00    +0.021 A 
ATOM     18  C   UNL     1      -3.527  -1.918  25.348  0.00  0.00    +0.003 A 
ATOM     19  C   UNL     1      -3.049  -1.281  25.564  0.00  0.00    +0.016 A 
ENDBRANCH  13  14
ENDBRANCH  12  13
ENDBRANCH  11  12
ENDBRANCH  10  11
TORSDOF 7
ENDMDL
