MODEL 1
REMARK VINA RESULT:     -12.6      0.000      0.000
REMARK  Name = 
REMARK  6 active torsions:
REMARK  status: ('A' for Active; 'I' for Inactive)
REMARK    1  A    between atoms: O_2  and  C_3
REMARK    2  A    between atoms: C_9  and  C_10
REMARK    3  A    between atoms: C_10  and  C_11
REMARK    4  A    between atoms: C_16  and  C_17
REMARK    5  A    between atoms: C_17  and  C_18
REMARK    6  A    between atoms: N_23  and  C_24
REMARK                            x       y       z     vdW  Elec       q    Type
REMARK                         _______ _______ _______ _____ _____    ______ ____
ROOT
ATOM     11  C   UNL     1      -1.656   1.510  24.880  0.00  0.00    +0.026 C 
ATOM     12  C   UNL     1      -2.047   0.789  24.794  0.00  0.00    +0.095 C 
ATOM     13  N   UNL     1      -1.614   0.093  24.701  0.00  0.00    -0.263 N 
ATOM     14  C   UNL     1      -0.789   0.119  24.694  0.00  0.00    +0.095 C 
ATOM     15  C   UNL     1      -0.398   0.839  24.779  0.00  0.00    +0.022 C 
ATOM     16  C   UNL     1      -0.831   1.535  24.873  0.00  0.00    +0.015 C 
ATOM     21  C   UNL     1      -2.005  -0.628  24.615  0.00  0.00    +0.327 C 
ATOM     22  O   UNL     1      -1.572  -1.324  24.522  0.00  0.00    -0.250 OA
ATOM     23  N   UNL     1      -2.830  -0.653  24.622  0.00  0.00    -0.162 NA
ENDROOT
BRANCH  23  24
ATOM     24  C   UNL     1      -3.221  -1.374  24.537  0.00  0.00    +0.075 A 
ATOM     25  C   UNL     1      -3.114  -1.971  25.095  0.00  0.00    +0.017 A 
ATOM     26  C   UNL     1      -3.506  -2.692  25.009  0.00  0.00    +0.001 A 
ATOM     27  C   UNL     1      -4.005  -2.817  24.365  0.00  0.00    +0.000 A 
ATOM     28  C   UNL     1      -4.112  -2.220  23.805  0.00  0.00    +0.001 A 
ATOM     29  C   UNL     1      -3.721  -1.499  23.891  0.00  0.00    +0.017 A 
ENDBRANCH  23  24
BRANCH  11  10
ATOM     10  C   UNL     1      -2.089   2.206  24.973  0.00  0.00    +0.047 C 
BRANCH  10   9
ATOM      3  C   UNL     1      -4.794   3.425  25.199  0.00  0.00    +0.138 A 
ATOM      4  C   UNL     1      -4.671   3.284  24.395  0.00  0.00    +0.033 A 
ATOM      5  C   UNL     1      -3.965   2.944  24.137  0.00  0.00    -0.016 A 
ATOM      6  C   UNL     1      -3.379   2.744  24.684  0.00  0.00    +0.009 A 
ATOM      7  C   UNL     1      -3.502   2.885  25.488  0.00  0.00    +0.004 A 
ATOM      8  C   UNL     1      -4.208   3.225  25.746  0.00  0.00    +0.037 A 
ATOM      9  C   UNL     1      -2.674   2.405  24.427  0.00  0.00    +0.053 C 
ATOM     30  N   UNL     1      -2.552   2.264  23.624  0.00  0.00    -0.274 NA
ATOM     31  C   UNL     1      -3.138   2.464  23.076  0.00  0.00    +0.130 C 
ATOM     32  C   UNL     1      -3.844   2.803  23.334  0.00  0.00    +0.053 C 
BRANCH   3   2
ATOM      1  C   UNL     1      -6.074   3.297  25.817  0.00  0.00    +0.252 C 
ATOM      2  O   UNL     1      -5.499   3.764  25.456  0.00  0.00    -0.471 OA
ENDBRANCH   3   2
ENDBRANCH  10   9
ENDBRANCH  11  10
BRANCH  16  17
ATOM     17  C   UNL     1      -0.439   2.256  24.959  0.00  0.00    +0.114 C 
BRANCH  17  18
ATOM     18  C   UNL     1       0.367   2.269  25.129  0.00  0.00    +0.365 C 
ATOM     19  O   UNL     1       0.623   2.357  25.909  0.00  0.00    -0.246 OA
ATOM     20  O   UNL     1       0.919   2.195  24.519  0.00  0.00    -0.246 OA
ENDBRANCH  17  18
ENDBRANCH  16  17
TORSDOF 6
ENDMDL
MODEL 2
REMARK VINA RESULT:     -12.1      1.230      3.602
REMARK  Name = 
REMARK  6 active torsions:
REMARK  status: ('A' for Active; 'I' for Inactive)
REMARK    1  A    between atoms: O_2  and  C_3
REMARK    2  A    between atoms: C_9  and  C_10
REMARK    3  A    between atoms: C_10  and  C_11
REMARK    4  A    between atoms: C_16  and  C_17
REMARK    5  A    between atoms: C_17  and  C_18
REMARK    6  A    between atoms: N_23  and  C_24
REMARK                            x       y       z     vdW  Elec       q    Type
REMARK                         _______ _______ _______ _____ _____    ______ ____
ROOT
ATOM     11  C   UNL     1      -3.876   2.245  25.033  0.00  0.00    +0.026 C 
ATOM     12  C   UNL     1      -3.839   1.428  24.937  0.00  0.00    +0.095 C 
ATOM     13  N   UNL     1      -4.535   0.988  24.866  0.00  0.00    -0.263 N 
ATOM     14  C   UNL     1      -5.266   1.369  24.892  0.00  0.00    +0.095 C 
ATOM     15  C   UNL     1      -5.303   2.186  24.989  0.00  0.00    +0.022 C 
ATOM     16  C   UNL     1      -4.608   2.625  25.059  0.00  0.00    +0.015 C 
ATOM     21  C   UNL     1      -4.498   0.170  24.769  0.00  0.00    +0.327 C 
ATOM     22  O   UNL     1      -5.193  -0.268  24.699  0.00  0.00    -0.250 OA
ATOM     23  N   UNL     1      -3.766  -0.209  24.743  0.00  0.00    -0.162 NA
ENDROOT
BRANCH  23  24
ATOM     24  C   UNL     1      -3.729  -1.028  24.647  0.00  0.00    +0.075 A 
ATOM     25  C   UNL     1      -3.964  -1.370  23.934  0.00  0.00    +0.017 A 
ATOM     26  C   UNL     1      -3.927  -2.189  23.837  0.00  0.00    +0.001 A 
ATOM     27  C   UNL     1      -3.655  -2.666  24.453  0.00  0.00    +0.000 A 
ATOM     28  C   UNL     1      -3.420  -2.323  25.167  0.00  0.00    +0.001 A 
ATOM     29  C   UNL     1      -3.457  -1.505  25.263  0.00  0.00    +0.017 A 
ENDBRANCH  23  24
BRANCH  11  10
ATOM     10  C   UNL     1      -3.181   2.684  25.104  0.00  0.00    +0.047 C 
BRANCH  10   9
ATOM      3  C   UNL     1      -0.247   2.477  25.549  0.00  0.00    +0.138 A 
ATOM      4  C   UNL     1      -0.368   2.330  24.746  0.00  0.00    +0.033 A 
ATOM      5  C   UNL     1      -1.132   2.345  24.434  0.00  0.00    -0.016 A 
ATOM      6  C   UNL     1      -1.775   2.507  24.925  0.00  0.00    +0.009 A 
ATOM      7  C   UNL     1      -1.654   2.655  25.728  0.00  0.00    +0.004 A 
ATOM      8  C   UNL     1      -0.891   2.640  26.041  0.00  0.00    +0.037 A 
ATOM      9  C   UNL     1      -2.538   2.522  24.613  0.00  0.00    +0.053 C 
ATOM     30  N   UNL     1      -2.659   2.374  23.811  0.00  0.00    -0.274 NA
ATOM     31  C   UNL     1      -2.015   2.212  23.320  0.00  0.00    +0.130 C 
ATOM     32  C   UNL     1      -1.252   2.197  23.632  0.00  0.00    +0.053 C 
BRANCH   3   2
ATOM      1  C   UNL     1       0.634   2.583  26.668  0.00  0.00    +0.252 C 
ATOM      2  O   UNL     1       0.516   2.463  25.861  0.00  0.00    -0.471 OA
ENDBRANCH   3   2
ENDBRANCH  10   9
ENDBRANCH  11  10
BRANCH  16  17
ATOM     17  C   UNL     1      -4.645   3.444  25.156  0.00  0.00    +0.114 C 
BRANCH  17  18
ATOM     18  C   UNL     1      -5.257   3.780  25.594  0.00  0.00    +0.365 C 
ATOM     19  O   UNL     1      -5.273   3.695  26.415  0.00  0.00    -0.246 OA
ATOM     20  O   UNL     1      -5.855   4.202  25.212  0.00  0.00    -0.246 OA
ENDBRANCH  17  18
ENDBRANCH  16  17
TORSDOF 6
ENDMDL
MODEL 3
REMARK VINA RESULT:     -11.2      1.323      3.717
REMARK  Name = 
REMARK  6 active torsions:
REMARK  status: ('A' for Active; 'I' for Inactive)
REMARK    1  A    between atoms: O_2  and  C_3
REMARK    2  A    between atoms: C_9  and  C_10
REMARK    3  A    between atoms: C_10  and  C_11
REMARK    4  A    between atoms: C_16  and  C_17
REMARK    5  A    between atoms: C_17  and  C_18
REMARK    6  A    between atoms: N_23  and  C_24
REMARK                            x       y       z     vdW  Elec       q    Type
REMARK                         _______ _______ _______ _____ _____    ______ ____
ROOT
ATOM     11  C   UNL     1      -3.207  -0.294  24.835  0.00  0.00    +0.026 C 
ATOM     12  C   UNL     1      -2.577   0.204  25.020  0.00  0.00    +0.095 C 
ATOM     13  N   UNL     1      -1.838  -0.116  25.204  0.00  0.00    -0.263 N 
ATOM     14  C   UNL     1      -1.731  -0.934  25.202  0.00  0.00    +0.095 C 
ATOM     15  C   UNL     1      -2.361  -1.432  25.016  0.00  0.00    +0.022 C 
ATOM     16  C   UNL     1      -3.099  -1.113  24.832  0.00  0.00    +0.015 C 
ATOM     21  C   UNL     1      -1.208   0.383  25.390  0.00  0.00    +0.327 C 
ATOM     22  O   UNL     1      -0.470   0.064  25.574  0.00  0.00    -0.250 OA
ATOM     23  N   UNL     1      -1.316   1.201  25.392  0.00  0.00    -0.162 NA
ENDROOT
BRANCH  23  24
ATOM     24  C   UNL     1      -0.686   1.700  25.578  0.00  0.00    +0.075 A 
ATOM     25  C   UNL     1      -0.170   1.952  24.986  0.00  0.00    +0.017 A 
ATOM     26  C   UNL     1       0.460   2.450  25.172  0.00  0.00    +0.001 A 
ATOM     27  C   UNL     1       0.576   2.698  25.950  0.00  0.00    +0.000 A 
ATOM     28  C   UNL     1       0.059   2.446  26.543  0.00  0.00    +0.001 A 
ATOM     29  C   UNL     1      -0.571   1.947  26.357  0.00  0.00    +0.017 A 
ENDBRANCH  23  24
BRANCH  11  10
ATOM     10  C   UNL     1      -3.945   0.024  24.651  0.00  0.00    +0.047 C 
BRANCH  10   9
ATOM      3  C   UNL     1      -5.456   2.528  25.197  0.00  0.00    +0.138 A 
ATOM      4  C   UNL     1      -5.021   2.668  24.510  0.00  0.00    +0.033 A 
ATOM      5  C   UNL     1      -4.534   2.078  24.201  0.00  0.00    -0.016 A 
ATOM      6  C   UNL     1      -4.483   1.345  24.580  0.00  0.00    +0.009 A 
ATOM      7  C   UNL     1      -4.918   1.206  25.267  0.00  0.00    +0.004 A 
ATOM      8  C   UNL     1      -5.404   1.796  25.576  0.00  0.00    +0.037 A 
ATOM      9  C   UNL     1      -3.997   0.755  24.272  0.00  0.00    +0.053 C 
ATOM     30  N   UNL     1      -3.562   0.895  23.586  0.00  0.00    -0.274 NA
ATOM     31  C   UNL     1      -3.614   1.628  23.206  0.00  0.00    +0.130 C 
ATOM     32  C   UNL     1      -4.100   2.218  23.515  0.00  0.00    +0.053 C 
BRANCH   3   2
ATOM      1  C   UNL     1      -5.625   3.854  25.699  0.00  0.00    +0.252 C 
ATOM      2  O   UNL     1      -5.942   3.118  25.506  0.00  0.00    -0.471 OA
ENDBRANCH   3   2
ENDBRANCH  10   9
ENDBRANCH  11  10
BRANCH  16  17
ATOM     17  C   UNL     1      -3.729  -1.612  24.646  0.00  0.00    +0.114 C 
BRANCH  17  18
ATOM     18  C   UNL     1      -3.621  -2.429  24.644  0.00  0.00    +0.365 C 
ATOM     19  O   UNL     1      -3.620  -2.848  25.355  0.00  0.00    -0.246 OA
ATOM     20  O   UNL     1      -3.514  -2.829  23.929  0.00  0.00    -0.246 OA
ENDBRANCH  17  18
ENDBRANCH  16  17
TORSDOF 6
ENDMDL
MODEL 4
REMARK VINA RESULT:     -11.0      1.499      5.126
REMARK  Name = 
REMARK  6 active torsions:
REMARK  status: ('A' for Active; 'I' for Inactive)
REMARK    1  A    between atoms: O_2  and  C_3
REMARK    2  A    between atoms: C_9  and  C_10
REMARK    3  A    between atoms: C_10  and  C_11
REMARK    4  A    between atoms: C_16  and  C_17
REMARK    5  A    between atoms: C_17  and  C_18
REMARK    6  A    between atoms: N_23  and  C_24
REMARK                            x       y       z     vdW  Elec       q    Type
REMARK                         _______ _______ _______ _____ _____    ______ ____
ROOT
ATOM     11  C   UNL     1      -4.266   0.993  24.862  0.00  0.00    +0.026 C 
ATOM     12  C   UNL     1      -3.479   1.237  24.844  0.00  0.00    +0.095 C 
ATOM     13  N   UNL     1      -3.291   2.032  24.964  0.00  0.00    -0.263 N 
ATOM     14  C   UNL     1      -3.892   2.581  25.102  0.00  0.00    +0.095 C 
ATOM     15  C   UNL     1      -4.678   2.336  25.120  0.00  0.00    +0.022 C 
ATOM     16  C   UNL     1      -4.866   1.542  25.000  0.00  0.00    +0.015 C 
ATOM     21  C   UNL     1      -2.504   2.277  24.947  0.00  0.00    +0.327 C 
ATOM     22  O   UNL     1      -2.316   3.071  25.067  0.00  0.00    -0.250 OA
ATOM     23  N   UNL     1      -1.904   1.728  24.808  0.00  0.00    -0.162 NA
ENDROOT
BRANCH  23  24
ATOM     24  C   UNL     1      -1.117   1.973  24.790  0.00  0.00    +0.075 A 
ATOM     25  C   UNL     1      -0.767   2.188  24.075  0.00  0.00    +0.017 A 
ATOM     26  C   UNL     1       0.021   2.433  24.057  0.00  0.00    +0.001 A 
ATOM     27  C   UNL     1       0.459   2.463  24.755  0.00  0.00    +0.000 A 
ATOM     28  C   UNL     1       0.110   2.248  25.471  0.00  0.00    +0.001 A 
ATOM     29  C   UNL     1      -0.678   2.003  25.489  0.00  0.00    +0.017 A 
ENDBRANCH  23  24
BRANCH  11  10
ATOM     10  C   UNL     1      -4.454   0.199  24.742  0.00  0.00    +0.047 C 
BRANCH  10   9
ATOM      3  C   UNL     1      -3.683  -2.616  24.163  0.00  0.00    +0.138 A 
ATOM      4  C   UNL     1      -3.421  -2.459  24.930  0.00  0.00    +0.033 A 
ATOM      5  C   UNL     1      -3.549  -1.717  25.267  0.00  0.00    -0.016 A 
ATOM      6  C   UNL     1      -3.938  -1.130  24.836  0.00  0.00    +0.009 A 
ATOM      7  C   UNL     1      -4.199  -1.286  24.069  0.00  0.00    +0.004 A 
ATOM      8  C   UNL     1      -4.072  -2.029  23.732  0.00  0.00    +0.037 A 
ATOM      9  C   UNL     1      -4.065  -0.388  25.172  0.00  0.00    +0.053 C 
ATOM     30  N   UNL     1      -3.804  -0.232  25.938  0.00  0.00    -0.274 NA
ATOM     31  C   UNL     1      -3.415  -0.819  26.370  0.00  0.00    +0.130 C 
ATOM     32  C   UNL     1      -3.288  -1.561  26.034  0.00  0.00    +0.053 C 
BRANCH   3   2
ATOM      1  C   UNL     1      -2.792  -3.592  23.621  0.00  0.00    +0.252 C 
ATOM      2  O   UNL     1      -3.555  -3.358  23.827  0.00  0.00    -0.471 OA
ENDBRANCH   3   2
ENDBRANCH  10   9
ENDBRANCH  11  10
BRANCH  16  17
ATOM     17  C   UNL     1      -5.654   1.297  25.018  0.00  0.00    +0.114 C 
BRANCH  17  18
ATOM     18  C   UNL     1      -6.249   1.835  25.210  0.00  0.00    +0.365 C 
ATOM     19  O   UNL     1      -6.389   2.031  25.999  0.00  0.00    -0.246 OA
ATOM     20  O   UNL     1      -6.704   2.178  24.612  0.00  0.00    -0.246 OA
ENDBRANCH  17  18
ENDBRANCH  16  17
TORSDOF 6
ENDMDL
MODEL 5
REMARK VINA RESULT:     -10.8      1.341      4.515
REMARK  Name = 
REMARK  6 active torsions:
REMARK  status: ('A' for Active; 'I' for Inactive)
REMARK    1  A    between atoms: O_2  and  C_3
REMARK    2  A    between atoms: C_9  and  C_10
REMARK    3  A    between atoms: C_10  and  C_11
REMARK    4  A    between atoms: C_16  and  C_17
REMARK    5  A    between atoms: C_17  and  C_18
REMARK    6  A    between atoms: N_23  and  C_24
REMARK                            x       y       z     vdW  Elec       q    Type
REMARK                         _______ _______ _______ _____ _____    ______ ____
ROOT
ATOM     11  C   UNL     1      -3.014  -0.169  24.768  0.00  0.00    +0.026 C 
ATOM     12  C   UNL     1      -3.453   0.519  24.885  0.00  0.00    +0.095 C 
ATOM     13  N   UNL     1      -4.277   0.492  24.861  0.00  0.00    -0.263 N 
ATOM     14  C   UNL     1      -4.662  -0.224  24.720  0.00  0.00    +0.095 C 
ATOM     15  C   UNL     1      -4.224  -0.912  24.603  0.00  0.00    +0.022 C 
ATOM     16  C   UNL     1      -3.400  -0.886  24.627  0.00  0.00    +0.015 C 
ATOM     21  C   UNL     1      -4.716   1.181  24.978  0.00  0.00    +0.327 C 
ATOM     22  O   UNL     1      -5.540   1.154  24.954  0.00  0.00    -0.250 OA
ATOM     23  N   UNL     1      -4.330   1.896  25.120  0.00  0.00    -0.162 NA
ENDROOT
BRANCH  23  24
ATOM     24  C   UNL     1      -4.768   2.585  25.237  0.00  0.00    +0.075 A 
ATOM     25  C   UNL     1      -5.431   2.574  25.729  0.00  0.00    +0.017 A 
ATOM     26  C   UNL     1      -5.869   3.263  25.846  0.00  0.00    +0.001 A 
ATOM     27  C   UNL     1      -5.646   3.964  25.472  0.00  0.00    +0.000 A 
ATOM     28  C   UNL     1      -4.983   3.975  24.980  0.00  0.00    +0.001 A 
ATOM     29  C   UNL     1      -4.545   3.286  24.862  0.00  0.00    +0.017 A 
ENDBRANCH  23  24
BRANCH  11  10
ATOM     10  C   UNL     1      -2.190  -0.143  24.793  0.00  0.00    +0.047 C 
BRANCH  10   9
ATOM      3  C   UNL     1      -0.078   1.820  25.527  0.00  0.00    +0.138 A 
ATOM      4  C   UNL     1      -0.240   1.944  24.727  0.00  0.00    +0.033 A 
ATOM      5  C   UNL     1      -0.808   1.485  24.343  0.00  0.00    -0.016 A 
ATOM      6  C   UNL     1      -1.216   0.900  24.760  0.00  0.00    +0.009 A 
ATOM      7  C   UNL     1      -1.054   0.775  25.559  0.00  0.00    +0.004 A 
ATOM      8  C   UNL     1      -0.486   1.234  25.943  0.00  0.00    +0.037 A 
ATOM      9  C   UNL     1      -1.783   0.441  24.376  0.00  0.00    +0.053 C 
ATOM     30  N   UNL     1      -1.944   0.566  23.578  0.00  0.00    -0.274 NA
ATOM     31  C   UNL     1      -1.536   1.151  23.161  0.00  0.00    +0.130 C 
ATOM     32  C   UNL     1      -0.969   1.610  23.544  0.00  0.00    +0.053 C 
BRANCH   3   2
ATOM      1  C   UNL     1       0.305   2.655  26.620  0.00  0.00    +0.252 C 
ATOM      2  O   UNL     1       0.489   2.278  25.910  0.00  0.00    -0.471 OA
ENDBRANCH   3   2
ENDBRANCH  10   9
ENDBRANCH  11  10
BRANCH  16  17
ATOM     17  C   UNL     1      -2.962  -1.574  24.510  0.00  0.00    +0.114 C 
BRANCH  17  18
ATOM     18  C   UNL     1      -3.332  -2.310  24.545  0.00  0.00    +0.365 C 
ATOM     19  O   UNL     1      -3.647  -2.648  23.862  0.00  0.00    -0.246 OA
ATOM     20  O   UNL     1      -3.389  -2.709  25.267  0.00  0.00    -0.246 OA
ENDBRANCH  17  18
ENDBRANCH  16  17
TORSDOF 6
ENDMDL
MODEL 6
REMARK VINA RESULT:     -10.7      1.609      2.194
REMARK  Name = 
REMARK  6 active torsions:
REMARK  status: ('A' for Active; 'I' for Inactive)
REMARK    1  A    between atoms: O_2  and  C_3
REMARK    2  A    between atoms: C_9  and  C_10
REMARK    3  A    between atoms: C_10  and  C_11
REMARK    4  A    between atoms: C_16  and  C_17
REMARK    5  A    between atoms: C_17  and  C_18
REMARK    6  A    between atoms: N_23  and  C_24
REMARK                            x       y       z     vdW  Elec       q    Type
REMARK                         _______ _______ _______ _____ _____    ______ ____
ROOT
ATOM     11  C   UNL     1      -1.938   3.159  25.029  0.00  0.00    +0.026 C 
ATOM     12  C   UNL     1      -1.761   2.355  25.066  0.00  0.00    +0.095 C 
ATOM     13  N   UNL     1      -0.974   2.104  25.058  0.00  0.00    -0.263 N 
ATOM     14  C   UNL     1      -0.366   2.659  25.013  0.00  0.00    +0.095 C 
ATOM     15  C   UNL     1      -0.543   3.463  24.976  0.00  0.00    +0.022 C 
ATOM     16  C   UNL     1      -1.328   3.714  24.984  0.00  0.00    +0.015 C 
ATOM     21  C   UNL     1      -0.797   1.299  25.095  0.00  0.00    +0.327 C 
ATOM     22  O   UNL     1      -0.012   1.050  25.087  0.00  0.00    -0.250 OA
ATOM     23  N   UNL     1      -1.407   0.745  25.140  0.00  0.00    -0.162 NA
ENDROOT
BRANCH  23  24
ATOM     24  C   UNL     1      -1.230  -0.060  25.177  0.00  0.00    +0.075 A 
ATOM     25  C   UNL     1      -1.222  -0.448  25.904  0.00  0.00    +0.017 A 
ATOM     26  C   UNL     1      -1.045  -1.253  25.941  0.00  0.00    +0.001 A 
ATOM     27  C   UNL     1      -0.876  -1.671  25.250  0.00  0.00    +0.000 A 
ATOM     28  C   UNL     1      -0.884  -1.283  24.522  0.00  0.00    +0.001 A 
ATOM     29  C   UNL     1      -1.061  -0.478  24.485  0.00  0.00    +0.017 A 
ENDBRANCH  23  24
BRANCH  11  10
ATOM     10  C   UNL     1      -2.724   3.410  25.037  0.00  0.00    +0.047 C 
BRANCH  10   9
ATOM      3  C   UNL     1      -5.532   2.505  25.420  0.00  0.00    +0.138 A 
ATOM      4  C   UNL     1      -5.336   2.320  24.641  0.00  0.00    +0.033 A 
ATOM      5  C   UNL     1      -4.585   2.500  24.349  0.00  0.00    -0.016 A 
ATOM      6  C   UNL     1      -4.029   2.865  24.839  0.00  0.00    +0.009 A 
ATOM      7  C   UNL     1      -4.225   3.050  25.618  0.00  0.00    +0.004 A 
ATOM      8  C   UNL     1      -4.976   2.870  25.910  0.00  0.00    +0.037 A 
ATOM      9  C   UNL     1      -3.279   3.045  24.548  0.00  0.00    +0.053 C 
ATOM     30  N   UNL     1      -3.083   2.860  23.769  0.00  0.00    -0.274 NA
ATOM     31  C   UNL     1      -3.639   2.495  23.279  0.00  0.00    +0.130 C 
ATOM     32  C   UNL     1      -4.389   2.315  23.570  0.00  0.00    +0.053 C 
BRANCH   3   2
ATOM      1  C   UNL     1      -6.361   1.905  26.416  0.00  0.00    +0.252 C 
ATOM      2  O   UNL     1      -6.282   2.325  25.711  0.00  0.00    -0.471 OA
ENDBRANCH   3   2
ENDBRANCH  10   9
ENDBRANCH  11  10
BRANCH  16  17
ATOM     17  C   UNL     1      -1.505   4.519  24.947  0.00  0.00    +0.114 C 
BRANCH  17  18
ATOM     18  C   UNL     1      -0.906   5.067  24.802  0.00  0.00    +0.365 C 
ATOM     19  O   UNL     1      -0.642   5.560  25.408  0.00  0.00    -0.246 OA
ATOM     20  O   UNL     1      -0.570   5.121  24.050  0.00  0.00    -0.246 OA
ENDBRANCH  17  18
ENDBRANCH  16  17
TORSDOF 6
ENDMDL
MODEL 7
REMARK VINA RESULT:     -10.5      1.931      5.290
REMARK  Name = 
REMARK  6 active torsions:
REMARK  status: ('A' for Active; 'I' for Inactive)
REMARK    1  A    between atoms: O_2  and  C_3
REMARK    2  A    between atoms: C_9  and  C_10
REMARK    3  A    between atoms: C_10  and  C_11
REMARK    4  A    between atoms: C_16  and  C_17
REMARK    5  A    between atoms: C_17  and  C_18
REMARK    6  A    between atoms: N_23  and  C_24
REMARK                            x       y       z     vdW  Elec       q    Type
REMARK                         _______ _______ _______ _____ _____    ______ ____
ROOT
ATOM     11  C   UNL     1      -4.344   1.720  25.153  0.00  0.00    +0.026 C 
ATOM     12  C   UNL     1      -3.696   2.226  25.092  0.00  0.00    +0.095 C 
ATOM     13  N   UNL     1      -3.813   3.039  25.015  0.00  0.00    -0.263 N 
ATOM     14  C   UNL     1      -4.579   3.345  25.000  0.00  0.00    +0.095 C 
ATOM     15  C   UNL     1      -5.227   2.839  25.061  0.00  0.00    +0.022 C 
ATOM     16  C   UNL     1      -5.110   2.026  25.138  0.00  0.00    +0.015 C 
ATOM     21  C   UNL     1      -3.165   3.546  24.954  0.00  0.00    +0.327 C 
ATOM     22  O   UNL     1      -3.283   4.358  24.877  0.00  0.00    -0.250 OA
ATOM     23  N   UNL     1      -2.399   3.239  24.969  0.00  0.00    -0.162 NA
ENDROOT
BRANCH  23  24
ATOM     24  C   UNL     1      -1.751   3.745  24.908  0.00  0.00    +0.075 A 
ATOM     25  C   UNL     1      -1.770   4.486  25.269  0.00  0.00    +0.017 A 
ATOM     26  C   UNL     1      -1.122   4.993  25.208  0.00  0.00    +0.001 A 
ATOM     27  C   UNL     1      -0.453   4.759  24.785  0.00  0.00    +0.000 A 
ATOM     28  C   UNL     1      -0.434   4.017  24.423  0.00  0.00    +0.001 A 
ATOM     29  C   UNL     1      -1.082   3.510  24.484  0.00  0.00    +0.017 A 
ENDBRANCH  23  24
BRANCH  11  10
ATOM     10  C   UNL     1      -4.227   0.907  25.230  0.00  0.00    +0.047 C 
BRANCH  10   9
ATOM      3  C   UNL     1      -3.140  -1.855  25.015  0.00  0.00    +0.138 A 
ATOM      4  C   UNL     1      -3.003  -1.496  24.284  0.00  0.00    +0.033 A 
ATOM      5  C   UNL     1      -3.240  -0.717  24.155  0.00  0.00    -0.016 A 
ATOM      6  C   UNL     1      -3.615  -0.294  24.757  0.00  0.00    +0.009 A 
ATOM      7  C   UNL     1      -3.752  -0.652  25.488  0.00  0.00    +0.004 A 
ATOM      8  C   UNL     1      -3.515  -1.432  25.618  0.00  0.00    +0.037 A 
ATOM      9  C   UNL     1      -3.852   0.485  24.628  0.00  0.00    +0.053 C 
ATOM     30  N   UNL     1      -3.715   0.842  23.898  0.00  0.00    -0.274 NA
ATOM     31  C   UNL     1      -3.340   0.420  23.296  0.00  0.00    +0.130 C 
ATOM     32  C   UNL     1      -3.103  -0.359  23.425  0.00  0.00    +0.053 C 
BRANCH   3   2
ATOM      1  C   UNL     1      -3.368  -3.257  24.870  0.00  0.00    +0.252 C 
ATOM      2  O   UNL     1      -2.903  -2.634  25.144  0.00  0.00    -0.471 OA
ENDBRANCH   3   2
ENDBRANCH  10   9
ENDBRANCH  11  10
BRANCH  16  17
ATOM     17  C   UNL     1      -5.758   1.520  25.200  0.00  0.00    +0.114 C 
BRANCH  17  18
ATOM     18  C   UNL     1      -6.504   1.825  25.374  0.00  0.00    +0.365 C 
ATOM     19  O   UNL     1      -6.717   1.974  26.158  0.00  0.00    -0.246 OA
ATOM     20  O   UNL     1      -7.039   1.981  24.765  0.00  0.00    -0.246 OA
ENDBRANCH  17  18
ENDBRANCH  16  17
TORSDOF 6
ENDMDL
MODEL 8
REMARK VINA RESULT:     -10.2      1.656      4.433
REMARK  Name = 
REMARK  6 active torsions:
REMARK  status: ('A' for Active; 'I' for Inactive)
REMARK    1  A    between atoms: O_2  and  C_3
REMARK    2  A    between atoms: C_9  and  C_10
REMARK    3  A    between atoms: C_10  and  C_11
REMARK    4  A    between atoms: C_16  and  C_17
REMARK    5  A    between atoms: C_17  and  C_18
REMARK    6  A    between atoms: N_23  and  C_24
REMARK                            x       y       z     vdW  Elec       q    Type
REMARK                         _______ _______ _______ _____ _____    ______ ____
ROOT
ATOM     11  C   UNL     1      -0.572   0.430  24.051  0.00  0.00    +0.026 C 
ATOM     12  C   UNL     1      -0.983   1.093  24.316  0.00  0.00    +0.095 C 
ATOM     13  N   UNL     1      -0.629   1.838  24.287  0.00  0.00    -0.263 N 
ATOM     14  C   UNL     1       0.137   1.919  23.992  0.00  0.00    +0.095 C 
ATOM     15  C   UNL     1       0.549   1.256  23.727  0.00  0.00    +0.022 C 
ATOM     16  C   UNL     1       0.195   0.511  23.756  0.00  0.00    +0.015 C 
ATOM     21  C   UNL     1      -1.041   2.502  24.552  0.00  0.00    +0.327 C 
ATOM     22  O   UNL     1      -0.687   3.246  24.523  0.00  0.00    -0.250 OA
ATOM     23  N   UNL     1      -1.808   2.420  24.847  0.00  0.00    -0.162 NA
ENDROOT
BRANCH  23  24
ATOM     24  C   UNL     1      -2.220   3.084  25.112  0.00  0.00    +0.075 A 
ATOM     25  C   UNL     1      -2.810   3.419  24.643  0.00  0.00    +0.017 A 
ATOM     26  C   UNL     1      -3.222   4.082  24.909  0.00  0.00    +0.001 A 
ATOM     27  C   UNL     1      -3.044   4.412  25.644  0.00  0.00    +0.000 A 
ATOM     28  C   UNL     1      -2.454   4.077  26.113  0.00  0.00    +0.001 A 
ATOM     29  C   UNL     1      -2.041   3.414  25.848  0.00  0.00    +0.017 A 
ENDBRANCH  23  24
BRANCH  11  10
ATOM     10  C   UNL     1      -0.926  -0.314  24.080  0.00  0.00    +0.047 C 
BRANCH  10   9
ATOM      3  C   UNL     1      -3.550  -1.613  24.610  0.00  0.00    +0.138 A 
ATOM      4  C   UNL     1      -3.192  -1.508  25.346  0.00  0.00    +0.033 A 
ATOM      5  C   UNL     1      -2.447  -1.158  25.399  0.00  0.00    -0.016 A 
ATOM      6  C   UNL     1      -2.058  -0.911  24.713  0.00  0.00    +0.009 A 
ATOM      7  C   UNL     1      -2.416  -1.015  23.976  0.00  0.00    +0.004 A 
ATOM      8  C   UNL     1      -3.161  -1.366  23.924  0.00  0.00    +0.037 A 
ATOM      9  C   UNL     1      -1.314  -0.561  24.765  0.00  0.00    +0.053 C 
ATOM     30  N   UNL     1      -0.957  -0.457  25.501  0.00  0.00    -0.274 NA
ATOM     31  C   UNL     1      -1.346  -0.704  26.186  0.00  0.00    +0.130 C 
ATOM     32  C   UNL     1      -2.090  -1.054  26.134  0.00  0.00    +0.053 C 
BRANCH   3   2
ATOM      1  C   UNL     1      -4.482  -2.438  23.911  0.00  0.00    +0.252 C 
ATOM      2  O   UNL     1      -4.294  -1.963  24.558  0.00  0.00    -0.471 OA
ENDBRANCH   3   2
ENDBRANCH  10   9
ENDBRANCH  11  10
BRANCH  16  17
ATOM     17  C   UNL     1       0.607  -0.152  23.490  0.00  0.00    +0.114 C 
BRANCH  17  18
ATOM     18  C   UNL     1       1.199  -0.070  22.923  0.00  0.00    +0.365 C 
ATOM     19  O   UNL     1       1.018  -0.147  22.122  0.00  0.00    -0.246 OA
ATOM     20  O   UNL     1       1.975   0.090  23.156  0.00  0.00    -0.246 OA
ENDBRANCH  17  18
ENDBRANCH  16  17
TORSDOF 6
ENDMDL
