MODEL 1
REMARK VINA RESULT:     -10.8      0.000      0.000
REMARK  Name = 
REMARK  6 active torsions:
REMARK  status: ('A' for Active; 'I' for Inactive)
REMARK    1  A    between atoms: C_4  and  N_19
REMARK    2  A    between atoms: C_6  and  C_7
REMARK    3  A    between atoms: C_9  and  C_12
REMARK    4  A    between atoms: C_20  and  C_22
REMARK    5  A    between atoms: C_22  and  O_23
REMARK    6  A    between atoms: O_23  and  C_24
REMARK                            x       y       z     vdW  Elec       q    Type
REMARK                         _______ _______ _______ _____ _____    ______ ____
ROOT
ATOM      1  C   UNL     1      -5.568   3.375  25.363  0.00  0.00    +0.090 C 
ATOM      2  N   UNL     1      -5.132   2.677  25.331  0.00  0.00    -0.264 NA
ATOM      3  C   UNL     1      -5.433   1.924  25.172  0.00  0.00    +0.094 C 
ATOM      4  C   UNL     1      -4.805   1.389  25.195  0.00  0.00    +0.113 C 
ATOM      5  C   UNL     1      -4.117   1.810  25.368  0.00  0.00    +0.049 C 
ATOM      6  C   UNL     1      -4.320   2.606  25.452  0.00  0.00    +0.139 C 
ENDROOT
BRANCH   6   7
ATOM      7  C   UNL     1      -3.800   3.223  25.626  0.00  0.00    +0.251 A 
ATOM      8  N   UNL     1      -3.122   3.420  25.200  0.00  0.00    -0.190 NA
ATOM      9  C   UNL     1      -2.771   4.070  25.567  0.00  0.00    +0.203 A 
ATOM     10  N   UNL     1      -3.231   4.275  26.219  0.00  0.00    -0.056 NA
ATOM     11  O   UNL     1      -3.868   3.751  26.255  0.00  0.00    -0.336 OA
BRANCH   9  12
ATOM     12  C   UNL     1      -2.079   4.449  25.325  0.00  0.00    +0.039 A 
ATOM     13  C   UNL     1      -1.389   4.013  25.206  0.00  0.00    +0.004 A 
ATOM     14  C   UNL     1      -0.698   4.391  24.963  0.00  0.00    +0.011 A 
ATOM     15  C   UNL     1      -0.696   5.207  24.839  0.00  0.00    +0.058 A 
ATOM     16 CL   UNL     1      -0.004   5.586  24.597  0.00  0.00    -0.082 Cl
ATOM     17  C   UNL     1      -1.385   5.644  24.958  0.00  0.00    +0.011 A 
ATOM     18  C   UNL     1      -2.077   5.265  25.201  0.00  0.00    +0.004 A 
ENDBRANCH   9  12
ENDBRANCH   6   7
BRANCH   4  19
ATOM     19  N   UNL     1      -4.856   0.576  25.068  0.00  0.00    -0.203 NA
ATOM     20  C   UNL     1      -4.458   0.231  24.433  0.00  0.00    +0.286 C 
ATOM     21  O   UNL     1      -4.008   0.700  23.925  0.00  0.00    -0.269 OA
BRANCH  20  22
ATOM     22  C   UNL     1      -4.510  -0.583  24.307  0.00  0.00    +0.291 C 
BRANCH  22  23
ATOM     23  O   UNL     1      -3.890  -0.982  23.936  0.00  0.00    -0.466 OA
BRANCH  23  24
ATOM     24  C   UNL     1      -3.738  -1.772  24.124  0.00  0.00    +0.139 A 
ATOM     25  C   UNL     1      -4.221  -2.367  23.822  0.00  0.00    +0.037 A 
ATOM     26  C   UNL     1      -4.070  -3.156  24.009  0.00  0.00    +0.003 A 
ATOM     27  C   UNL     1      -3.435  -3.350  24.499  0.00  0.00    +0.000 A 
ATOM     28  C   UNL     1      -2.951  -2.753  24.802  0.00  0.00    +0.003 A 
ATOM     29  C   UNL     1      -3.103  -1.964  24.615  0.00  0.00    +0.037 A 
ENDBRANCH  23  24
ENDBRANCH  22  23
ENDBRANCH  20  22
ENDBRANCH   4  19
TORSDOF 6
ENDMDL
MODEL 2
REMARK VINA RESULT:     -10.1      4.181      5.661
REMARK  Name = 
REMARK  6 active torsions:
REMARK  status: ('A' for Active; 'I' for Inactive)
REMARK    1  A    between atoms: C_4  and  N_19
REMARK    2  A    between atoms: C_6  and  C_7
REMARK    3  A    between atoms: C_9  and  C_12
REMARK    4  A    between atoms: C_20  and  C_22
REMARK    5  A    between atoms: C_22  and  O_23
REMARK    6  A    between atoms: O_23  and  C_24
REMARK                            x       y       z     vdW  Elec       q    Type
REMARK                         _______ _______ _______ _____ _____    ______ ____
ROOT
ATOM      1  C   UNL     1      -1.751  -0.846  24.797  0.00  0.00    +0.090 C 
ATOM      2  N   UNL     1      -1.281  -0.245  24.485  0.00  0.00    -0.264 NA
ATOM      3  C   UNL     1      -0.457  -0.249  24.437  0.00  0.00    +0.094 C 
ATOM      4  C   UNL     1      -0.218   0.460  24.088  0.00  0.00    +0.113 C 
ATOM      5  C   UNL     1      -0.895   0.902  23.921  0.00  0.00    +0.049 C 
ATOM      6  C   UNL     1      -1.551   0.466  24.166  0.00  0.00    +0.139 C 
ENDROOT
BRANCH   6   7
ATOM      7  C   UNL     1      -2.340   0.701  24.104  0.00  0.00    +0.251 A 
ATOM      8  N   UNL     1      -2.726   1.239  24.595  0.00  0.00    -0.190 NA
ATOM      9  C   UNL     1      -3.505   1.309  24.334  0.00  0.00    +0.203 A 
ATOM     10  N   UNL     1      -3.601   0.814  23.682  0.00  0.00    -0.056 NA
ATOM     11  O   UNL     1      -2.881   0.438  23.539  0.00  0.00    -0.336 OA
BRANCH   9  12
ATOM     12  C   UNL     1      -4.087   1.790  24.667  0.00  0.00    +0.039 A 
ATOM     13  C   UNL     1      -4.022   2.611  24.618  0.00  0.00    +0.004 A 
ATOM     14  C   UNL     1      -4.603   3.092  24.951  0.00  0.00    +0.011 A 
ATOM     15  C   UNL     1      -5.250   2.751  25.333  0.00  0.00    +0.058 A 
ATOM     16 CL   UNL     1      -5.832   3.232  25.667  0.00  0.00    -0.082 Cl
ATOM     17  C   UNL     1      -5.316   1.931  25.383  0.00  0.00    +0.011 A 
ATOM     18  C   UNL     1      -4.734   1.450  25.050  0.00  0.00    +0.004 A 
ENDBRANCH   9  12
ENDBRANCH   6   7
BRANCH   4  19
ATOM     19  N   UNL     1       0.559   0.686  23.934  0.00  0.00    -0.203 NA
ATOM     20  C   UNL     1       0.963   0.365  23.291  0.00  0.00    +0.286 C 
ATOM     21  O   UNL     1       0.590  -0.184  22.802  0.00  0.00    -0.269 OA
BRANCH  20  22
ATOM     22  C   UNL     1       1.742   0.592  23.137  0.00  0.00    +0.291 C 
BRANCH  22  23
ATOM     23  O   UNL     1       2.272   0.050  22.811  0.00  0.00    -0.466 OA
BRANCH  23  24
ATOM     24  C   UNL     1       3.085   0.184  22.867  0.00  0.00    +0.139 A 
ATOM     25  C   UNL     1       3.575  -0.389  23.201  0.00  0.00    +0.037 A 
ATOM     26  C   UNL     1       4.387  -0.255  23.257  0.00  0.00    +0.003 A 
ATOM     27  C   UNL     1       4.709   0.452  22.979  0.00  0.00    +0.000 A 
ATOM     28  C   UNL     1       4.218   1.025  22.645  0.00  0.00    +0.003 A 
ATOM     29  C   UNL     1       3.406   0.891  22.589  0.00  0.00    +0.037 A 
ENDBRANCH  23  24
ENDBRANCH  22  23
ENDBRANCH  20  22
ENDBRANCH   4  19
TORSDOF 6
ENDMDL
MODEL 3
REMARK VINA RESULT:     -10.0      2.469      3.351
REMARK  Name = 
REMARK  6 active torsions:
REMARK  status: ('A' for Active; 'I' for Inactive)
REMARK    1  A    between atoms: C_4  and  N_19
REMARK    2  A    between atoms: C_6  and  C_7
REMARK    3  A    between atoms: C_9  and  C_12
REMARK    4  A    between atoms: C_20  and  C_22
REMARK    5  A    between atoms: C_22  and  O_23
REMARK    6  A    between atoms: O_23  and  C_24
REMARK                            x       y       z     vdW  Elec       q    Type
REMARK                         _______ _______ _______ _____ _____    ______ ____
ROOT
ATOM      1  C   UNL     1       1.183   1.134  23.859  0.00  0.00    +0.090 C 
ATOM      2  N   UNL     1       0.453   0.799  24.043  0.00  0.00    -0.264 NA
ATOM      3  C   UNL     1       0.195   0.046  23.824  0.00  0.00    +0.094 C 
ATOM      4  C   UNL     1      -0.566  -0.060  24.125  0.00  0.00    +0.113 C 
ATOM      5  C   UNL     1      -0.779   0.627  24.530  0.00  0.00    +0.049 C 
ATOM      6  C   UNL     1      -0.149   1.158  24.479  0.00  0.00    +0.139 C 
ENDROOT
BRANCH   6   7
ATOM      7  C   UNL     1      -0.125   1.915  24.806  0.00  0.00    +0.251 A 
ATOM      8  N   UNL     1      -0.653   2.528  24.647  0.00  0.00    -0.190 NA
ATOM      9  C   UNL     1      -0.423   3.183  25.093  0.00  0.00    +0.203 A 
ATOM     10  N   UNL     1       0.246   2.975  25.527  0.00  0.00    -0.056 NA
ATOM     11  O   UNL     1       0.430   2.191  25.350  0.00  0.00    -0.336 OA
BRANCH   9  12
ATOM     12  C   UNL     1      -0.798   3.919  25.103  0.00  0.00    +0.039 A 
ATOM     13  C   UNL     1      -1.540   4.000  25.454  0.00  0.00    +0.004 A 
ATOM     14  C   UNL     1      -1.914   4.734  25.464  0.00  0.00    +0.011 A 
ATOM     15  C   UNL     1      -1.546   5.389  25.122  0.00  0.00    +0.058 A 
ATOM     16 CL   UNL     1      -1.921   6.124  25.132  0.00  0.00    -0.082 Cl
ATOM     17  C   UNL     1      -0.804   5.309  24.771  0.00  0.00    +0.011 A 
ATOM     18  C   UNL     1      -0.430   4.573  24.761  0.00  0.00    +0.004 A 
ENDBRANCH   9  12
ENDBRANCH   6   7
BRANCH   4  19
ATOM     19  N   UNL     1      -1.032  -0.735  24.037  0.00  0.00    -0.203 NA
ATOM     20  C   UNL     1      -1.248  -1.177  24.698  0.00  0.00    +0.286 C 
ATOM     21  O   UNL     1      -0.997  -0.945  25.449  0.00  0.00    -0.269 OA
BRANCH  20  22
ATOM     22  C   UNL     1      -1.714  -1.852  24.609  0.00  0.00    +0.291 C 
BRANCH  22  23
ATOM     23  O   UNL     1      -2.433  -1.912  25.010  0.00  0.00    -0.466 OA
BRANCH  23  24
ATOM     24  C   UNL     1      -3.104  -2.185  24.614  0.00  0.00    +0.139 A 
ATOM     25  C   UNL     1      -3.203  -2.992  24.479  0.00  0.00    +0.037 A 
ATOM     26  C   UNL     1      -3.873  -3.265  24.083  0.00  0.00    +0.003 A 
ATOM     27  C   UNL     1      -4.445  -2.731  23.822  0.00  0.00    +0.000 A 
ATOM     28  C   UNL     1      -4.346  -1.922  23.957  0.00  0.00    +0.003 A 
ATOM     29  C   UNL     1      -3.676  -1.649  24.353  0.00  0.00    +0.037 A 
ENDBRANCH  23  24
ENDBRANCH  22  23
ENDBRANCH  20  22
ENDBRANCH   4  19
TORSDOF 6
ENDMDL
MODEL 4
REMARK VINA RESULT:      -9.8      1.911      5.865
REMARK  Name = 
REMARK  6 active torsions:
REMARK  status: ('A' for Active; 'I' for Inactive)
REMARK    1  A    between atoms: C_4  and  N_19
REMARK    2  A    between atoms: C_6  and  C_7
REMARK    3  A    between atoms: C_9  and  C_12
REMARK    4  A    between atoms: C_20  and  C_22
REMARK    5  A    between atoms: C_22  and  O_23
REMARK    6  A    between atoms: O_23  and  C_24
REMARK                            x       y       z     vdW  Elec       q    Type
REMARK                         _______ _______ _______ _____ _____    ______ ____
ROOT
ATOM      1  C   UNL     1      -6.187   1.678  25.406  0.00  0.00    +0.090 C 
ATOM      2  N   UNL     1      -5.450   1.971  25.182  0.00  0.00    -0.264 NA
ATOM      3  C   UNL     1      -5.200   2.755  25.248  0.00  0.00    +0.094 C 
ATOM      4  C   UNL     1      -4.428   2.801  24.960  0.00  0.00    +0.113 C 
ATOM      5  C   UNL     1      -4.202   2.047  24.715  0.00  0.00    +0.049 C 
ATOM      6  C   UNL     1      -4.833   1.534  24.853  0.00  0.00    +0.139 C 
ENDROOT
BRANCH   6   7
ATOM      7  C   UNL     1      -4.846   0.725  24.689  0.00  0.00    +0.251 A 
ATOM      8  N   UNL     1      -4.234   0.192  24.835  0.00  0.00    -0.190 NA
ATOM      9  C   UNL     1      -4.483  -0.555  24.587  0.00  0.00    +0.203 A 
ATOM     10  N   UNL     1      -5.248  -0.483  24.288  0.00  0.00    -0.056 NA
ATOM     11  O   UNL     1      -5.472   0.309  24.351  0.00  0.00    -0.336 OA
BRANCH   9  12
ATOM     12  C   UNL     1      -4.043  -1.252  24.630  0.00  0.00    +0.039 A 
ATOM     13  C   UNL     1      -3.608  -1.423  25.310  0.00  0.00    +0.004 A 
ATOM     14  C   UNL     1      -3.168  -2.119  25.354  0.00  0.00    +0.011 A 
ATOM     15  C   UNL     1      -3.164  -2.645  24.718  0.00  0.00    +0.058 A 
ATOM     16 CL   UNL     1      -2.724  -3.342  24.761  0.00  0.00    -0.082 Cl
ATOM     17  C   UNL     1      -3.599  -2.474  24.038  0.00  0.00    +0.011 A 
ATOM     18  C   UNL     1      -4.039  -1.777  23.995  0.00  0.00    +0.004 A 
ENDBRANCH   9  12
ENDBRANCH   6   7
BRANCH   4  19
ATOM     19  N   UNL     1      -3.965   3.483  24.922  0.00  0.00    -0.203 NA
ATOM     20  C   UNL     1      -3.477   3.685  25.555  0.00  0.00    +0.286 C 
ATOM     21  O   UNL     1      -3.452   3.207  26.227  0.00  0.00    -0.269 OA
BRANCH  20  22
ATOM     22  C   UNL     1      -3.013   4.367  25.518  0.00  0.00    +0.291 C 
BRANCH  22  23
ATOM     23  O   UNL     1      -2.245   4.360  25.820  0.00  0.00    -0.466 OA
BRANCH  23  24
ATOM     24  C   UNL     1      -1.625   4.679  25.377  0.00  0.00    +0.139 A 
ATOM     25  C   UNL     1      -0.995   4.200  25.145  0.00  0.00    +0.037 A 
ATOM     26  C   UNL     1      -0.376   4.518  24.702  0.00  0.00    +0.003 A 
ATOM     27  C   UNL     1      -0.387   5.316  24.491  0.00  0.00    +0.000 A 
ATOM     28  C   UNL     1      -1.018   5.795  24.723  0.00  0.00    +0.003 A 
ATOM     29  C   UNL     1      -1.637   5.477  25.166  0.00  0.00    +0.037 A 
ENDBRANCH  23  24
ENDBRANCH  22  23
ENDBRANCH  20  22
ENDBRANCH   4  19
TORSDOF 6
ENDMDL
MODEL 5
REMARK VINA RESULT:      -9.7      4.319      5.794
REMARK  Name = 
REMARK  6 active torsions:
REMARK  status: ('A' for Active; 'I' for Inactive)
REMARK    1  A    between atoms: C_4  and  N_19
REMARK    2  A    between atoms: C_6  and  C_7
REMARK    3  A    between atoms: C_9  and  C_12
REMARK    4  A    between atoms: C_20  and  C_22
REMARK    5  A    between atoms: C_22  and  O_23
REMARK    6  A    between atoms: O_23  and  C_24
REMARK                            x       y       z     vdW  Elec       q    Type
REMARK                         _______ _______ _______ _____ _____    ______ ____
ROOT
ATOM      1  C   UNL     1      -0.211  -1.133  24.218  0.00  0.00    +0.090 C 
ATOM      2  N   UNL     1      -0.428  -0.339  24.189  0.00  0.00    -0.264 NA
ATOM      3  C   UNL     1      -1.079   0.000  24.567  0.00  0.00    +0.094 C 
ATOM      4  C   UNL     1      -1.085   0.806  24.389  0.00  0.00    +0.113 C 
ATOM      5  C   UNL     1      -0.439   0.965  23.901  0.00  0.00    +0.049 C 
ATOM      6  C   UNL     1      -0.033   0.257  23.778  0.00  0.00    +0.139 C 
ENDROOT
BRANCH   6   7
ATOM      7  C   UNL     1       0.649   0.162  23.323  0.00  0.00    +0.251 A 
ATOM      8  N   UNL     1       1.422   0.306  23.572  0.00  0.00    -0.190 NA
ATOM      9  C   UNL     1       1.927   0.139  22.942  0.00  0.00    +0.203 A 
ATOM     10  N   UNL     1       1.468  -0.107  22.304  0.00  0.00    -0.056 NA
ATOM     11  O   UNL     1       0.677  -0.093  22.540  0.00  0.00    -0.336 OA
BRANCH   9  12
ATOM     12  C   UNL     1       2.750   0.207  22.949  0.00  0.00    +0.039 A 
ATOM     13  C   UNL     1       3.216  -0.439  23.164  0.00  0.00    +0.004 A 
ATOM     14  C   UNL     1       4.038  -0.371  23.171  0.00  0.00    +0.011 A 
ATOM     15  C   UNL     1       4.394   0.343  22.963  0.00  0.00    +0.058 A 
ATOM     16 CL   UNL     1       5.217   0.411  22.971  0.00  0.00    -0.082 Cl
ATOM     17  C   UNL     1       3.929   0.990  22.749  0.00  0.00    +0.011 A 
ATOM     18  C   UNL     1       3.106   0.922  22.742  0.00  0.00    +0.004 A 
ENDBRANCH   9  12
ENDBRANCH   6   7
BRANCH   4  19
ATOM     19  N   UNL     1      -1.640   1.356  24.653  0.00  0.00    -0.203 NA
ATOM     20  C   UNL     1      -2.335   1.479  24.225  0.00  0.00    +0.286 C 
ATOM     21  O   UNL     1      -2.474   1.052  23.534  0.00  0.00    -0.269 OA
BRANCH  20  22
ATOM     22  C   UNL     1      -2.890   2.030  24.489  0.00  0.00    +0.291 C 
BRANCH  22  23
ATOM     23  O   UNL     1      -3.686   1.938  24.292  0.00  0.00    -0.466 OA
BRANCH  23  24
ATOM     24  C   UNL     1      -4.264   2.361  24.703  0.00  0.00    +0.139 A 
ATOM     25  C   UNL     1      -4.200   3.180  24.779  0.00  0.00    +0.037 A 
ATOM     26  C   UNL     1      -4.776   3.603  25.189  0.00  0.00    +0.003 A 
ATOM     27  C   UNL     1      -5.418   3.208  25.525  0.00  0.00    +0.000 A 
ATOM     28  C   UNL     1      -5.482   2.388  25.450  0.00  0.00    +0.003 A 
ATOM     29  C   UNL     1      -4.905   1.965  25.039  0.00  0.00    +0.037 A 
ENDBRANCH  23  24
ENDBRANCH  22  23
ENDBRANCH  20  22
ENDBRANCH   4  19
TORSDOF 6
ENDMDL
MODEL 6
REMARK VINA RESULT:      -9.4      4.477      6.484
REMARK  Name = 
REMARK  6 active torsions:
REMARK  status: ('A' for Active; 'I' for Inactive)
REMARK    1  A    between atoms: C_4  and  N_19
REMARK    2  A    between atoms: C_6  and  C_7
REMARK    3  A    between atoms: C_9  and  C_12
REMARK    4  A    between atoms: C_20  and  C_22
REMARK    5  A    between atoms: C_22  and  O_23
REMARK    6  A    between atoms: O_23  and  C_24
REMARK                            x       y       z     vdW  Elec       q    Type
REMARK                         _______ _______ _______ _____ _____    ______ ____
ROOT
ATOM      1  C   UNL     1      -1.849   2.160  23.906  0.00  0.00    +0.090 C 
ATOM      2  N   UNL     1      -1.157   1.737  24.052  0.00  0.00    -0.264 NA
ATOM      3  C   UNL     1      -0.389   1.993  23.891  0.00  0.00    +0.094 C 
ATOM      4  C   UNL     1       0.133   1.397  24.124  0.00  0.00    +0.113 C 
ATOM      5  C   UNL     1      -0.313   0.773  24.427  0.00  0.00    +0.049 C 
ATOM      6  C   UNL     1      -1.110   0.983  24.383  0.00  0.00    +0.139 C 
ENDROOT
BRANCH   6   7
ATOM      7  C   UNL     1      -1.748   0.520  24.627  0.00  0.00    +0.251 A 
ATOM      8  N   UNL     1      -2.040  -0.145  24.238  0.00  0.00    -0.190 NA
ATOM      9  C   UNL     1      -2.678  -0.435  24.673  0.00  0.00    +0.203 A 
ATOM     10  N   UNL     1      -2.780   0.051  25.331  0.00  0.00    -0.056 NA
ATOM     11  O   UNL     1      -2.205   0.642  25.302  0.00  0.00    -0.336 OA
BRANCH   9  12
ATOM     12  C   UNL     1      -3.135  -1.096  24.484  0.00  0.00    +0.039 A 
ATOM     13  C   UNL     1      -3.853  -1.002  24.089  0.00  0.00    +0.004 A 
ATOM     14  C   UNL     1      -4.309  -1.662  23.900  0.00  0.00    +0.011 A 
ATOM     15  C   UNL     1      -4.048  -2.417  24.105  0.00  0.00    +0.058 A 
ATOM     16 CL   UNL     1      -4.504  -3.078  23.916  0.00  0.00    -0.082 Cl
ATOM     17  C   UNL     1      -3.330  -2.511  24.500  0.00  0.00    +0.011 A 
ATOM     18  C   UNL     1      -2.873  -1.851  24.689  0.00  0.00    +0.004 A 
ENDBRANCH   9  12
ENDBRANCH   6   7
BRANCH   4  19
ATOM     19  N   UNL     1       0.955   1.422  24.063  0.00  0.00    -0.203 NA
ATOM     20  C   UNL     1       1.340   0.975  23.486  0.00  0.00    +0.286 C 
ATOM     21  O   UNL     1       0.903   0.504  22.970  0.00  0.00    -0.269 OA
BRANCH  20  22
ATOM     22  C   UNL     1       2.162   1.000  23.425  0.00  0.00    +0.291 C 
BRANCH  22  23
ATOM     23  O   UNL     1       2.557   0.457  22.944  0.00  0.00    -0.466 OA
BRANCH  23  24
ATOM     24  C   UNL     1       3.375   0.366  23.010  0.00  0.00    +0.139 A 
ATOM     25  C   UNL     1       3.877   0.977  22.777  0.00  0.00    +0.037 A 
ATOM     26  C   UNL     1       4.694   0.887  22.842  0.00  0.00    +0.003 A 
ATOM     27  C   UNL     1       5.010   0.186  23.141  0.00  0.00    +0.000 A 
ATOM     28  C   UNL     1       4.506  -0.426  23.374  0.00  0.00    +0.003 A 
ATOM     29  C   UNL     1       3.689  -0.336  23.309  0.00  0.00    +0.037 A 
ENDBRANCH  23  24
ENDBRANCH  22  23
ENDBRANCH  20  22
ENDBRANCH   4  19
TORSDOF 6
ENDMDL
MODEL 7
REMARK VINA RESULT:      -9.4      3.113      6.776
REMARK  Name = 
REMARK  6 active torsions:
REMARK  status: ('A' for Active; 'I' for Inactive)
REMARK    1  A    between atoms: C_4  and  N_19
REMARK    2  A    between atoms: C_6  and  C_7
REMARK    3  A    between atoms: C_9  and  C_12
REMARK    4  A    between atoms: C_20  and  C_22
REMARK    5  A    between atoms: C_22  and  O_23
REMARK    6  A    between atoms: O_23  and  C_24
REMARK                            x       y       z     vdW  Elec       q    Type
REMARK                         _______ _______ _______ _____ _____    ______ ____
ROOT
ATOM      1  C   UNL     1       0.491  -0.598  23.489  0.00  0.00    +0.090 C 
ATOM      2  N   UNL     1       0.162   0.017  23.928  0.00  0.00    -0.264 NA
ATOM      3  C   UNL     1       0.435   0.795  23.952  0.00  0.00    +0.094 C 
ATOM      4  C   UNL     1      -0.056   1.222  24.460  0.00  0.00    +0.113 C 
ATOM      5  C   UNL     1      -0.633   0.707  24.749  0.00  0.00    +0.049 C 
ATOM      6  C   UNL     1      -0.498  -0.037  24.420  0.00  0.00    +0.139 C 
ENDROOT
BRANCH   6   7
ATOM      7  C   UNL     1      -0.944  -0.717  24.559  0.00  0.00    +0.251 A 
ATOM      8  N   UNL     1      -1.702  -0.867  24.270  0.00  0.00    -0.190 NA
ATOM      9  C   UNL     1      -1.937  -1.608  24.544  0.00  0.00    +0.203 A 
ATOM     10  N   UNL     1      -1.326  -1.917  25.002  0.00  0.00    -0.056 NA
ATOM     11  O   UNL     1      -0.712  -1.366  25.011  0.00  0.00    -0.336 OA
BRANCH   9  12
ATOM     12  C   UNL     1      -2.659  -1.977  24.387  0.00  0.00    +0.039 A 
ATOM     13  C   UNL     1      -3.329  -1.522  24.228  0.00  0.00    +0.004 A 
ATOM     14  C   UNL     1      -4.050  -1.890  24.071  0.00  0.00    +0.011 A 
ATOM     15  C   UNL     1      -4.101  -2.714  24.073  0.00  0.00    +0.058 A 
ATOM     16 CL   UNL     1      -4.823  -3.082  23.916  0.00  0.00    -0.082 Cl
ATOM     17  C   UNL     1      -3.432  -3.169  24.232  0.00  0.00    +0.011 A 
ATOM     18  C   UNL     1      -2.710  -2.800  24.389  0.00  0.00    +0.004 A 
ENDBRANCH   9  12
ENDBRANCH   6   7
BRANCH   4  19
ATOM     19  N   UNL     1       0.016   2.022  24.645  0.00  0.00    -0.203 NA
ATOM     20  C   UNL     1      -0.493   2.573  24.303  0.00  0.00    +0.286 C 
ATOM     21  O   UNL     1      -1.076   2.324  23.776  0.00  0.00    -0.269 OA
BRANCH  20  22
ATOM     22  C   UNL     1      -0.420   3.374  24.489  0.00  0.00    +0.291 C 
BRANCH  22  23
ATOM     23  O   UNL     1      -0.804   3.679  25.153  0.00  0.00    -0.466 OA
BRANCH  23  24
ATOM     24  C   UNL     1      -1.135   4.435  25.126  0.00  0.00    +0.139 A 
ATOM     25  C   UNL     1      -0.702   5.064  24.814  0.00  0.00    +0.037 A 
ATOM     26  C   UNL     1      -1.032   5.819  24.787  0.00  0.00    +0.003 A 
ATOM     27  C   UNL     1      -1.796   5.946  25.072  0.00  0.00    +0.000 A 
ATOM     28  C   UNL     1      -2.229   5.317  25.385  0.00  0.00    +0.003 A 
ATOM     29  C   UNL     1      -1.899   4.562  25.412  0.00  0.00    +0.037 A 
ENDBRANCH  23  24
ENDBRANCH  22  23
ENDBRANCH  20  22
ENDBRANCH   4  19
TORSDOF 6
ENDMDL
MODEL 8
REMARK VINA RESULT:      -7.2     18.244     19.015
REMARK  Name = 
REMARK  6 active torsions:
REMARK  status: ('A' for Active; 'I' for Inactive)
REMARK    1  A    between atoms: C_4  and  N_19
REMARK    2  A    between atoms: C_6  and  C_7
REMARK    3  A    between atoms: C_9  and  C_12
REMARK    4  A    between atoms: C_20  and  C_22
REMARK    5  A    between atoms: C_22  and  O_23
REMARK    6  A    between atoms: O_23  and  C_24
REMARK                            x       y       z     vdW  Elec       q    Type
REMARK                         _______ _______ _______ _____ _____    ______ ____
ROOT
ATOM      1  C   UNL     1      -9.390  -9.386  10.276  0.00  0.00    +0.090 C 
ATOM      2  N   UNL     1      -8.614  -9.298  10.012  0.00  0.00    -0.264 NA
ATOM      3  C   UNL     1      -7.965  -9.745  10.256  0.00  0.00    +0.094 C 
ATOM      4  C   UNL     1      -7.300  -9.470   9.851  0.00  0.00    +0.113 C 
ATOM      5  C   UNL     1      -7.538  -8.854   9.358  0.00  0.00    +0.049 C 
ATOM      6  C   UNL     1      -8.351  -8.747   9.457  0.00  0.00    +0.139 C 
ENDROOT
BRANCH   6   7
ATOM      7  C   UNL     1      -8.818  -8.188   9.070  0.00  0.00    +0.251 A 
ATOM      8  N   UNL     1      -8.940  -7.409   9.310  0.00  0.00    -0.190 NA
ATOM      9  C   UNL     1      -9.442  -7.049   8.763  0.00  0.00    +0.203 A 
ATOM     10  N   UNL     1      -9.629  -7.606   8.184  0.00  0.00    -0.056 NA
ATOM     11  O   UNL     1      -9.243  -8.310   8.374  0.00  0.00    -0.336 OA
BRANCH   9  12
ATOM     12  C   UNL     1      -9.709  -6.269   8.789  0.00  0.00    +0.039 A 
ATOM     13  C   UNL     1      -9.239  -5.661   8.490  0.00  0.00    +0.004 A 
ATOM     14  C   UNL     1      -9.506  -4.881   8.516  0.00  0.00    +0.011 A 
ATOM     15  C   UNL     1     -10.244  -4.709   8.842  0.00  0.00    +0.058 A 
ATOM     16 CL   UNL     1     -10.512  -3.929   8.868  0.00  0.00    -0.082 Cl
ATOM     17  C   UNL     1     -10.715  -5.317   9.141  0.00  0.00    +0.011 A 
ATOM     18  C   UNL     1     -10.447  -6.097   9.115  0.00  0.00    +0.004 A 
ENDBRANCH   9  12
ENDBRANCH   6   7
BRANCH   4  19
ATOM     19  N   UNL     1      -6.532  -9.761   9.927  0.00  0.00    -0.203 NA
ATOM     20  C   UNL     1      -6.025  -9.444  10.495  0.00  0.00    +0.286 C 
ATOM     21  O   UNL     1      -6.285  -8.836  10.987  0.00  0.00    -0.269 OA
BRANCH  20  22
ATOM     22  C   UNL     1      -5.256  -9.736  10.570  0.00  0.00    +0.291 C 
BRANCH  22  23
ATOM     23  O   UNL     1      -4.656  -9.245  10.854  0.00  0.00    -0.466 OA
BRANCH  23  24
ATOM     24  C   UNL     1      -3.905  -9.556  11.000  0.00  0.00    +0.139 A 
ATOM     25  C   UNL     1      -3.790 -10.079  11.626  0.00  0.00    +0.037 A 
ATOM     26  C   UNL     1      -3.040 -10.390  11.773  0.00  0.00    +0.003 A 
ATOM     27  C   UNL     1      -2.404 -10.177  11.292  0.00  0.00    +0.000 A 
ATOM     28  C   UNL     1      -2.519  -9.653  10.665  0.00  0.00    +0.003 A 
ATOM     29  C   UNL     1      -3.269  -9.343  10.518  0.00  0.00    +0.037 A 
ENDBRANCH  23  24
ENDBRANCH  22  23
ENDBRANCH  20  22
ENDBRANCH   4  19
TORSDOF 6
ENDMDL
MODEL 9
REMARK VINA RESULT:      -6.9     14.742     16.694
REMARK  Name = 
REMARK  6 active torsions:
REMARK  status: ('A' for Active; 'I' for Inactive)
REMARK    1  A    between atoms: C_4  and  N_19
REMARK    2  A    between atoms: C_6  and  C_7
REMARK    3  A    between atoms: C_9  and  C_12
REMARK    4  A    between atoms: C_20  and  C_22
REMARK    5  A    between atoms: C_22  and  O_23
REMARK    6  A    between atoms: O_23  and  C_24
REMARK                            x       y       z     vdW  Elec       q    Type
REMARK                         _______ _______ _______ _____ _____    ______ ____
ROOT
ATOM      1  C   UNL     1      -5.702 -10.015  16.056  0.00  0.00    +0.090 C 
ATOM      2  N   UNL     1      -5.918 -10.082  15.264  0.00  0.00    -0.264 NA
ATOM      3  C   UNL     1      -5.401 -10.164  14.625  0.00  0.00    +0.094 C 
ATOM      4  C   UNL     1      -5.853 -10.212  13.936  0.00  0.00    +0.113 C 
ATOM      5  C   UNL     1      -6.648 -10.159  14.149  0.00  0.00    +0.049 C 
ATOM      6  C   UNL     1      -6.688 -10.079  14.969  0.00  0.00    +0.139 C 
ENDROOT
BRANCH   6   7
ATOM      7  C   UNL     1      -7.378 -10.009  15.416  0.00  0.00    +0.251 A 
ATOM      8  N   UNL     1      -7.797  -9.312  15.555  0.00  0.00    -0.190 NA
ATOM      9  C   UNL     1      -8.447  -9.495  16.027  0.00  0.00    +0.203 A 
ATOM     10  N   UNL     1      -8.431 -10.305  16.181  0.00  0.00    -0.056 NA
ATOM     11  O   UNL     1      -7.770 -10.622  15.804  0.00  0.00    -0.336 OA
BRANCH   9  12
ATOM     12  C   UNL     1      -9.015  -8.962  16.299  0.00  0.00    +0.039 A 
ATOM     13  C   UNL     1      -8.984  -8.685  17.075  0.00  0.00    +0.004 A 
ATOM     14  C   UNL     1      -9.552  -8.152  17.347  0.00  0.00    +0.011 A 
ATOM     15  C   UNL     1     -10.151  -7.895  16.842  0.00  0.00    +0.058 A 
ATOM     16 CL   UNL     1     -10.719  -7.362  17.113  0.00  0.00    -0.082 Cl
ATOM     17  C   UNL     1     -10.183  -8.172  16.065  0.00  0.00    +0.011 A 
ATOM     18  C   UNL     1      -9.615  -8.705  15.794  0.00  0.00    +0.004 A 
ENDBRANCH   9  12
ENDBRANCH   6   7
BRANCH   4  19
ATOM     19  N   UNL     1      -5.560 -10.297  13.170  0.00  0.00    -0.203 NA
ATOM     20  C   UNL     1      -5.575  -9.658  12.649  0.00  0.00    +0.286 C 
ATOM     21  O   UNL     1      -5.882  -8.933  12.894  0.00  0.00    -0.269 OA
BRANCH  20  22
ATOM     22  C   UNL     1      -5.281  -9.743  11.882  0.00  0.00    +0.291 C 
BRANCH  22  23
ATOM     23  O   UNL     1      -5.081  -9.075  11.441  0.00  0.00    -0.466 OA
BRANCH  23  24
ATOM     24  C   UNL     1      -4.699  -9.161  10.714  0.00  0.00    +0.139 A 
ATOM     25  C   UNL     1      -3.897  -9.351  10.691  0.00  0.00    +0.037 A 
ATOM     26  C   UNL     1      -3.514  -9.437   9.965  0.00  0.00    +0.003 A 
ATOM     27  C   UNL     1      -3.933  -9.332   9.262  0.00  0.00    +0.000 A 
ATOM     28  C   UNL     1      -4.736  -9.142   9.286  0.00  0.00    +0.003 A 
ATOM     29  C   UNL     1      -5.119  -9.056  10.011  0.00  0.00    +0.037 A 
ENDBRANCH  23  24
ENDBRANCH  22  23
ENDBRANCH  20  22
ENDBRANCH   4  19
TORSDOF 6
ENDMDL
MODEL 10
REMARK VINA RESULT:      -6.8     14.951     16.750
REMARK  Name = 
REMARK  6 active torsions:
REMARK  status: ('A' for Active; 'I' for Inactive)
REMARK    1  A    between atoms: C_4  and  N_19
REMARK    2  A    between atoms: C_6  and  C_7
REMARK    3  A    between atoms: C_9  and  C_12
REMARK    4  A    between atoms: C_20  and  C_22
REMARK    5  A    between atoms: C_22  and  O_23
REMARK    6  A    between atoms: O_23  and  C_24
REMARK                            x       y       z     vdW  Elec       q    Type
REMARK                         _______ _______ _______ _____ _____    ______ ____
ROOT
ATOM      1  C   UNL     1      -6.101  -9.515  12.219  0.00  0.00    +0.090 C 
ATOM      2  N   UNL     1      -5.835  -9.943  12.871  0.00  0.00    -0.264 NA
ATOM      3  C   UNL     1      -6.250 -10.062  13.575  0.00  0.00    +0.094 C 
ATOM      4  C   UNL     1      -5.778 -10.520  14.074  0.00  0.00    +0.113 C 
ATOM      5  C   UNL     1      -5.073 -10.684  13.679  0.00  0.00    +0.049 C 
ATOM      6  C   UNL     1      -5.109 -10.328  12.935  0.00  0.00    +0.139 C 
ENDROOT
BRANCH   6   7
ATOM      7  C   UNL     1      -4.520 -10.352  12.357  0.00  0.00    +0.251 A 
ATOM      8  N   UNL     1      -3.800  -9.950  12.382  0.00  0.00    -0.190 NA
ATOM      9  C   UNL     1      -3.384 -10.132  11.693  0.00  0.00    +0.203 A 
ATOM     10  N   UNL     1      -3.846 -10.645  11.243  0.00  0.00    -0.056 NA
ATOM     11  O   UNL     1      -4.548 -10.781  11.654  0.00  0.00    -0.336 OA
BRANCH   9  12
ATOM     12  C   UNL     1      -2.636  -9.849  11.490  0.00  0.00    +0.039 A 
ATOM     13  C   UNL     1      -2.557  -9.276  10.902  0.00  0.00    +0.004 A 
ATOM     14  C   UNL     1      -1.809  -8.993  10.699  0.00  0.00    +0.011 A 
ATOM     15  C   UNL     1      -1.140  -9.284  11.083  0.00  0.00    +0.058 A 
ATOM     16 CL   UNL     1      -0.392  -9.001  10.880  0.00  0.00    -0.082 Cl
ATOM     17  C   UNL     1      -1.218  -9.857  11.671  0.00  0.00    +0.011 A 
ATOM     18  C   UNL     1      -1.966 -10.140  11.874  0.00  0.00    +0.004 A 
ENDBRANCH   9  12
ENDBRANCH   6   7
BRANCH   4  19
ATOM     19  N   UNL     1      -5.977 -10.769  14.835  0.00  0.00    -0.203 NA
ATOM     20  C   UNL     1      -5.779 -10.305  15.486  0.00  0.00    +0.286 C 
ATOM     21  O   UNL     1      -5.382  -9.590  15.379  0.00  0.00    -0.269 OA
BRANCH  20  22
ATOM     22  C   UNL     1      -5.979 -10.555  16.247  0.00  0.00    +0.291 C 
BRANCH  22  23
ATOM     23  O   UNL     1      -6.206 -10.002  16.817  0.00  0.00    -0.466 OA
BRANCH  23  24
ATOM     24  C   UNL     1      -6.331 -10.241  17.597  0.00  0.00    +0.139 A 
ATOM     25  C   UNL     1      -7.084 -10.189  17.928  0.00  0.00    +0.037 A 
ATOM     26  C   UNL     1      -7.210 -10.428  18.707  0.00  0.00    +0.003 A 
ATOM     27  C   UNL     1      -6.581 -10.719  19.156  0.00  0.00    +0.000 A 
ATOM     28  C   UNL     1      -5.827 -10.772  18.824  0.00  0.00    +0.003 A 
ATOM     29  C   UNL     1      -5.702 -10.533  18.045  0.00  0.00    +0.037 A 
ENDBRANCH  23  24
ENDBRANCH  22  23
ENDBRANCH  20  22
ENDBRANCH   4  19
TORSDOF 6
ENDMDL
