MODEL 1
REMARK VINA RESULT:     -11.8      0.000      0.000
REMARK  Name = 
REMARK  8 active torsions:
REMARK  status: ('A' for Active; 'I' for Inactive)
REMARK    1  A    between atoms: O_2  and  C_3
REMARK    2  A    between atoms: C_6  and  C_7
REMARK    3  A    between atoms: C_7  and  N_8
REMARK    4  A    between atoms: N_8  and  C_9
REMARK    5  A    between atoms: C_9  and  C_10
REMARK    6  A    between atoms: C_12  and  C_13
REMARK    7  A    between atoms: C_13  and  C_14
REMARK    8  A    between atoms: C_17  and  C_19
REMARK                            x       y       z     vdW  Elec       q    Type
REMARK                         _______ _______ _______ _____ _____    ______ ____
ROOT
ATOM     10  C   UNL     1      -1.108  -0.513  24.997  0.00  0.00    +0.163 C 
ATOM     11  O   UNL     1      -1.883  -0.481  25.278  0.00  0.00    -0.354 OA
ATOM     12  C   UNL     1      -2.386  -1.127  25.178  0.00  0.00    +0.121 C 
ATOM     25  C   UNL     1      -2.113  -1.806  24.797  0.00  0.00    +0.033 C 
ATOM     26  C   UNL     1      -1.339  -1.839  24.516  0.00  0.00    +0.038 C 
ATOM     27  C   UNL     1      -0.836  -1.192  24.616  0.00  0.00    +0.180 C 
ATOM     28  O   UNL     1      -0.061  -1.225  24.334  0.00  0.00    -0.220 OA
ENDROOT
BRANCH  10   9
ATOM      9  C   UNL     1      -0.606   0.133  25.096  0.00  0.00    +0.121 C 
BRANCH   9   8
ATOM      8  N   UNL     1      -0.920   0.890  25.193  0.00  0.00    -0.211 NA
BRANCH   8   7
ATOM      7  C   UNL     1      -0.417   1.537  25.288  0.00  0.00    +0.115 C 
BRANCH   7   6
ATOM      3  C   UNL     1      -1.343   3.832  25.326  0.00  0.00    +0.139 A 
ATOM      4  C   UNL     1      -1.363   3.368  26.008  0.00  0.00    +0.037 A 
ATOM      5  C   UNL     1      -1.054   2.603  25.995  0.00  0.00    +0.000 A 
ATOM      6  C   UNL     1      -0.726   2.302  25.301  0.00  0.00    -0.005 A 
ATOM     29  C   UNL     1      -0.706   2.766  24.619  0.00  0.00    +0.000 A 
ATOM     30  C   UNL     1      -1.014   3.531  24.631  0.00  0.00    +0.037 A 
BRANCH   3   2
ATOM      1  C   UNL     1      -1.226   5.218  25.003  0.00  0.00    +0.252 C 
ATOM      2  O   UNL     1      -1.651   4.597  25.338  0.00  0.00    -0.471 OA
ENDBRANCH   3   2
ENDBRANCH   7   6
ENDBRANCH   8   7
ENDBRANCH   9   8
ENDBRANCH  10   9
BRANCH  12  13
ATOM     13  C   UNL     1      -3.160  -1.094  25.459  0.00  0.00    +0.079 C 
BRANCH  13  14
ATOM     14  C   UNL     1      -3.701  -0.571  25.118  0.00  0.00    +0.103 A 
ATOM     15  N   UNL     1      -4.151  -0.713  24.443  0.00  0.00    -0.081 NA
ATOM     16  O   UNL     1      -4.615  -0.045  24.301  0.00  0.00    -0.354 OA
ATOM     17  C   UNL     1      -4.450   0.509  24.890  0.00  0.00    +0.177 A 
ATOM     18  C   UNL     1      -3.885   0.184  25.395  0.00  0.00    +0.058 A 
BRANCH  17  19
ATOM     19  C   UNL     1      -4.791   1.258  24.960  0.00  0.00    +0.037 A 
ATOM     20  C   UNL     1      -4.456   1.901  24.567  0.00  0.00    +0.003 A 
ATOM     21  C   UNL     1      -4.797   2.650  24.638  0.00  0.00    +0.000 A 
ATOM     22  C   UNL     1      -5.472   2.753  25.101  0.00  0.00    +0.000 A 
ATOM     23  C   UNL     1      -5.806   2.109  25.493  0.00  0.00    +0.000 A 
ATOM     24  C   UNL     1      -5.465   1.361  25.423  0.00  0.00    +0.003 A 
ENDBRANCH  17  19
ENDBRANCH  13  14
ENDBRANCH  12  13
TORSDOF 8
ENDMDL
MODEL 2
REMARK VINA RESULT:     -11.7      1.226      3.909
REMARK  Name = 
REMARK  8 active torsions:
REMARK  status: ('A' for Active; 'I' for Inactive)
REMARK    1  A    between atoms: O_2  and  C_3
REMARK    2  A    between atoms: C_6  and  C_7
REMARK    3  A    between atoms: C_7  and  N_8
REMARK    4  A    between atoms: N_8  and  C_9
REMARK    5  A    between atoms: C_9  and  C_10
REMARK    6  A    between atoms: C_12  and  C_13
REMARK    7  A    between atoms: C_13  and  C_14
REMARK    8  A    between atoms: C_17  and  C_19
REMARK                            x       y       z     vdW  Elec       q    Type
REMARK                         _______ _______ _______ _____ _____    ______ ____
ROOT
ATOM     10  C   UNL     1      -2.758   3.328  25.130  0.00  0.00    +0.163 C 
ATOM     11  O   UNL     1      -3.271   2.788  24.775  0.00  0.00    -0.354 OA
ATOM     12  C   UNL     1      -4.086   2.884  24.848  0.00  0.00    +0.121 C 
ATOM     25  C   UNL     1      -4.390   3.520  25.276  0.00  0.00    +0.033 C 
ATOM     26  C   UNL     1      -3.878   4.061  25.632  0.00  0.00    +0.038 C 
ATOM     27  C   UNL     1      -3.061   3.965  25.558  0.00  0.00    +0.180 C 
ATOM     28  O   UNL     1      -2.550   4.505  25.913  0.00  0.00    -0.220 OA
ENDROOT
BRANCH  10   9
ATOM      9  C   UNL     1      -1.942   3.233  25.057  0.00  0.00    +0.121 C 
BRANCH   9   8
ATOM      8  N   UNL     1      -1.600   2.492  25.183  0.00  0.00    -0.211 NA
BRANCH   8   7
ATOM      7  C   UNL     1      -0.881   2.304  24.826  0.00  0.00    +0.115 C 
BRANCH   7   6
ATOM      3  C   UNL     1      -0.317  -0.057  24.342  0.00  0.00    +0.139 A 
ATOM      4  C   UNL     1      -0.507   0.172  25.111  0.00  0.00    +0.037 A 
ATOM      5  C   UNL     1      -0.695   0.959  25.272  0.00  0.00    +0.000 A 
ATOM      6  C   UNL     1      -0.693   1.517  24.665  0.00  0.00    -0.005 A 
ATOM     29  C   UNL     1      -0.503   1.288  23.896  0.00  0.00    +0.000 A 
ATOM     30  C   UNL     1      -0.315   0.501  23.733  0.00  0.00    +0.037 A 
BRANCH   3   2
ATOM      1  C   UNL     1      -0.207  -1.416  24.767  0.00  0.00    +0.252 C 
ATOM      2  O   UNL     1      -0.129  -0.843  24.179  0.00  0.00    -0.471 OA
ENDBRANCH   3   2
ENDBRANCH   7   6
ENDBRANCH   8   7
ENDBRANCH   9   8
ENDBRANCH  10   9
BRANCH  12  13
ATOM     13  C   UNL     1      -4.598   2.344  24.493  0.00  0.00    +0.079 C 
BRANCH  13  14
ATOM     14  C   UNL     1      -4.640   1.568  24.775  0.00  0.00    +0.103 A 
ATOM     15  N   UNL     1      -5.066   1.315  25.434  0.00  0.00    -0.081 NA
ATOM     16  O   UNL     1      -4.953   0.502  25.513  0.00  0.00    -0.354 OA
ATOM     17  C   UNL     1      -4.457   0.253  24.902  0.00  0.00    +0.177 A 
ATOM     18  C   UNL     1      -4.264   0.912  24.446  0.00  0.00    +0.058 A 
BRANCH  17  19
ATOM     19  C   UNL     1      -4.200  -0.521  24.771  0.00  0.00    +0.037 A 
ATOM     20  C   UNL     1      -3.862  -0.953  25.387  0.00  0.00    +0.003 A 
ATOM     21  C   UNL     1      -3.605  -1.726  25.255  0.00  0.00    +0.000 A 
ATOM     22  C   UNL     1      -3.686  -2.066  24.507  0.00  0.00    +0.000 A 
ATOM     23  C   UNL     1      -4.024  -1.633  23.892  0.00  0.00    +0.000 A 
ATOM     24  C   UNL     1      -4.281  -0.860  24.024  0.00  0.00    +0.003 A 
ENDBRANCH  17  19
ENDBRANCH  13  14
ENDBRANCH  12  13
TORSDOF 8
ENDMDL
MODEL 3
REMARK VINA RESULT:     -11.6      1.073      3.759
REMARK  Name = 
REMARK  8 active torsions:
REMARK  status: ('A' for Active; 'I' for Inactive)
REMARK    1  A    between atoms: O_2  and  C_3
REMARK    2  A    between atoms: C_6  and  C_7
REMARK    3  A    between atoms: C_7  and  N_8
REMARK    4  A    between atoms: N_8  and  C_9
REMARK    5  A    between atoms: C_9  and  C_10
REMARK    6  A    between atoms: C_12  and  C_13
REMARK    7  A    between atoms: C_13  and  C_14
REMARK    8  A    between atoms: C_17  and  C_19
REMARK                            x       y       z     vdW  Elec       q    Type
REMARK                         _______ _______ _______ _____ _____    ______ ____
ROOT
ATOM     10  C   UNL     1      -2.132  -0.439  24.668  0.00  0.00    +0.163 C 
ATOM     11  O   UNL     1      -1.655   0.212  24.494  0.00  0.00    -0.354 OA
ATOM     12  C   UNL     1      -0.845   0.181  24.642  0.00  0.00    +0.121 C 
ATOM     25  C   UNL     1      -0.509  -0.500  24.964  0.00  0.00    +0.033 C 
ATOM     26  C   UNL     1      -0.985  -1.151  25.138  0.00  0.00    +0.038 C 
ATOM     27  C   UNL     1      -1.796  -1.121  24.990  0.00  0.00    +0.180 C 
ATOM     28  O   UNL     1      -2.272  -1.772  25.164  0.00  0.00    -0.220 OA
ENDROOT
BRANCH  10   9
ATOM      9  C   UNL     1      -2.942  -0.409  24.520  0.00  0.00    +0.121 C 
BRANCH   9   8
ATOM      8  N   UNL     1      -3.384   0.240  24.773  0.00  0.00    -0.211 NA
BRANCH   8   7
ATOM      7  C   UNL     1      -4.128   0.385  24.447  0.00  0.00    +0.115 C 
BRANCH   7   6
ATOM      3  C   UNL     1      -5.384   2.421  25.084  0.00  0.00    +0.139 A 
ATOM      4  C   UNL     1      -5.488   1.722  25.510  0.00  0.00    +0.037 A 
ATOM      5  C   UNL     1      -5.069   1.044  25.297  0.00  0.00    +0.000 A 
ATOM      6  C   UNL     1      -4.547   1.064  24.660  0.00  0.00    -0.005 A 
ATOM     29  C   UNL     1      -4.442   1.762  24.234  0.00  0.00    +0.000 A 
ATOM     30  C   UNL     1      -4.860   2.441  24.445  0.00  0.00    +0.037 A 
BRANCH   3   2
ATOM      1  C   UNL     1      -5.418   3.716  25.685  0.00  0.00    +0.252 C 
ATOM      2  O   UNL     1      -5.802   3.100  25.295  0.00  0.00    -0.471 OA
ENDBRANCH   3   2
ENDBRANCH   7   6
ENDBRANCH   8   7
ENDBRANCH   9   8
ENDBRANCH  10   9
BRANCH  12  13
ATOM     13  C   UNL     1      -0.369   0.832  24.468  0.00  0.00    +0.079 C 
BRANCH  13  14
ATOM     14  C   UNL     1      -0.443   1.527  24.909  0.00  0.00    +0.103 A 
ATOM     15  N   UNL     1      -0.188   1.637  25.685  0.00  0.00    -0.081 NA
ATOM     16  O   UNL     1      -0.372   2.411  25.905  0.00  0.00    -0.354 OA
ATOM     17  C   UNL     1      -0.740   2.778  25.265  0.00  0.00    +0.177 A 
ATOM     18  C   UNL     1      -0.784   2.231  24.648  0.00  0.00    +0.058 A 
BRANCH  17  19
ATOM     19  C   UNL     1      -1.016   3.556  25.245  0.00  0.00    +0.037 A 
ATOM     20  C   UNL     1      -0.575   4.140  24.865  0.00  0.00    +0.003 A 
ATOM     21  C   UNL     1      -0.851   4.917  24.845  0.00  0.00    +0.000 A 
ATOM     22  C   UNL     1      -1.569   5.109  25.205  0.00  0.00    +0.000 A 
ATOM     23  C   UNL     1      -2.010   4.525  25.584  0.00  0.00    +0.000 A 
ATOM     24  C   UNL     1      -1.733   3.747  25.604  0.00  0.00    +0.003 A 
ENDBRANCH  17  19
ENDBRANCH  13  14
ENDBRANCH  12  13
TORSDOF 8
ENDMDL
MODEL 4
REMARK VINA RESULT:     -11.6      1.388      3.930
REMARK  Name = 
REMARK  8 active torsions:
REMARK  status: ('A' for Active; 'I' for Inactive)
REMARK    1  A    between atoms: O_2  and  C_3
REMARK    2  A    between atoms: C_6  and  C_7
REMARK    3  A    between atoms: C_7  and  N_8
REMARK    4  A    between atoms: N_8  and  C_9
REMARK    5  A    between atoms: C_9  and  C_10
REMARK    6  A    between atoms: C_12  and  C_13
REMARK    7  A    between atoms: C_13  and  C_14
REMARK    8  A    between atoms: C_17  and  C_19
REMARK                            x       y       z     vdW  Elec       q    Type
REMARK                         _______ _______ _______ _____ _____    ______ ____
ROOT
ATOM     10  C   UNL     1      -0.657   1.796  25.244  0.00  0.00    +0.163 C 
ATOM     11  O   UNL     1      -1.265   2.269  25.540  0.00  0.00    -0.354 OA
ATOM     12  C   UNL     1      -1.292   3.072  25.352  0.00  0.00    +0.121 C 
ATOM     25  C   UNL     1      -0.712   3.401  24.867  0.00  0.00    +0.033 C 
ATOM     26  C   UNL     1      -0.104   2.929  24.570  0.00  0.00    +0.038 C 
ATOM     27  C   UNL     1      -0.077   2.126  24.759  0.00  0.00    +0.180 C 
ATOM     28  O   UNL     1       0.531   1.654  24.462  0.00  0.00    -0.220 OA
ENDROOT
BRANCH  10   9
ATOM      9  C   UNL     1      -0.629   0.994  25.432  0.00  0.00    +0.121 C 
BRANCH   9   8
ATOM      8  N   UNL     1      -1.279   0.510  25.276  0.00  0.00    -0.211 NA
BRANCH   8   7
ATOM      7  C   UNL     1      -1.332  -0.236  25.624  0.00  0.00    +0.115 C 
BRANCH   7   6
ATOM      3  C   UNL     1      -3.156  -1.779  24.977  0.00  0.00    +0.139 A 
ATOM      4  C   UNL     1      -3.274  -1.233  25.584  0.00  0.00    +0.037 A 
ATOM      5  C   UNL     1      -2.665  -0.719  25.799  0.00  0.00    +0.000 A 
ATOM      6  C   UNL     1      -1.940  -0.750  25.408  0.00  0.00    -0.005 A 
ATOM     29  C   UNL     1      -1.823  -1.296  24.801  0.00  0.00    +0.000 A 
ATOM     30  C   UNL     1      -2.430  -1.811  24.585  0.00  0.00    +0.037 A 
BRANCH   3   2
ATOM      1  C   UNL     1      -4.126  -2.218  24.025  0.00  0.00    +0.252 C 
ATOM      2  O   UNL     1      -3.763  -2.294  24.761  0.00  0.00    -0.471 OA
ENDBRANCH   3   2
ENDBRANCH   7   6
ENDBRANCH   8   7
ENDBRANCH   9   8
ENDBRANCH  10   9
BRANCH  12  13
ATOM     13  C   UNL     1      -1.899   3.544  25.648  0.00  0.00    +0.079 C 
BRANCH  13  14
ATOM     14  C   UNL     1      -2.658   3.491  25.326  0.00  0.00    +0.103 A 
ATOM     15  N   UNL     1      -2.945   3.927  24.688  0.00  0.00    -0.081 NA
ATOM     16  O   UNL     1      -3.727   3.697  24.554  0.00  0.00    -0.354 OA
ATOM     17  C   UNL     1      -3.922   3.120  25.110  0.00  0.00    +0.177 A 
ATOM     18  C   UNL     1      -3.261   2.992  25.588  0.00  0.00    +0.058 A 
BRANCH  17  19
ATOM     19  C   UNL     1      -4.650   2.737  25.177  0.00  0.00    +0.037 A 
ATOM     20  C   UNL     1      -4.812   2.075  24.713  0.00  0.00    +0.003 A 
ATOM     21  C   UNL     1      -5.540   1.693  24.779  0.00  0.00    +0.000 A 
ATOM     22  C   UNL     1      -6.106   1.973  25.311  0.00  0.00    +0.000 A 
ATOM     23  C   UNL     1      -5.944   2.635  25.774  0.00  0.00    +0.000 A 
ATOM     24  C   UNL     1      -5.215   3.018  25.708  0.00  0.00    +0.003 A 
ENDBRANCH  17  19
ENDBRANCH  13  14
ENDBRANCH  12  13
TORSDOF 8
ENDMDL
MODEL 5
REMARK VINA RESULT:     -11.4      1.327      5.047
REMARK  Name = 
REMARK  8 active torsions:
REMARK  status: ('A' for Active; 'I' for Inactive)
REMARK    1  A    between atoms: O_2  and  C_3
REMARK    2  A    between atoms: C_6  and  C_7
REMARK    3  A    between atoms: C_7  and  N_8
REMARK    4  A    between atoms: N_8  and  C_9
REMARK    5  A    between atoms: C_9  and  C_10
REMARK    6  A    between atoms: C_12  and  C_13
REMARK    7  A    between atoms: C_13  and  C_14
REMARK    8  A    between atoms: C_17  and  C_19
REMARK                            x       y       z     vdW  Elec       q    Type
REMARK                         _______ _______ _______ _____ _____    ______ ____
ROOT
ATOM     10  C   UNL     1      -5.089   2.010  25.119  0.00  0.00    +0.163 C 
ATOM     11  O   UNL     1      -4.470   2.493  24.864  0.00  0.00    -0.354 OA
ATOM     12  C   UNL     1      -4.487   3.303  25.021  0.00  0.00    +0.121 C 
ATOM     25  C   UNL     1      -5.123   3.630  25.433  0.00  0.00    +0.033 C 
ATOM     26  C   UNL     1      -5.742   3.148  25.688  0.00  0.00    +0.038 C 
ATOM     27  C   UNL     1      -5.724   2.337  25.531  0.00  0.00    +0.180 C 
ATOM     28  O   UNL     1      -6.343   1.855  25.787  0.00  0.00    -0.220 OA
ENDROOT
BRANCH  10   9
ATOM      9  C   UNL     1      -5.072   1.201  24.963  0.00  0.00    +0.121 C 
BRANCH   9   8
ATOM      8  N   UNL     1      -4.382   0.768  25.096  0.00  0.00    -0.211 NA
BRANCH   8   7
ATOM      7  C   UNL     1      -4.321  -0.007  24.823  0.00  0.00    +0.115 C 
BRANCH   7   6
ATOM      3  C   UNL     1      -2.213  -1.267  25.126  0.00  0.00    +0.139 A 
ATOM      4  C   UNL     1      -2.319  -0.796  24.457  0.00  0.00    +0.037 A 
ATOM      5  C   UNL     1      -3.022  -0.376  24.357  0.00  0.00    +0.000 A 
ATOM      6  C   UNL     1      -3.618  -0.427  24.924  0.00  0.00    -0.005 A 
ATOM     29  C   UNL     1      -3.512  -0.899  25.592  0.00  0.00    +0.000 A 
ATOM     30  C   UNL     1      -2.810  -1.319  25.694  0.00  0.00    +0.037 A 
BRANCH   3   2
ATOM      1  C   UNL     1      -0.787  -1.294  25.202  0.00  0.00    +0.252 C 
ATOM      2  O   UNL     1      -1.510  -1.688  25.227  0.00  0.00    -0.471 OA
ENDBRANCH   3   2
ENDBRANCH   7   6
ENDBRANCH   8   7
ENDBRANCH   9   8
ENDBRANCH  10   9
BRANCH  12  13
ATOM     13  C   UNL     1      -3.869   3.785  24.766  0.00  0.00    +0.079 C 
BRANCH  13  14
ATOM     14  C   UNL     1      -3.131   3.738  25.133  0.00  0.00    +0.103 A 
ATOM     15  N   UNL     1      -2.880   4.186  25.777  0.00  0.00    -0.081 NA
ATOM     16  O   UNL     1      -2.108   3.959  25.961  0.00  0.00    -0.354 OA
ATOM     17  C   UNL     1      -1.883   3.370  25.430  0.00  0.00    +0.177 A 
ATOM     18  C   UNL     1      -2.515   3.233  24.917  0.00  0.00    +0.058 A 
BRANCH  17  19
ATOM     19  C   UNL     1      -1.152   2.985  25.413  0.00  0.00    +0.037 A 
ATOM     20  C   UNL     1      -0.739   2.916  24.703  0.00  0.00    +0.003 A 
ATOM     21  C   UNL     1      -0.009   2.531  24.687  0.00  0.00    +0.000 A 
ATOM     22  C   UNL     1       0.306   2.216  25.382  0.00  0.00    +0.000 A 
ATOM     23  C   UNL     1      -0.108   2.286  26.092  0.00  0.00    +0.000 A 
ATOM     24  C   UNL     1      -0.838   2.671  26.108  0.00  0.00    +0.003 A 
ENDBRANCH  17  19
ENDBRANCH  13  14
ENDBRANCH  12  13
TORSDOF 8
ENDMDL
MODEL 6
REMARK VINA RESULT:     -11.4      1.393      3.840
REMARK  Name = 
REMARK  8 active torsions:
REMARK  status: ('A' for Active; 'I' for Inactive)
REMARK    1  A    between atoms: O_2  and  C_3
REMARK    2  A    between atoms: C_6  and  C_7
REMARK    3  A    between atoms: C_7  and  N_8
REMARK    4  A    between atoms: N_8  and  C_9
REMARK    5  A    between atoms: C_9  and  C_10
REMARK    6  A    between atoms: C_12  and  C_13
REMARK    7  A    between atoms: C_13  and  C_14
REMARK    8  A    between atoms: C_17  and  C_19
REMARK                            x       y       z     vdW  Elec       q    Type
REMARK                         _______ _______ _______ _____ _____    ______ ____
ROOT
ATOM     10  C   UNL     1      -1.180   2.541  24.863  0.00  0.00    +0.163 C 
ATOM     11  O   UNL     1      -1.312   1.814  25.231  0.00  0.00    -0.354 OA
ATOM     12  C   UNL     1      -0.704   1.260  25.280  0.00  0.00    +0.121 C 
ATOM     25  C   UNL     1       0.037   1.431  24.960  0.00  0.00    +0.033 C 
ATOM     26  C   UNL     1       0.170   2.157  24.591  0.00  0.00    +0.038 C 
ATOM     27  C   UNL     1      -0.439   2.712  24.542  0.00  0.00    +0.180 C 
ATOM     28  O   UNL     1      -0.307   3.438  24.173  0.00  0.00    -0.220 OA
ENDROOT
BRANCH  10   9
ATOM      9  C   UNL     1      -1.788   3.095  24.814  0.00  0.00    +0.121 C 
BRANCH   9   8
ATOM      8  N   UNL     1      -2.555   2.889  25.039  0.00  0.00    -0.211 NA
BRANCH   8   7
ATOM      7  C   UNL     1      -3.191   3.367  24.824  0.00  0.00    +0.115 C 
BRANCH   7   6
ATOM      3  C   UNL     1      -5.510   2.579  25.184  0.00  0.00    +0.139 A 
ATOM      4  C   UNL     1      -5.174   3.124  25.705  0.00  0.00    +0.037 A 
ATOM      5  C   UNL     1      -4.401   3.386  25.585  0.00  0.00    +0.000 A 
ATOM      6  C   UNL     1      -3.964   3.104  24.945  0.00  0.00    -0.005 A 
ATOM     29  C   UNL     1      -4.300   2.560  24.424  0.00  0.00    +0.000 A 
ATOM     30  C   UNL     1      -5.073   2.297  24.543  0.00  0.00    +0.037 A 
BRANCH   3   2
ATOM      1  C   UNL     1      -6.501   1.557  25.067  0.00  0.00    +0.252 C 
ATOM      2  O   UNL     1      -6.283   2.316  25.303  0.00  0.00    -0.471 OA
ENDBRANCH   3   2
ENDBRANCH   7   6
ENDBRANCH   8   7
ENDBRANCH   9   8
ENDBRANCH  10   9
BRANCH  12  13
ATOM     13  C   UNL     1      -0.835   0.535  25.649  0.00  0.00    +0.079 C 
BRANCH  13  14
ATOM     14  C   UNL     1      -1.163  -0.092  25.222  0.00  0.00    +0.103 A 
ATOM     15  N   UNL     1      -0.756  -0.592  24.708  0.00  0.00    -0.081 NA
ATOM     16  O   UNL     1      -1.296  -1.137  24.403  0.00  0.00    -0.354 OA
ATOM     17  C   UNL     1      -2.036  -0.972  24.728  0.00  0.00    +0.177 A 
ATOM     18  C   UNL     1      -1.954  -0.326  25.235  0.00  0.00    +0.058 A 
BRANCH  17  19
ATOM     19  C   UNL     1      -2.736  -1.382  24.574  0.00  0.00    +0.037 A 
ATOM     20  C   UNL     1      -3.375  -0.991  24.231  0.00  0.00    +0.003 A 
ATOM     21  C   UNL     1      -4.075  -1.401  24.076  0.00  0.00    +0.000 A 
ATOM     22  C   UNL     1      -4.133  -2.202  24.267  0.00  0.00    +0.000 A 
ATOM     23  C   UNL     1      -3.494  -2.593  24.610  0.00  0.00    +0.000 A 
ATOM     24  C   UNL     1      -2.794  -2.183  24.764  0.00  0.00    +0.003 A 
ENDBRANCH  17  19
ENDBRANCH  13  14
ENDBRANCH  12  13
TORSDOF 8
ENDMDL
MODEL 7
REMARK VINA RESULT:     -11.2      1.382      3.825
REMARK  Name = 
REMARK  8 active torsions:
REMARK  status: ('A' for Active; 'I' for Inactive)
REMARK    1  A    between atoms: O_2  and  C_3
REMARK    2  A    between atoms: C_6  and  C_7
REMARK    3  A    between atoms: C_7  and  N_8
REMARK    4  A    between atoms: N_8  and  C_9
REMARK    5  A    between atoms: C_9  and  C_10
REMARK    6  A    between atoms: C_12  and  C_13
REMARK    7  A    between atoms: C_13  and  C_14
REMARK    8  A    between atoms: C_17  and  C_19
REMARK                            x       y       z     vdW  Elec       q    Type
REMARK                         _______ _______ _______ _____ _____    ______ ____
ROOT
ATOM     10  C   UNL     1      -4.389   2.901  25.337  0.00  0.00    +0.163 C 
ATOM     11  O   UNL     1      -4.274   2.174  24.964  0.00  0.00    -0.354 OA
ATOM     12  C   UNL     1      -4.907   1.655  24.866  0.00  0.00    +0.121 C 
ATOM     25  C   UNL     1      -5.656   1.862  25.141  0.00  0.00    +0.033 C 
ATOM     26  C   UNL     1      -5.773   2.588  25.515  0.00  0.00    +0.038 C 
ATOM     27  C   UNL     1      -5.139   3.108  25.612  0.00  0.00    +0.180 C 
ATOM     28  O   UNL     1      -5.255   3.834  25.986  0.00  0.00    -0.220 OA
ENDROOT
BRANCH  10   9
ATOM      9  C   UNL     1      -3.756   3.420  25.435  0.00  0.00    +0.121 C 
BRANCH   9   8
ATOM      8  N   UNL     1      -3.013   3.226  25.134  0.00  0.00    -0.211 NA
BRANCH   8   7
ATOM      7  C   UNL     1      -2.336   3.576  25.449  0.00  0.00    +0.115 C 
BRANCH   7   6
ATOM      3  C   UNL     1      -0.115   2.558  25.051  0.00  0.00    +0.139 A 
ATOM      4  C   UNL     1      -0.405   2.627  25.821  0.00  0.00    +0.037 A 
ATOM      5  C   UNL     1      -1.146   2.967  25.953  0.00  0.00    +0.000 A 
ATOM      6  C   UNL     1      -1.596   3.237  25.317  0.00  0.00    -0.005 A 
ATOM     29  C   UNL     1      -1.306   3.167  24.548  0.00  0.00    +0.000 A 
ATOM     30  C   UNL     1      -0.566   2.828  24.414  0.00  0.00    +0.037 A 
BRANCH   3   2
ATOM      1  C   UNL     1       0.747   1.742  24.257  0.00  0.00    +0.252 C 
ATOM      2  O   UNL     1       0.625   2.219  24.918  0.00  0.00    -0.471 OA
ENDBRANCH   3   2
ENDBRANCH   7   6
ENDBRANCH   8   7
ENDBRANCH   9   8
ENDBRANCH  10   9
BRANCH  12  13
ATOM     13  C   UNL     1      -4.791   0.929  24.493  0.00  0.00    +0.079 C 
BRANCH  13  14
ATOM     14  C   UNL     1      -4.336   0.345  24.858  0.00  0.00    +0.103 A 
ATOM     15  N   UNL     1      -4.543  -0.077  25.536  0.00  0.00    -0.081 NA
ATOM     16  O   UNL     1      -3.930  -0.602  25.706  0.00  0.00    -0.354 OA
ATOM     17  C   UNL     1      -3.344  -0.504  25.134  0.00  0.00    +0.177 A 
ATOM     18  C   UNL     1      -3.595   0.082  24.609  0.00  0.00    +0.058 A 
BRANCH  17  19
ATOM     19  C   UNL     1      -2.631  -0.919  25.093  0.00  0.00    +0.037 A 
ATOM     20  C   UNL     1      -1.960  -0.624  25.471  0.00  0.00    +0.003 A 
ATOM     21  C   UNL     1      -1.248  -1.039  25.430  0.00  0.00    +0.000 A 
ATOM     22  C   UNL     1      -1.208  -1.749  25.012  0.00  0.00    +0.000 A 
ATOM     23  C   UNL     1      -1.879  -2.044  24.635  0.00  0.00    +0.000 A 
ATOM     24  C   UNL     1      -2.592  -1.629  24.675  0.00  0.00    +0.003 A 
ENDBRANCH  17  19
ENDBRANCH  13  14
ENDBRANCH  12  13
TORSDOF 8
ENDMDL
