REMARK  Name = 
REMARK  6 active torsions:
REMARK  status: ('A' for Active; 'I' for Inactive)
REMARK    1  A    between atoms: N_6  and  C_7
REMARK    2  A    between atoms: C_7  and  C_8
REMARK    3  A    between atoms: C_18  and  C_19
REMARK    4  A    between atoms: C_19  and  C_20
REMARK    5  A    between atoms: C_20  and  C_21
REMARK    6  A    between atoms: N_23  and  C_24
REMARK                            x       y       z     vdW  Elec       q    Type
REMARK                         _______ _______ _______ _____ _____    ______ ____
ROOT
ATOM      1  C   UNL     1       0.461  -1.319   0.000  0.00  0.00    +0.090 C 
ATOM      2  N   UNL     1       0.645  -0.514   0.000  0.00  0.00    -0.271 NA
ATOM      3  C   UNL     1       0.000   0.000   0.000  0.00  0.00    +0.083 C 
ATOM      4  C   UNL     1      -0.785  -0.255   0.000  0.00  0.00    +0.035 C 
ATOM      5  C   UNL     1      -1.270   0.412   0.000  0.00  0.00    +0.074 C 
ATOM      6  N   UNL     1      -0.785   1.080   0.000  0.00  0.00    -0.260 NA
ATOM     13  C   UNL     1       0.000   0.825   0.000  0.00  0.00    +0.152 C 
ATOM     14  C   UNL     1       0.645   1.339   0.000  0.00  0.00    +0.257 C 
ATOM     15  O   UNL     1       0.461   2.144   0.000  0.00  0.00    -0.272 OA
ATOM     16  N   UNL     1       1.449   1.156   0.000  0.00  0.00    -0.203 NA
ATOM     17  C   UNL     1       1.807   0.412   0.000  0.00  0.00    +0.131 C 
ATOM     18  C   UNL     1       1.449  -0.331   0.000  0.00  0.00    +0.080 C 
ENDROOT
BRANCH   6   7
ATOM      7  C   UNL     1      -1.040   1.865   0.000  0.00  0.00    +0.121 C 
BRANCH   7   8
ATOM      8  C   UNL     1      -1.847   2.036   0.000  0.00  0.00    +0.105 A 
ATOM      9  C   UNL     1      -2.460   1.484   0.000  0.00  0.00    +0.074 A 
ATOM     10  S   UNL     1      -3.174   1.897   0.000  0.00  0.00    +0.038 S 
ATOM     11  N   UNL     1      -3.003   2.704   0.000  0.00  0.00    -0.110 NA
ATOM     12  N   UNL     1      -2.182   2.790   0.000  0.00  0.00    -0.143 NA
ENDBRANCH   7   8
ENDBRANCH   6   7
BRANCH  18  19
ATOM     19  C   UNL     1       1.964  -0.976   0.000  0.00  0.00    +0.027 C 
BRANCH  19  20
ATOM     20  C   UNL     1       2.780  -0.853   0.000  0.00  0.00    +0.089 C 
BRANCH  20  21
ATOM     21  C   UNL     1       3.294  -1.498   0.000  0.00  0.00    +0.246 C 
ATOM     22  O   UNL     1       2.993  -2.266   0.000  0.00  0.00    -0.273 OA
ATOM     23  N   UNL     1       4.110  -1.375   0.000  0.00  0.00    -0.179 NA
BRANCH  23  24
ATOM     24  C   UNL     1       4.624  -2.020   0.000  0.00  0.00    +0.073 A 
ATOM     25  C   UNL     1       5.440  -1.897   0.000  0.00  0.00    +0.017 A 
ATOM     26  C   UNL     1       5.954  -2.542   0.000  0.00  0.00    +0.001 A 
ATOM     27  C   UNL     1       5.653  -3.310   0.000  0.00  0.00    +0.000 A 
ATOM     28  C   UNL     1       4.837  -3.433   0.000  0.00  0.00    +0.001 A 
ATOM     29  C   UNL     1       4.323  -2.788   0.000  0.00  0.00    +0.017 A 
ENDBRANCH  23  24
ENDBRANCH  20  21
ENDBRANCH  19  20
ENDBRANCH  18  19
TORSDOF 6
