MODEL 1
REMARK VINA RESULT:     -11.0      0.000      0.000
REMARK  Name = 
REMARK  9 active torsions:
REMARK  status: ('A' for Active; 'I' for Inactive)
REMARK    1  A    between atoms: C_5  and  S_7
REMARK    2  A    between atoms: S_7  and  N_10
REMARK    3  A    between atoms: N_10  and  C_11
REMARK    4  A    between atoms: C_15  and  C_17
REMARK    5  A    between atoms: N_19  and  C_20
REMARK    6  A    between atoms: C_20  and  C_21
REMARK    7  A    between atoms: C_20  and  C_28
REMARK    8  A    between atoms: C_21  and  C_22
REMARK    9  A    between atoms: C_31  and  C_33
REMARK                            x       y       z     vdW  Elec       q    Type
REMARK                         _______ _______ _______ _____ _____    ______ ____
ROOT
ATOM     11  C   UNL     1      -3.644   1.173  24.040  0.00  0.00    +0.102 C 
ATOM     12  C   UNL     1      -3.734   0.355  23.988  0.00  0.00    +0.041 C 
ATOM     13  C   UNL     1      -3.136  -0.144  24.258  0.00  0.00    +0.096 C 
ATOM     14  N   UNL     1      -2.446   0.175  24.580  0.00  0.00    -0.268 N 
ATOM     15  C   UNL     1      -2.355   0.994  24.631  0.00  0.00    +0.155 C 
ATOM     16  C   UNL     1      -2.955   1.492  24.361  0.00  0.00    +0.049 C 
ATOM     31  C   UNL     1      -1.846  -0.323  24.850  0.00  0.00    +0.268 C 
ATOM     32  O   UNL     1      -1.157  -0.003  25.171  0.00  0.00    -0.268 OA
ENDROOT
BRANCH  31  33
ATOM     33  C   UNL     1      -1.937  -1.142  24.799  0.00  0.00    +0.141 A 
ATOM     34  C   UNL     1      -1.468  -1.655  24.354  0.00  0.00    +0.060 A 
ATOM     35  S   UNL     1      -1.753  -2.420  24.463  0.00  0.00    -0.070 S 
ATOM     36  C   UNL     1      -2.399  -2.381  24.977  0.00  0.00    +0.089 A 
ATOM     37  C   UNL     1      -2.851  -3.020  25.237  0.00  0.00    +0.059 C 
ATOM     38  N   UNL     1      -2.512  -1.591  25.183  0.00  0.00    -0.238 NA
ENDBRANCH  31  33
BRANCH  15  17
ATOM     17  C   UNL     1      -1.667   1.314  24.953  0.00  0.00    +0.260 C 
ATOM     18  O   UNL     1      -1.317   0.964  25.612  0.00  0.00    -0.272 OA
ATOM     19  N   UNL     1      -1.327   1.986  24.613  0.00  0.00    -0.196 NA
BRANCH  19  20
ATOM     20  C   UNL     1      -0.638   2.306  24.935  0.00  0.00    +0.179 C 
BRANCH  20  28
ATOM     28  C   UNL     1       0.099   2.087  24.634  0.00  0.00    +0.281 C 
ATOM     29  N   UNL     1       0.722   1.921  25.147  0.00  0.00    -0.086 NA
ATOM     30  O   UNL     1       0.211   2.034  23.818  0.00  0.00    -0.270 OA
ENDBRANCH  20  28
BRANCH  20  21
ATOM     21  C   UNL     1      -0.685   2.845  25.558  0.00  0.00    +0.057 C 
BRANCH  21  22
ATOM     22  C   UNL     1      -0.938   3.617  25.416  0.00  0.00    -0.020 A 
ATOM     23  C   UNL     1      -0.518   4.100  24.895  0.00  0.00    -0.004 A 
ATOM     24  C   UNL     1      -0.771   4.873  24.753  0.00  0.00    -0.000 A 
ATOM     25  C   UNL     1      -1.444   5.162  25.131  0.00  0.00    -0.000 A 
ATOM     26  C   UNL     1      -1.865   4.680  25.652  0.00  0.00    -0.000 A 
ATOM     27  C   UNL     1      -1.612   3.907  25.795  0.00  0.00    -0.004 A 
ENDBRANCH  21  22
ENDBRANCH  20  21
ENDBRANCH  19  20
ENDBRANCH  15  17
BRANCH  11  10
ATOM     10  N   UNL     1      -4.243   1.672  23.770  0.00  0.00    -0.078 NA
BRANCH  10   7
ATOM      7  S   UNL     1      -4.686   2.112  24.308  0.00  0.00    +0.095 S 
ATOM      8  O   UNL     1      -4.335   2.805  24.028  0.00  0.00    -0.150 OA
ATOM      9  O   UNL     1      -5.036   1.421  24.587  0.00  0.00    -0.150 OA
BRANCH   7   5
ATOM      1  C   UNL     1      -5.761   4.338  25.832  0.00  0.00    +0.132 C 
ATOM      2  N   UNL     1      -5.623   3.577  25.546  0.00  0.00    -0.305 N 
ATOM      3  C   UNL     1      -5.999   2.888  25.803  0.00  0.00    +0.180 A 
ATOM      4  N   UNL     1      -5.693   2.256  25.370  0.00  0.00    -0.204 NA
ATOM      5  C   UNL     1      -5.129   2.554  24.846  0.00  0.00    +0.223 A 
ATOM      6  C   UNL     1      -5.087   3.371  24.956  0.00  0.00    +0.117 A 
ENDBRANCH   7   5
ENDBRANCH  10   7
ENDBRANCH  11  10
TORSDOF 9
ENDMDL
MODEL 2
REMARK VINA RESULT:     -10.7      1.798      4.010
REMARK  Name = 
REMARK  9 active torsions:
REMARK  status: ('A' for Active; 'I' for Inactive)
REMARK    1  A    between atoms: C_5  and  S_7
REMARK    2  A    between atoms: S_7  and  N_10
REMARK    3  A    between atoms: N_10  and  C_11
REMARK    4  A    between atoms: C_15  and  C_17
REMARK    5  A    between atoms: N_19  and  C_20
REMARK    6  A    between atoms: C_20  and  C_21
REMARK    7  A    between atoms: C_20  and  C_28
REMARK    8  A    between atoms: C_21  and  C_22
REMARK    9  A    between atoms: C_31  and  C_33
REMARK                            x       y       z     vdW  Elec       q    Type
REMARK                         _______ _______ _______ _____ _____    ______ ____
ROOT
ATOM     11  C   UNL     1      -1.875  -0.234  25.334  0.00  0.00    +0.102 C 
ATOM     12  C   UNL     1      -1.136  -0.473  25.057  0.00  0.00    +0.041 C 
ATOM     13  C   UNL     1      -0.666   0.053  24.629  0.00  0.00    +0.096 C 
ATOM     14  N   UNL     1      -0.936   0.818  24.478  0.00  0.00    -0.268 N 
ATOM     15  C   UNL     1      -1.675   1.057  24.755  0.00  0.00    +0.155 C 
ATOM     16  C   UNL     1      -2.145   0.531  25.183  0.00  0.00    +0.049 C 
ATOM     31  C   UNL     1      -0.466   1.344  24.049  0.00  0.00    +0.268 C 
ATOM     32  O   UNL     1      -0.736   2.109  23.899  0.00  0.00    -0.268 OA
ENDROOT
BRANCH  31  33
ATOM     33  C   UNL     1       0.273   1.105  23.772  0.00  0.00    +0.141 A 
ATOM     34  C   UNL     1       1.004   1.374  24.044  0.00  0.00    +0.060 A 
ATOM     35  S   UNL     1       1.593   0.990  23.614  0.00  0.00    -0.070 S 
ATOM     36  C   UNL     1       1.227   0.483  23.076  0.00  0.00    +0.089 A 
ATOM     37  C   UNL     1       1.610  -0.009  22.535  0.00  0.00    +0.059 C 
ATOM     38  N   UNL     1       0.411   0.554  23.174  0.00  0.00    -0.238 NA
ENDBRANCH  31  33
BRANCH  15  17
ATOM     17  C   UNL     1      -1.945   1.822  24.604  0.00  0.00    +0.260 C 
ATOM     18  O   UNL     1      -1.722   2.209  23.911  0.00  0.00    -0.272 OA
ATOM     19  N   UNL     1      -2.439   2.200  25.148  0.00  0.00    -0.196 NA
BRANCH  19  20
ATOM     20  C   UNL     1      -2.708   2.964  24.997  0.00  0.00    +0.179 C 
BRANCH  20  28
ATOM     28  C   UNL     1      -2.327   3.612  25.339  0.00  0.00    +0.281 C 
ATOM     29  N   UNL     1      -2.172   4.285  24.889  0.00  0.00    -0.086 NA
ATOM     30  O   UNL     1      -2.102   3.585  26.133  0.00  0.00    -0.270 OA
ENDBRANCH  20  28
BRANCH  20  21
ATOM     21  C   UNL     1      -3.360   3.082  24.504  0.00  0.00    +0.057 C 
BRANCH  21  22
ATOM     22  C   UNL     1      -4.122   2.953  24.791  0.00  0.00    -0.020 A 
ATOM     23  C   UNL     1      -4.588   2.352  24.471  0.00  0.00    -0.004 A 
ATOM     24  C   UNL     1      -5.351   2.223  24.757  0.00  0.00    -0.000 A 
ATOM     25  C   UNL     1      -5.648   2.696  25.364  0.00  0.00    -0.000 A 
ATOM     26  C   UNL     1      -5.183   3.297  25.685  0.00  0.00    -0.000 A 
ATOM     27  C   UNL     1      -4.420   3.426  25.398  0.00  0.00    -0.004 A 
ENDBRANCH  21  22
ENDBRANCH  20  21
ENDBRANCH  19  20
ENDBRANCH  15  17
BRANCH  11  10
ATOM     10  N   UNL     1      -2.345  -0.760  25.762  0.00  0.00    -0.078 NA
BRANCH  10   7
ATOM      7  S   UNL     1      -2.795  -1.326  25.367  0.00  0.00    +0.095 S 
ATOM      8  O   UNL     1      -3.474  -0.873  25.490  0.00  0.00    -0.150 OA
ATOM      9  O   UNL     1      -2.118  -1.779  25.243  0.00  0.00    -0.150 OA
BRANCH   7   5
ATOM      1  C   UNL     1      -4.667  -2.579  23.533  0.00  0.00    +0.132 C 
ATOM      2  N   UNL     1      -4.106  -2.468  24.128  0.00  0.00    -0.305 N 
ATOM      3  C   UNL     1      -3.772  -3.061  24.595  0.00  0.00    +0.180 A 
ATOM      4  N   UNL     1      -3.240  -2.705  25.116  0.00  0.00    -0.204 NA
ATOM      5  C   UNL     1      -3.246  -1.893  24.970  0.00  0.00    +0.223 A 
ATOM      6  C   UNL     1      -3.781  -1.747  24.360  0.00  0.00    +0.117 A 
ENDBRANCH   7   5
ENDBRANCH  10   7
ENDBRANCH  11  10
TORSDOF 9
ENDMDL
MODEL 3
REMARK VINA RESULT:     -10.6      1.959      5.826
REMARK  Name = 
REMARK  9 active torsions:
REMARK  status: ('A' for Active; 'I' for Inactive)
REMARK    1  A    between atoms: C_5  and  S_7
REMARK    2  A    between atoms: S_7  and  N_10
REMARK    3  A    between atoms: N_10  and  C_11
REMARK    4  A    between atoms: C_15  and  C_17
REMARK    5  A    between atoms: N_19  and  C_20
REMARK    6  A    between atoms: C_20  and  C_21
REMARK    7  A    between atoms: C_20  and  C_28
REMARK    8  A    between atoms: C_21  and  C_22
REMARK    9  A    between atoms: C_31  and  C_33
REMARK                            x       y       z     vdW  Elec       q    Type
REMARK                         _______ _______ _______ _____ _____    ______ ____
ROOT
ATOM     11  C   UNL     1      -0.574   0.756  24.747  0.00  0.00    +0.102 C 
ATOM     12  C   UNL     1      -0.402   1.531  24.970  0.00  0.00    +0.041 C 
ATOM     13  C   UNL     1      -1.006   2.091  25.012  0.00  0.00    +0.096 C 
ATOM     14  N   UNL     1      -1.782   1.876  24.830  0.00  0.00    -0.268 N 
ATOM     15  C   UNL     1      -1.953   1.100  24.607  0.00  0.00    +0.155 C 
ATOM     16  C   UNL     1      -1.349   0.541  24.565  0.00  0.00    +0.049 C 
ATOM     31  C   UNL     1      -2.386   2.436  24.872  0.00  0.00    +0.268 C 
ATOM     32  O   UNL     1      -3.161   2.221  24.690  0.00  0.00    -0.268 OA
ENDROOT
BRANCH  31  33
ATOM     33  C   UNL     1      -2.215   3.212  25.095  0.00  0.00    +0.141 A 
ATOM     34  C   UNL     1      -2.400   3.561  25.819  0.00  0.00    +0.060 A 
ATOM     35  S   UNL     1      -2.128   4.338  25.805  0.00  0.00    -0.070 S 
ATOM     36  C   UNL     1      -1.773   4.471  25.072  0.00  0.00    +0.089 A 
ATOM     37  C   UNL     1      -1.426   5.176  24.821  0.00  0.00    +0.059 C 
ATOM     38  N   UNL     1      -1.827   3.774  24.634  0.00  0.00    -0.238 NA
ENDBRANCH  31  33
BRANCH  15  17
ATOM     17  C   UNL     1      -2.728   0.885  24.425  0.00  0.00    +0.260 C 
ATOM     18  O   UNL     1      -3.138   1.281  23.830  0.00  0.00    -0.272 OA
ATOM     19  N   UNL     1      -3.094   0.272  24.840  0.00  0.00    -0.196 NA
BRANCH  19  20
ATOM     20  C   UNL     1      -3.869   0.056  24.659  0.00  0.00    +0.179 C 
BRANCH  20  28
ATOM     28  C   UNL     1      -4.495   0.348  25.110  0.00  0.00    +0.281 C 
ATOM     29  N   UNL     1      -5.122   0.738  24.743  0.00  0.00    -0.086 NA
ATOM     30  O   UNL     1      -4.493   0.249  25.930  0.00  0.00    -0.270 OA
ENDBRANCH  20  28
BRANCH  20  21
ATOM     21  C   UNL     1      -4.018  -0.451  24.025  0.00  0.00    +0.057 C 
BRANCH  21  22
ATOM     22  C   UNL     1      -3.966  -1.268  24.130  0.00  0.00    -0.020 A 
ATOM     23  C   UNL     1      -4.365  -1.776  23.618  0.00  0.00    -0.004 A 
ATOM     24  C   UNL     1      -4.314  -2.593  23.723  0.00  0.00    -0.000 A 
ATOM     25  C   UNL     1      -3.863  -2.901  24.340  0.00  0.00    -0.000 A 
ATOM     26  C   UNL     1      -3.463  -2.394  24.853  0.00  0.00    -0.000 A 
ATOM     27  C   UNL     1      -3.515  -1.577  24.748  0.00  0.00    -0.004 A 
ENDBRANCH  21  22
ENDBRANCH  20  21
ENDBRANCH  19  20
ENDBRANCH  15  17
BRANCH  11  10
ATOM     10  N   UNL     1       0.031   0.195  24.705  0.00  0.00    -0.078 NA
BRANCH  10   7
ATOM      7  S   UNL     1       0.470   0.114  24.012  0.00  0.00    +0.095 S 
ATOM      8  O   UNL     1       0.839   0.837  24.161  0.00  0.00    -0.150 OA
ATOM      9  O   UNL     1       0.102  -0.608  23.862  0.00  0.00    -0.150 OA
BRANCH   7   5
ATOM      1  C   UNL     1       2.679   0.106  22.127  0.00  0.00    +0.132 C 
ATOM      2  N   UNL     1       1.925   0.030  22.452  0.00  0.00    -0.305 N 
ATOM      3  C   UNL     1       1.246  -0.212  22.049  0.00  0.00    +0.180 A 
ATOM      4  N   UNL     1       0.619  -0.210  22.585  0.00  0.00    -0.204 NA
ATOM      5  C   UNL     1       0.910   0.033  23.318  0.00  0.00    +0.223 A 
ATOM      6  C   UNL     1       1.717   0.181  23.235  0.00  0.00    +0.117 A 
ENDBRANCH   7   5
ENDBRANCH  10   7
ENDBRANCH  11  10
TORSDOF 9
ENDMDL
MODEL 4
REMARK VINA RESULT:     -10.5      1.921      4.234
REMARK  Name = 
REMARK  9 active torsions:
REMARK  status: ('A' for Active; 'I' for Inactive)
REMARK    1  A    between atoms: C_5  and  S_7
REMARK    2  A    between atoms: S_7  and  N_10
REMARK    3  A    between atoms: N_10  and  C_11
REMARK    4  A    between atoms: C_15  and  C_17
REMARK    5  A    between atoms: N_19  and  C_20
REMARK    6  A    between atoms: C_20  and  C_21
REMARK    7  A    between atoms: C_20  and  C_28
REMARK    8  A    between atoms: C_21  and  C_22
REMARK    9  A    between atoms: C_31  and  C_33
REMARK                            x       y       z     vdW  Elec       q    Type
REMARK                         _______ _______ _______ _____ _____    ______ ____
ROOT
ATOM     11  C   UNL     1      -0.619   0.112  24.611  0.00  0.00    +0.102 C 
ATOM     12  C   UNL     1      -0.931  -0.650  24.560  0.00  0.00    +0.041 C 
ATOM     13  C   UNL     1      -1.747  -0.764  24.592  0.00  0.00    +0.096 C 
ATOM     14  N   UNL     1      -2.251  -0.116  24.675  0.00  0.00    -0.268 N 
ATOM     15  C   UNL     1      -1.939   0.646  24.726  0.00  0.00    +0.155 C 
ATOM     16  C   UNL     1      -1.122   0.759  24.694  0.00  0.00    +0.049 C 
ATOM     31  C   UNL     1      -3.068  -0.230  24.707  0.00  0.00    +0.268 C 
ATOM     32  O   UNL     1      -3.572   0.418  24.790  0.00  0.00    -0.268 OA
ENDROOT
BRANCH  31  33
ATOM     33  C   UNL     1      -3.380  -0.992  24.656  0.00  0.00    +0.141 A 
ATOM     34  C   UNL     1      -3.414  -1.544  25.268  0.00  0.00    +0.060 A 
ATOM     35  S   UNL     1      -3.768  -2.228  24.975  0.00  0.00    -0.070 S 
ATOM     36  C   UNL     1      -3.953  -2.100  24.181  0.00  0.00    +0.089 A 
ATOM     37  C   UNL     1      -4.315  -2.640  23.673  0.00  0.00    +0.059 C 
ATOM     38  N   UNL     1      -3.713  -1.335  23.985  0.00  0.00    -0.238 NA
ENDBRANCH  31  33
BRANCH  15  17
ATOM     17  C   UNL     1      -2.443   1.294  24.809  0.00  0.00    +0.260 C 
ATOM     18  O   UNL     1      -3.109   1.239  25.290  0.00  0.00    -0.272 OA
ATOM     19  N   UNL     1      -2.278   1.997  24.409  0.00  0.00    -0.196 NA
BRANCH  19  20
ATOM     20  C   UNL     1      -2.782   2.645  24.492  0.00  0.00    +0.179 C 
BRANCH  20  28
ATOM     28  C   UNL     1      -3.345   2.809  23.911  0.00  0.00    +0.281 C 
ATOM     29  N   UNL     1      -4.120   2.991  24.126  0.00  0.00    -0.086 NA
ATOM     30  O   UNL     1      -3.131   2.789  23.114  0.00  0.00    -0.270 OA
ENDBRANCH  20  28
BRANCH  20  21
ATOM     21  C   UNL     1      -2.723   3.130  25.158  0.00  0.00    +0.057 C 
BRANCH  21  22
ATOM     22  C   UNL     1      -2.225   3.788  25.145  0.00  0.00    -0.020 A 
ATOM     23  C   UNL     1      -2.528   4.538  25.304  0.00  0.00    -0.004 A 
ATOM     24  C   UNL     1      -2.030   5.197  25.292  0.00  0.00    -0.000 A 
ATOM     25  C   UNL     1      -1.229   5.103  25.121  0.00  0.00    -0.000 A 
ATOM     26  C   UNL     1      -0.925   4.353  24.962  0.00  0.00    -0.000 A 
ATOM     27  C   UNL     1      -1.423   3.695  24.974  0.00  0.00    -0.004 A 
ENDBRANCH  21  22
ENDBRANCH  20  21
ENDBRANCH  19  20
ENDBRANCH  15  17
BRANCH  11  10
ATOM     10  N   UNL     1       0.198   0.226  24.578  0.00  0.00    -0.078 NA
BRANCH  10   7
ATOM      7  S   UNL     1       0.602   0.116  23.868  0.00  0.00    +0.095 S 
ATOM      8  O   UNL     1       0.601   0.932  23.742  0.00  0.00    -0.150 OA
ATOM      9  O   UNL     1       0.603  -0.698  23.993  0.00  0.00    -0.150 OA
BRANCH   7   5
ATOM      1  C   UNL     1       2.715   0.015  21.879  0.00  0.00    +0.132 C 
ATOM      2  N   UNL     1       1.977  -0.039  22.242  0.00  0.00    -0.305 N 
ATOM      3  C   UNL     1       1.276  -0.283  21.881  0.00  0.00    +0.180 A 
ATOM      4  N   UNL     1       0.675  -0.254  22.446  0.00  0.00    -0.204 NA
ATOM      5  C   UNL     1       1.006   0.007  23.156  0.00  0.00    +0.223 A 
ATOM      6  C   UNL     1       1.810   0.140  23.029  0.00  0.00    +0.117 A 
ENDBRANCH   7   5
ENDBRANCH  10   7
ENDBRANCH  11  10
TORSDOF 9
ENDMDL
MODEL 5
REMARK VINA RESULT:     -10.3      1.822      4.148
REMARK  Name = 
REMARK  9 active torsions:
REMARK  status: ('A' for Active; 'I' for Inactive)
REMARK    1  A    between atoms: C_5  and  S_7
REMARK    2  A    between atoms: S_7  and  N_10
REMARK    3  A    between atoms: N_10  and  C_11
REMARK    4  A    between atoms: C_15  and  C_17
REMARK    5  A    between atoms: N_19  and  C_20
REMARK    6  A    between atoms: C_20  and  C_21
REMARK    7  A    between atoms: C_20  and  C_28
REMARK    8  A    between atoms: C_21  and  C_22
REMARK    9  A    between atoms: C_31  and  C_33
REMARK                            x       y       z     vdW  Elec       q    Type
REMARK                         _______ _______ _______ _____ _____    ______ ____
ROOT
ATOM     11  C   UNL     1      -2.538   1.926  23.549  0.00  0.00    +0.102 C 
ATOM     12  C   UNL     1      -1.782   2.031  23.237  0.00  0.00    +0.041 C 
ATOM     13  C   UNL     1      -1.178   1.505  23.433  0.00  0.00    +0.096 C 
ATOM     14  N   UNL     1      -1.330   0.873  23.942  0.00  0.00    -0.268 N 
ATOM     15  C   UNL     1      -2.087   0.768  24.255  0.00  0.00    +0.155 C 
ATOM     16  C   UNL     1      -2.691   1.295  24.058  0.00  0.00    +0.049 C 
ATOM     31  C   UNL     1      -0.727   0.346  24.139  0.00  0.00    +0.268 C 
ATOM     32  O   UNL     1      -0.879  -0.285  24.648  0.00  0.00    -0.268 OA
ENDROOT
BRANCH  31  33
ATOM     33  C   UNL     1       0.030   0.451  23.826  0.00  0.00    +0.141 A 
ATOM     34  C   UNL     1       0.575   1.026  24.056  0.00  0.00    +0.060 A 
ATOM     35  S   UNL     1       1.255   0.929  23.601  0.00  0.00    -0.070 S 
ATOM     36  C   UNL     1       1.131   0.294  23.089  0.00  0.00    +0.089 A 
ATOM     37  C   UNL     1       1.670   0.006  22.535  0.00  0.00    +0.059 C 
ATOM     38  N   UNL     1       0.373  -0.001  23.228  0.00  0.00    -0.238 NA
ENDBRANCH  31  33
BRANCH  15  17
ATOM     17  C   UNL     1      -2.240   0.138  24.764  0.00  0.00    +0.260 C 
ATOM     18  O   UNL     1      -1.711  -0.040  25.371  0.00  0.00    -0.272 OA
ATOM     19  N   UNL     1      -2.922  -0.316  24.665  0.00  0.00    -0.196 NA
BRANCH  19  20
ATOM     20  C   UNL     1      -3.075  -0.947  25.174  0.00  0.00    +0.179 C 
BRANCH  20  28
ATOM     28  C   UNL     1      -3.468  -0.816  25.888  0.00  0.00    +0.281 C 
ATOM     29  N   UNL     1      -3.178  -1.146  26.585  0.00  0.00    -0.086 NA
ATOM     30  O   UNL     1      -4.152  -0.355  25.902  0.00  0.00    -0.270 OA
ENDBRANCH  20  28
BRANCH  20  21
ATOM     21  C   UNL     1      -2.834  -1.709  24.969  0.00  0.00    +0.057 C 
BRANCH  21  22
ATOM     22  C   UNL     1      -3.338  -2.198  24.537  0.00  0.00    -0.020 A 
ATOM     23  C   UNL     1      -3.317  -3.016  24.649  0.00  0.00    -0.004 A 
ATOM     24  C   UNL     1      -3.821  -3.506  24.216  0.00  0.00    -0.000 A 
ATOM     25  C   UNL     1      -4.346  -3.178  23.672  0.00  0.00    -0.000 A 
ATOM     26  C   UNL     1      -4.368  -2.361  23.558  0.00  0.00    -0.000 A 
ATOM     27  C   UNL     1      -3.863  -1.871  23.991  0.00  0.00    -0.004 A 
ENDBRANCH  21  22
ENDBRANCH  20  21
ENDBRANCH  19  20
ENDBRANCH  15  17
BRANCH  11  10
ATOM     10  N   UNL     1      -3.142   2.453  23.353  0.00  0.00    -0.078 NA
BRANCH  10   7
ATOM      7  S   UNL     1      -3.586   2.812  23.949  0.00  0.00    +0.095 S 
ATOM      8  O   UNL     1      -4.226   2.323  23.766  0.00  0.00    -0.150 OA
ATOM      9  O   UNL     1      -2.947   3.299  24.131  0.00  0.00    -0.150 OA
BRANCH   7   5
ATOM      1  C   UNL     1      -5.737   3.428  25.799  0.00  0.00    +0.132 C 
ATOM      2  N   UNL     1      -5.018   3.454  25.395  0.00  0.00    -0.305 N 
ATOM      3  C   UNL     1      -4.407   3.991  25.528  0.00  0.00    +0.180 A 
ATOM      4  N   UNL     1      -3.796   3.816  25.002  0.00  0.00    -0.204 NA
ATOM      5  C   UNL     1      -4.030   3.171  24.545  0.00  0.00    +0.223 A 
ATOM      6  C   UNL     1      -4.786   2.947  24.788  0.00  0.00    +0.117 A 
ENDBRANCH   7   5
ENDBRANCH  10   7
ENDBRANCH  11  10
TORSDOF 9
ENDMDL
