MODEL 1
REMARK VINA RESULT:     -10.9      0.000      0.000
REMARK  Name = 
REMARK  3 active torsions:
REMARK  status: ('A' for Active; 'I' for Inactive)
REMARK    1  A    between atoms: C_2  and  N_4
REMARK    2  A    between atoms: N_7  and  C_8
REMARK    3  A    between atoms: C_20  and  C_25
REMARK                            x       y       z     vdW  Elec       q    Type
REMARK                         _______ _______ _______ _____ _____    ______ ____
ROOT
ATOM      8  C   UNL     1      -3.965  -0.030  24.156  0.00  0.00    +0.101 C 
ATOM      9  C   UNL     1      -3.241   0.140  23.800  0.00  0.00    +0.043 C 
ATOM     10  C   UNL     1      -2.877   0.869  23.928  0.00  0.00    +0.096 C 
ATOM     11  N   UNL     1      -3.239   1.430  24.414  0.00  0.00    -0.269 N 
ATOM     12  C   UNL     1      -3.963   1.260  24.770  0.00  0.00    +0.156 C 
ATOM     13  C   UNL     1      -4.326   0.531  24.642  0.00  0.00    +0.051 C 
ATOM     14  C   UNL     1      -4.414   1.738  25.270  0.00  0.00    +0.264 C 
ATOM     15  O   UNL     1      -5.120   1.407  25.539  0.00  0.00    -0.271 OA
ATOM     16  N   UNL     1      -4.252   2.502  25.536  0.00  0.00    -0.178 NA
ATOM     17  C   UNL     1      -3.599   2.977  25.369  0.00  0.00    +0.078 A 
ATOM     18  C   UNL     1      -3.652   3.708  25.749  0.00  0.00    +0.017 A 
ATOM     19  C   UNL     1      -3.053   4.266  25.654  0.00  0.00    +0.001 A 
ATOM     20  C   UNL     1      -2.401   4.096  25.179  0.00  0.00    +0.001 A 
ATOM     21  C   UNL     1      -2.347   3.365  24.798  0.00  0.00    +0.006 A 
ATOM     22  C   UNL     1      -2.947   2.806  24.894  0.00  0.00    +0.069 A 
ATOM     23  C   UNL     1      -2.787   2.117  24.468  0.00  0.00    +0.251 C 
ATOM     24  O   UNL     1      -2.081   2.116  24.041  0.00  0.00    -0.270 OA
ENDROOT
BRANCH  20  25
ATOM     25  C   UNL     1      -1.802   4.655  25.084  0.00  0.00    +0.007 A 
ATOM     26  C   UNL     1      -0.994   4.498  25.035  0.00  0.00    +0.035 A 
ATOM     27  S   UNL     1      -0.599   5.216  24.942  0.00  0.00    -0.086 S 
ATOM     28  C   UNL     1      -1.163   5.817  24.933  0.00  0.00    +0.035 A 
ATOM     29  C   UNL     1      -1.907   5.471  25.020  0.00  0.00    +0.007 A 
ENDBRANCH  20  25
BRANCH   8   7
ATOM      4  N   UNL     1      -4.284  -2.187  24.069  0.00  0.00    -0.189 NA
ATOM      5  C   UNL     1      -3.922  -1.458  24.197  0.00  0.00    +0.339 C 
ATOM      6  O   UNL     1      -3.153  -1.426  24.495  0.00  0.00    -0.249 OA
ATOM      7  N   UNL     1      -4.328  -0.759  24.028  0.00  0.00    -0.189 NA
BRANCH   4   2
ATOM      1  C   UNL     1      -3.614  -3.033  25.005  0.00  0.00    +0.023 C 
ATOM      2  C   UNL     1      -3.879  -2.885  24.238  0.00  0.00    +0.097 C 
ATOM      3  C   UNL     1      -3.740  -3.436  23.640  0.00  0.00    +0.023 C 
ENDBRANCH   4   2
ENDBRANCH   8   7
TORSDOF 3
ENDMDL
MODEL 2
REMARK VINA RESULT:     -10.8      1.432      1.960
REMARK  Name = 
REMARK  3 active torsions:
REMARK  status: ('A' for Active; 'I' for Inactive)
REMARK    1  A    between atoms: C_2  and  N_4
REMARK    2  A    between atoms: N_7  and  C_8
REMARK    3  A    between atoms: C_20  and  C_25
REMARK                            x       y       z     vdW  Elec       q    Type
REMARK                         _______ _______ _______ _____ _____    ______ ____
ROOT
ATOM      8  C   UNL     1      -3.138  -0.506  25.348  0.00  0.00    +0.101 C 
ATOM      9  C   UNL     1      -3.636   0.111  25.121  0.00  0.00    +0.043 C 
ATOM     10  C   UNL     1      -3.345   0.881  25.069  0.00  0.00    +0.096 C 
ATOM     11  N   UNL     1      -2.552   1.034  25.244  0.00  0.00    -0.269 N 
ATOM     12  C   UNL     1      -2.054   0.417  25.471  0.00  0.00    +0.156 C 
ATOM     13  C   UNL     1      -2.346  -0.352  25.523  0.00  0.00    +0.051 C 
ATOM     14  C   UNL     1      -1.253   0.450  25.668  0.00  0.00    +0.264 C 
ATOM     15  O   UNL     1      -0.906  -0.270  25.874  0.00  0.00    -0.271 OA
ATOM     16  N   UNL     1      -0.754   1.106  25.687  0.00  0.00    -0.178 NA
ATOM     17  C   UNL     1      -0.932   1.893  25.514  0.00  0.00    +0.078 A 
ATOM     18  C   UNL     1      -0.270   2.379  25.601  0.00  0.00    +0.017 A 
ATOM     19  C   UNL     1      -0.330   3.187  25.454  0.00  0.00    +0.001 A 
ATOM     20  C   UNL     1      -1.051   3.512  25.219  0.00  0.00    +0.001 A 
ATOM     21  C   UNL     1      -1.713   3.027  25.130  0.00  0.00    +0.006 A 
ATOM     22  C   UNL     1      -1.653   2.217  25.278  0.00  0.00    +0.069 A 
ATOM     23  C   UNL     1      -2.374   1.835  25.158  0.00  0.00    +0.251 C 
ATOM     24  O   UNL     1      -3.000   2.317  24.921  0.00  0.00    -0.270 OA
ENDROOT
BRANCH  20  25
ATOM     25  C   UNL     1      -1.111   4.322  25.071  0.00  0.00    +0.007 A 
ATOM     26  C   UNL     1      -0.596   4.769  24.609  0.00  0.00    +0.035 A 
ATOM     27  S   UNL     1      -0.863   5.551  24.612  0.00  0.00    -0.086 S 
ATOM     28  C   UNL     1      -1.543   5.585  25.077  0.00  0.00    +0.035 A 
ATOM     29  C   UNL     1      -1.696   4.825  25.361  0.00  0.00    +0.007 A 
ENDBRANCH  20  25
BRANCH   8   7
ATOM      4  N   UNL     1      -3.781  -2.510  24.773  0.00  0.00    -0.189 NA
ATOM      5  C   UNL     1      -3.489  -1.741  24.721  0.00  0.00    +0.339 C 
ATOM      6  O   UNL     1      -3.255  -1.437  23.990  0.00  0.00    -0.249 OA
ATOM      7  N   UNL     1      -3.430  -1.275  25.400  0.00  0.00    -0.189 NA
BRANCH   4   2
ATOM      1  C   UNL     1      -4.505  -2.918  23.611  0.00  0.00    +0.023 C 
ATOM      2  C   UNL     1      -3.840  -2.976  24.094  0.00  0.00    +0.097 C 
ATOM      3  C   UNL     1      -3.233  -3.500  23.901  0.00  0.00    +0.023 C 
ENDBRANCH   4   2
ENDBRANCH   8   7
TORSDOF 3
ENDMDL
MODEL 3
REMARK VINA RESULT:     -10.7      2.938      4.492
REMARK  Name = 
REMARK  3 active torsions:
REMARK  status: ('A' for Active; 'I' for Inactive)
REMARK    1  A    between atoms: C_2  and  N_4
REMARK    2  A    between atoms: N_7  and  C_8
REMARK    3  A    between atoms: C_20  and  C_25
REMARK                            x       y       z     vdW  Elec       q    Type
REMARK                         _______ _______ _______ _____ _____    ______ ____
ROOT
ATOM      8  C   UNL     1      -0.169  -0.000  24.139  0.00  0.00    +0.101 C 
ATOM      9  C   UNL     1      -0.323   0.810  24.151  0.00  0.00    +0.043 C 
ATOM     10  C   UNL     1      -1.085   1.084  24.309  0.00  0.00    +0.096 C 
ATOM     11  N   UNL     1      -1.694   0.546  24.457  0.00  0.00    -0.269 N 
ATOM     12  C   UNL     1      -1.540  -0.264  24.445  0.00  0.00    +0.156 C 
ATOM     13  C   UNL     1      -0.778  -0.537  24.287  0.00  0.00    +0.051 C 
ATOM     14  C   UNL     1      -2.063  -0.889  24.577  0.00  0.00    +0.264 C 
ATOM     15  O   UNL     1      -1.737  -1.645  24.526  0.00  0.00    -0.271 OA
ATOM     16  N   UNL     1      -2.869  -0.857  24.752  0.00  0.00    -0.178 NA
ATOM     17  C   UNL     1      -3.350  -0.193  24.838  0.00  0.00    +0.078 A 
ATOM     18  C   UNL     1      -4.129  -0.406  25.014  0.00  0.00    +0.017 A 
ATOM     19  C   UNL     1      -4.700   0.178  25.123  0.00  0.00    +0.001 A 
ATOM     20  C   UNL     1      -4.496   0.974  25.056  0.00  0.00    +0.001 A 
ATOM     21  C   UNL     1      -3.718   1.187  24.881  0.00  0.00    +0.006 A 
ATOM     22  C   UNL     1      -3.146   0.603  24.772  0.00  0.00    +0.069 A 
ATOM     23  C   UNL     1      -2.408   0.932  24.602  0.00  0.00    +0.251 C 
ATOM     24  O   UNL     1      -2.382   1.756  24.574  0.00  0.00    -0.270 OA
ENDROOT
BRANCH  20  25
ATOM     25  C   UNL     1      -5.069   1.558  25.165  0.00  0.00    +0.007 A 
ATOM     26  C   UNL     1      -5.056   2.149  25.740  0.00  0.00    +0.035 A 
ATOM     27  S   UNL     1      -5.735   2.609  25.648  0.00  0.00    -0.086 S 
ATOM     28  C   UNL     1      -6.167   2.302  25.017  0.00  0.00    +0.035 A 
ATOM     29  C   UNL     1      -5.756   1.652  24.718  0.00  0.00    +0.007 A 
ENDBRANCH  20  25
BRANCH   8   7
ATOM      4  N   UNL     1       1.735  -0.325  23.123  0.00  0.00    -0.189 NA
ATOM      5  C   UNL     1       0.973  -0.052  23.282  0.00  0.00    +0.339 C 
ATOM      6  O   UNL     1       0.591   0.443  22.743  0.00  0.00    -0.249 OA
ATOM      7  N   UNL     1       0.592  -0.273  23.980  0.00  0.00    -0.189 NA
BRANCH   4   2
ATOM      1  C   UNL     1       1.840  -0.381  21.700  0.00  0.00    +0.023 C 
ATOM      2  C   UNL     1       2.116  -0.104  22.426  0.00  0.00    +0.097 C 
ATOM      3  C   UNL     1       2.772   0.395  22.455  0.00  0.00    +0.023 C 
ENDBRANCH   4   2
ENDBRANCH   8   7
TORSDOF 3
ENDMDL
MODEL 4
REMARK VINA RESULT:     -10.7      2.072      5.586
REMARK  Name = 
REMARK  3 active torsions:
REMARK  status: ('A' for Active; 'I' for Inactive)
REMARK    1  A    between atoms: C_2  and  N_4
REMARK    2  A    between atoms: N_7  and  C_8
REMARK    3  A    between atoms: C_20  and  C_25
REMARK                            x       y       z     vdW  Elec       q    Type
REMARK                         _______ _______ _______ _____ _____    ______ ____
ROOT
ATOM      8  C   UNL     1      -2.321   2.974  25.565  0.00  0.00    +0.101 C 
ATOM      9  C   UNL     1      -1.751   2.379  25.610  0.00  0.00    +0.043 C 
ATOM     10  C   UNL     1      -1.952   1.600  25.431  0.00  0.00    +0.096 C 
ATOM     11  N   UNL     1      -2.724   1.415  25.204  0.00  0.00    -0.269 N 
ATOM     12  C   UNL     1      -3.294   2.010  25.159  0.00  0.00    +0.156 C 
ATOM     13  C   UNL     1      -3.092   2.789  25.338  0.00  0.00    +0.051 C 
ATOM     14  C   UNL     1      -4.089   1.945  24.946  0.00  0.00    +0.264 C 
ATOM     15  O   UNL     1      -4.519   2.649  24.954  0.00  0.00    -0.271 OA
ATOM     16  N   UNL     1      -4.510   1.270  24.728  0.00  0.00    -0.178 NA
ATOM     17  C   UNL     1      -4.240   0.493  24.668  0.00  0.00    +0.078 A 
ATOM     18  C   UNL     1      -4.843  -0.018  24.431  0.00  0.00    +0.017 A 
ATOM     19  C   UNL     1      -4.688  -0.823  24.337  0.00  0.00    +0.001 A 
ATOM     20  C   UNL     1      -3.932  -1.117  24.480  0.00  0.00    +0.001 A 
ATOM     21  C   UNL     1      -3.328  -0.606  24.717  0.00  0.00    +0.006 A 
ATOM     22  C   UNL     1      -3.483   0.198  24.811  0.00  0.00    +0.069 A 
ATOM     23  C   UNL     1      -2.808   0.609  25.050  0.00  0.00    +0.251 C 
ATOM     24  O   UNL     1      -2.127   0.153  25.147  0.00  0.00    -0.270 OA
ENDROOT
BRANCH  20  25
ATOM     25  C   UNL     1      -3.778  -1.922  24.386  0.00  0.00    +0.007 A 
ATOM     26  C   UNL     1      -3.367  -2.403  24.915  0.00  0.00    +0.035 A 
ATOM     27  S   UNL     1      -3.343  -3.166  24.602  0.00  0.00    -0.086 S 
ATOM     28  C   UNL     1      -3.738  -3.156  23.878  0.00  0.00    +0.035 A 
ATOM     29  C   UNL     1      -4.007  -2.388  23.744  0.00  0.00    +0.007 A 
ENDBRANCH  20  25
BRANCH   8   7
ATOM      4  N   UNL     1      -1.482   4.981  25.385  0.00  0.00    -0.189 NA
ATOM      5  C   UNL     1      -1.683   4.202  25.206  0.00  0.00    +0.339 C 
ATOM      6  O   UNL     1      -1.450   3.871  24.487  0.00  0.00    -0.249 OA
ATOM      7  N   UNL     1      -2.119   3.753  25.745  0.00  0.00    -0.189 NA
BRANCH   4   2
ATOM      1  C   UNL     1      -0.278   5.205  24.649  0.00  0.00    +0.023 C 
ATOM      2  C   UNL     1      -1.046   5.430  24.847  0.00  0.00    +0.097 C 
ATOM      3  C   UNL     1      -1.380   6.103  24.508  0.00  0.00    +0.023 C 
ENDBRANCH   4   2
ENDBRANCH   8   7
TORSDOF 3
ENDMDL
MODEL 5
REMARK VINA RESULT:     -10.0      2.961      4.343
REMARK  Name = 
REMARK  3 active torsions:
REMARK  status: ('A' for Active; 'I' for Inactive)
REMARK    1  A    between atoms: C_2  and  N_4
REMARK    2  A    between atoms: N_7  and  C_8
REMARK    3  A    between atoms: C_20  and  C_25
REMARK                            x       y       z     vdW  Elec       q    Type
REMARK                         _______ _______ _______ _____ _____    ______ ____
ROOT
ATOM      8  C   UNL     1       0.054   1.334  24.334  0.00  0.00    +0.101 C 
ATOM      9  C   UNL     1      -0.454   0.710  24.517  0.00  0.00    +0.043 C 
ATOM     10  C   UNL     1      -1.254   0.855  24.655  0.00  0.00    +0.096 C 
ATOM     11  N   UNL     1      -1.547   1.625  24.609  0.00  0.00    -0.269 N 
ATOM     12  C   UNL     1      -1.040   2.249  24.426  0.00  0.00    +0.156 C 
ATOM     13  C   UNL     1      -0.240   2.104  24.289  0.00  0.00    +0.051 C 
ATOM     14  C   UNL     1      -1.218   3.052  24.354  0.00  0.00    +0.264 C 
ATOM     15  O   UNL     1      -0.583   3.543  24.164  0.00  0.00    -0.271 OA
ATOM     16  N   UNL     1      -1.946   3.428  24.447  0.00  0.00    -0.178 NA
ATOM     17  C   UNL     1      -2.677   3.095  24.634  0.00  0.00    +0.078 A 
ATOM     18  C   UNL     1      -3.269   3.668  24.674  0.00  0.00    +0.017 A 
ATOM     19  C   UNL     1      -4.043   3.450  24.855  0.00  0.00    +0.001 A 
ATOM     20  C   UNL     1      -4.226   2.658  24.997  0.00  0.00    +0.001 A 
ATOM     21  C   UNL     1      -3.635   2.084  24.957  0.00  0.00    +0.006 A 
ATOM     22  C   UNL     1      -2.860   2.303  24.776  0.00  0.00    +0.069 A 
ATOM     23  C   UNL     1      -2.357   1.649  24.765  0.00  0.00    +0.251 C 
ATOM     24  O   UNL     1      -2.711   0.922  24.931  0.00  0.00    -0.270 OA
ENDROOT
BRANCH  20  25
ATOM     25  C   UNL     1      -5.001   2.440  25.178  0.00  0.00    +0.007 A 
ATOM     26  C   UNL     1      -5.415   2.643  25.861  0.00  0.00    +0.035 A 
ATOM     27  S   UNL     1      -6.168   2.309  25.813  0.00  0.00    -0.086 S 
ATOM     28  C   UNL     1      -6.219   1.899  25.099  0.00  0.00    +0.035 A 
ATOM     29  C   UNL     1      -5.498   1.980  24.706  0.00  0.00    +0.007 A 
ENDBRANCH  20  25
BRANCH   8   7
ATOM      4  N   UNL     1       1.888   0.624  23.387  0.00  0.00    -0.189 NA
ATOM      5  C   UNL     1       1.088   0.769  23.525  0.00  0.00    +0.339 C 
ATOM      6  O   UNL     1       0.521   0.495  22.992  0.00  0.00    -0.249 OA
ATOM      7  N   UNL     1       0.854   1.189  24.196  0.00  0.00    -0.189 NA
BRANCH   4   2
ATOM      1  C   UNL     1       1.639  -0.391  22.413  0.00  0.00    +0.023 C 
ATOM      2  C   UNL     1       2.122   0.205  22.717  0.00  0.00    +0.097 C 
ATOM      3  C   UNL     1       2.839   0.381  22.350  0.00  0.00    +0.023 C 
ENDBRANCH   4   2
ENDBRANCH   8   7
TORSDOF 3
ENDMDL
MODEL 6
REMARK VINA RESULT:      -9.7      2.740      4.535
REMARK  Name = 
REMARK  3 active torsions:
REMARK  status: ('A' for Active; 'I' for Inactive)
REMARK    1  A    between atoms: C_2  and  N_4
REMARK    2  A    between atoms: N_7  and  C_8
REMARK    3  A    between atoms: C_20  and  C_25
REMARK                            x       y       z     vdW  Elec       q    Type
REMARK                         _______ _______ _______ _____ _____    ______ ____
ROOT
ATOM      8  C   UNL     1      -3.726   1.436  24.139  0.00  0.00    +0.101 C 
ATOM      9  C   UNL     1      -3.280   1.929  23.651  0.00  0.00    +0.043 C 
ATOM     10  C   UNL     1      -2.496   1.741  23.478  0.00  0.00    +0.096 C 
ATOM     11  N   UNL     1      -2.158   1.057  23.795  0.00  0.00    -0.269 N 
ATOM     12  C   UNL     1      -2.604   0.564  24.283  0.00  0.00    +0.156 C 
ATOM     13  C   UNL     1      -3.388   0.753  24.455  0.00  0.00    +0.051 C 
ATOM     14  C   UNL     1      -2.375  -0.138  24.652  0.00  0.00    +0.264 C 
ATOM     15  O   UNL     1      -2.953  -0.507  25.109  0.00  0.00    -0.271 OA
ATOM     16  N   UNL     1      -1.643  -0.519  24.624  0.00  0.00    -0.178 NA
ATOM     17  C   UNL     1      -0.961  -0.293  24.220  0.00  0.00    +0.078 A 
ATOM     18  C   UNL     1      -0.347  -0.832  24.339  0.00  0.00    +0.017 A 
ATOM     19  C   UNL     1       0.386  -0.708  23.983  0.00  0.00    +0.001 A 
ATOM     20  C   UNL     1       0.507  -0.045  23.507  0.00  0.00    +0.001 A 
ATOM     21  C   UNL     1      -0.107   0.495  23.388  0.00  0.00    +0.006 A 
ATOM     22  C   UNL     1      -0.840   0.370  23.745  0.00  0.00    +0.069 A 
ATOM     23  C   UNL     1      -1.373   0.971  23.555  0.00  0.00    +0.251 C 
ATOM     24  O   UNL     1      -1.082   1.564  23.061  0.00  0.00    -0.270 OA
ENDROOT
BRANCH  20  25
ATOM     25  C   UNL     1       1.240   0.078  23.151  0.00  0.00    +0.007 A 
ATOM     26  C   UNL     1       1.840   0.569  23.432  0.00  0.00    +0.035 A 
ATOM     27  S   UNL     1       2.474   0.527  22.905  0.00  0.00    -0.086 S 
ATOM     28  C   UNL     1       2.265   0.010  22.298  0.00  0.00    +0.035 A 
ATOM     29  C   UNL     1       1.503  -0.268  22.449  0.00  0.00    +0.007 A 
ENDBRANCH  20  25
BRANCH   8   7
ATOM      4  N   UNL     1      -5.465   2.368  25.072  0.00  0.00    -0.189 NA
ATOM      5  C   UNL     1      -4.682   2.179  24.900  0.00  0.00    +0.339 C 
ATOM      6  O   UNL     1      -4.068   2.541  25.316  0.00  0.00    -0.249 OA
ATOM      7  N   UNL     1      -4.510   1.626  24.311  0.00  0.00    -0.189 NA
BRANCH   4   2
ATOM      1  C   UNL     1      -5.549   3.726  25.509  0.00  0.00    +0.023 C 
ATOM      2  C   UNL     1      -5.637   2.920  25.661  0.00  0.00    +0.097 C 
ATOM      3  C   UNL     1      -5.897   2.666  26.401  0.00  0.00    +0.023 C 
ENDBRANCH   4   2
ENDBRANCH   8   7
TORSDOF 3
ENDMDL
MODEL 7
REMARK VINA RESULT:      -9.1     15.409     17.962
REMARK  Name = 
REMARK  3 active torsions:
REMARK  status: ('A' for Active; 'I' for Inactive)
REMARK    1  A    between atoms: C_2  and  N_4
REMARK    2  A    between atoms: N_7  and  C_8
REMARK    3  A    between atoms: C_20  and  C_25
REMARK                            x       y       z     vdW  Elec       q    Type
REMARK                         _______ _______ _______ _____ _____    ______ ____
ROOT
ATOM      8  C   UNL     1      -2.457 -10.573  12.819  0.00  0.00    +0.101 C 
ATOM      9  C   UNL     1      -3.247 -10.780  12.936  0.00  0.00    +0.043 C 
ATOM     10  C   UNL     1      -3.817 -10.572  12.377  0.00  0.00    +0.096 C 
ATOM     11  N   UNL     1      -3.596 -10.155  11.699  0.00  0.00    -0.269 N 
ATOM     12  C   UNL     1      -2.806  -9.948  11.582  0.00  0.00    +0.156 C 
ATOM     13  C   UNL     1      -2.237 -10.156  12.141  0.00  0.00    +0.051 C 
ATOM     14  C   UNL     1      -2.471  -9.536  10.950  0.00  0.00    +0.264 C 
ATOM     15  O   UNL     1      -1.657  -9.413  10.995  0.00  0.00    -0.271 OA
ATOM     16  N   UNL     1      -2.843  -9.230  10.280  0.00  0.00    -0.178 NA
ATOM     17  C   UNL     1      -3.642  -9.261  10.076  0.00  0.00    +0.078 A 
ATOM     18  C   UNL     1      -3.784  -8.885   9.355  0.00  0.00    +0.017 A 
ATOM     19  C   UNL     1      -4.549  -8.854   9.050  0.00  0.00    +0.001 A 
ATOM     20  C   UNL     1      -5.173  -9.197   9.466  0.00  0.00    +0.001 A 
ATOM     21  C   UNL     1      -5.032  -9.573  10.187  0.00  0.00    +0.006 A 
ATOM     22  C   UNL     1      -4.266  -9.604  10.491  0.00  0.00    +0.069 A 
ATOM     23  C   UNL     1      -4.245 -10.003  11.214  0.00  0.00    +0.251 C 
ATOM     24  O   UNL     1      -4.970 -10.286  11.488  0.00  0.00    -0.270 OA
ENDROOT
BRANCH  20  25
ATOM     25  C   UNL     1      -5.939  -9.166   9.160  0.00  0.00    +0.007 A 
ATOM     26  C   UNL     1      -6.275  -9.706   8.635  0.00  0.00    +0.035 A 
ATOM     27  S   UNL     1      -7.047  -9.462   8.477  0.00  0.00    -0.086 S 
ATOM     28  C   UNL     1      -7.188  -8.771   8.904  0.00  0.00    +0.035 A 
ATOM     29  C   UNL     1      -6.504  -8.588   9.327  0.00  0.00    +0.007 A 
ENDBRANCH  20  25
BRANCH   8   7
ATOM      4  N   UNL     1      -1.363 -10.686  14.704  0.00  0.00    -0.189 NA
ATOM      5  C   UNL     1      -1.932 -10.477  14.145  0.00  0.00    +0.339 C 
ATOM      6  O   UNL     1      -2.545  -9.965  14.351  0.00  0.00    -0.249 OA
ATOM      7  N   UNL     1      -1.889 -10.781  13.378  0.00  0.00    -0.189 NA
BRANCH   4   2
ATOM      1  C   UNL     1      -1.006  -9.688  15.662  0.00  0.00    +0.023 C 
ATOM      2  C   UNL     1      -1.407 -10.382  15.470  0.00  0.00    +0.097 C 
ATOM      3  C   UNL     1      -1.851 -10.775  16.044  0.00  0.00    +0.023 C 
ENDBRANCH   4   2
ENDBRANCH   8   7
TORSDOF 3
ENDMDL
MODEL 8
REMARK VINA RESULT:      -8.5     14.624     16.473
REMARK  Name = 
REMARK  3 active torsions:
REMARK  status: ('A' for Active; 'I' for Inactive)
REMARK    1  A    between atoms: C_2  and  N_4
REMARK    2  A    between atoms: N_7  and  C_8
REMARK    3  A    between atoms: C_20  and  C_25
REMARK                            x       y       z     vdW  Elec       q    Type
REMARK                         _______ _______ _______ _____ _____    ______ ____
ROOT
ATOM      8  C   UNL     1      -4.298 -10.664  12.499  0.00  0.00    +0.101 C 
ATOM      9  C   UNL     1      -5.116 -10.562  12.511  0.00  0.00    +0.043 C 
ATOM     10  C   UNL     1      -5.511 -10.469  13.229  0.00  0.00    +0.096 C 
ATOM     11  N   UNL     1      -5.085 -10.478  13.937  0.00  0.00    -0.269 N 
ATOM     12  C   UNL     1      -4.267 -10.581  13.925  0.00  0.00    +0.156 C 
ATOM     13  C   UNL     1      -3.873 -10.674  13.207  0.00  0.00    +0.051 C 
ATOM     14  C   UNL     1      -3.743 -10.607  14.563  0.00  0.00    +0.264 C 
ATOM     15  O   UNL     1      -2.949 -10.717  14.368  0.00  0.00    -0.271 OA
ATOM     16  N   UNL     1      -3.908 -10.537  15.368  0.00  0.00    -0.178 NA
ATOM     17  C   UNL     1      -4.638 -10.424  15.735  0.00  0.00    +0.078 A 
ATOM     18  C   UNL     1      -4.560 -10.383  16.556  0.00  0.00    +0.017 A 
ATOM     19  C   UNL     1      -5.226 -10.271  17.028  0.00  0.00    +0.001 A 
ATOM     20  C   UNL     1      -5.971 -10.200  16.682  0.00  0.00    +0.001 A 
ATOM     21  C   UNL     1      -6.050 -10.240  15.861  0.00  0.00    +0.006 A 
ATOM     22  C   UNL     1      -5.383 -10.352  15.389  0.00  0.00    +0.069 A 
ATOM     23  C   UNL     1      -5.582 -10.376  14.588  0.00  0.00    +0.251 C 
ATOM     24  O   UNL     1      -6.384 -10.287  14.416  0.00  0.00    -0.270 OA
ENDROOT
BRANCH  20  25
ATOM     25  C   UNL     1      -6.637 -10.088  17.156  0.00  0.00    +0.007 A 
ATOM     26  C   UNL     1      -6.964 -10.642  17.671  0.00  0.00    +0.035 A 
ATOM     27  S   UNL     1      -7.623 -10.298  18.031  0.00  0.00    -0.086 S 
ATOM     28  C   UNL     1      -7.702  -9.532  17.737  0.00  0.00    +0.035 A 
ATOM     29  C   UNL     1      -7.093  -9.402  17.196  0.00  0.00    +0.007 A 
ENDBRANCH  20  25
BRANCH   8   7
ATOM      4  N   UNL     1      -3.466 -10.220  10.531  0.00  0.00    -0.189 NA
ATOM      5  C   UNL     1      -3.860 -10.127  11.249  0.00  0.00    +0.339 C 
ATOM      6  O   UNL     1      -4.210  -9.404  11.437  0.00  0.00    -0.249 OA
ATOM      7  N   UNL     1      -3.904 -10.757  11.781  0.00  0.00    -0.189 NA
BRANCH   4   2
ATOM      1  C   UNL     1      -3.976  -9.524   9.392  0.00  0.00    +0.023 C 
ATOM      2  C   UNL     1      -3.422  -9.590  10.000  0.00  0.00    +0.097 C 
ATOM      3  C   UNL     1      -2.824  -9.027  10.077  0.00  0.00    +0.023 C 
ENDBRANCH   4   2
ENDBRANCH   8   7
TORSDOF 3
ENDMDL
MODEL 9
REMARK VINA RESULT:      -8.3     14.076     15.011
REMARK  Name = 
REMARK  3 active torsions:
REMARK  status: ('A' for Active; 'I' for Inactive)
REMARK    1  A    between atoms: C_2  and  N_4
REMARK    2  A    between atoms: N_7  and  C_8
REMARK    3  A    between atoms: C_20  and  C_25
REMARK                            x       y       z     vdW  Elec       q    Type
REMARK                         _______ _______ _______ _____ _____    ______ ____
ROOT
ATOM      8  C   UNL     1      -7.796  -9.941  16.489  0.00  0.00    +0.101 C 
ATOM      9  C   UNL     1      -7.489  -9.817  15.734  0.00  0.00    +0.043 C 
ATOM     10  C   UNL     1      -6.682  -9.912  15.594  0.00  0.00    +0.096 C 
ATOM     11  N   UNL     1      -6.180 -10.131  16.213  0.00  0.00    -0.269 N 
ATOM     12  C   UNL     1      -6.487 -10.255  16.968  0.00  0.00    +0.156 C 
ATOM     13  C   UNL     1      -7.294 -10.160  17.107  0.00  0.00    +0.051 C 
ATOM     14  C   UNL     1      -6.087 -10.474  17.656  0.00  0.00    +0.264 C 
ATOM     15  O   UNL     1      -6.553 -10.554  18.331  0.00  0.00    -0.271 OA
ATOM     16  N   UNL     1      -5.282 -10.624  17.757  0.00  0.00    -0.178 NA
ATOM     17  C   UNL     1      -4.678 -10.591  17.196  0.00  0.00    +0.078 A 
ATOM     18  C   UNL     1      -3.947 -10.781  17.528  0.00  0.00    +0.017 A 
ATOM     19  C   UNL     1      -3.268 -10.781  17.059  0.00  0.00    +0.001 A 
ATOM     20  C   UNL     1      -3.320 -10.591  16.259  0.00  0.00    +0.001 A 
ATOM     21  C   UNL     1      -4.051 -10.400  15.926  0.00  0.00    +0.006 A 
ATOM     22  C   UNL     1      -4.729 -10.401  16.395  0.00  0.00    +0.069 A 
ATOM     23  C   UNL     1      -5.399 -10.196  15.957  0.00  0.00    +0.251 C 
ATOM     24  O   UNL     1      -5.268 -10.035  15.159  0.00  0.00    -0.270 OA
ENDROOT
BRANCH  20  25
ATOM     25  C   UNL     1      -2.641 -10.591  15.790  0.00  0.00    +0.007 A 
ATOM     26  C   UNL     1      -1.863 -10.622  16.063  0.00  0.00    +0.035 A 
ATOM     27  S   UNL     1      -1.362 -10.610  15.407  0.00  0.00    -0.086 S 
ATOM     28  C   UNL     1      -1.830 -10.572  14.730  0.00  0.00    +0.035 A 
ATOM     29  C   UNL     1      -2.621 -10.560  14.966  0.00  0.00    +0.007 A 
ENDBRANCH  20  25
BRANCH   8   7
ATOM      4  N   UNL     1      -9.739  -8.993  16.787  0.00  0.00    -0.189 NA
ATOM      5  C   UNL     1      -8.932  -9.088  16.649  0.00  0.00    +0.339 C 
ATOM      6  O   UNL     1      -8.453  -8.427  16.532  0.00  0.00    -0.249 OA
ATOM      7  N   UNL     1      -8.603  -9.845  16.628  0.00  0.00    -0.189 NA
BRANCH   4   2
ATOM      1  C   UNL     1     -10.502  -7.957  16.166  0.00  0.00    +0.023 C 
ATOM      2  C   UNL     1     -10.068  -8.237  16.809  0.00  0.00    +0.097 C 
ATOM      3  C   UNL     1      -9.963  -7.760  17.474  0.00  0.00    +0.023 C 
ENDBRANCH   4   2
ENDBRANCH   8   7
TORSDOF 3
ENDMDL
MODEL 10
REMARK VINA RESULT:      -7.7     14.105     14.936
REMARK  Name = 
REMARK  3 active torsions:
REMARK  status: ('A' for Active; 'I' for Inactive)
REMARK    1  A    between atoms: C_2  and  N_4
REMARK    2  A    between atoms: N_7  and  C_8
REMARK    3  A    between atoms: C_20  and  C_25
REMARK                            x       y       z     vdW  Elec       q    Type
REMARK                         _______ _______ _______ _____ _____    ______ ____
ROOT
ATOM      8  C   UNL     1      -4.137 -10.570  16.662  0.00  0.00    +0.101 C 
ATOM      9  C   UNL     1      -4.498 -10.442  15.932  0.00  0.00    +0.043 C 
ATOM     10  C   UNL     1      -5.295 -10.230  15.896  0.00  0.00    +0.096 C 
ATOM     11  N   UNL     1      -5.731 -10.147  16.593  0.00  0.00    -0.269 N 
ATOM     12  C   UNL     1      -5.369 -10.275  17.323  0.00  0.00    +0.156 C 
ATOM     13  C   UNL     1      -4.573 -10.487  17.358  0.00  0.00    +0.051 C 
ATOM     14  C   UNL     1      -5.701 -10.222  18.077  0.00  0.00    +0.264 C 
ATOM     15  O   UNL     1      -5.191 -10.385  18.704  0.00  0.00    -0.271 OA
ATOM     16  N   UNL     1      -6.475 -10.028  18.286  0.00  0.00    -0.178 NA
ATOM     17  C   UNL     1      -7.109  -9.839  17.793  0.00  0.00    +0.078 A 
ATOM     18  C   UNL     1      -7.792  -9.679  18.228  0.00  0.00    +0.017 A 
ATOM     19  C   UNL     1      -8.490  -9.478  17.839  0.00  0.00    +0.001 A 
ATOM     20  C   UNL     1      -8.507  -9.436  17.016  0.00  0.00    +0.001 A 
ATOM     21  C   UNL     1      -7.824  -9.596  16.580  0.00  0.00    +0.006 A 
ATOM     22  C   UNL     1      -7.126  -9.797  16.970  0.00  0.00    +0.069 A 
ATOM     23  C   UNL     1      -6.512  -9.935  16.435  0.00  0.00    +0.251 C 
ATOM     24  O   UNL     1      -6.706  -9.847  15.638  0.00  0.00    -0.270 OA
ENDROOT
BRANCH  20  25
ATOM     25  C   UNL     1      -9.207  -9.234  16.627  0.00  0.00    +0.007 A 
ATOM     26  C   UNL     1      -9.772  -9.762  16.342  0.00  0.00    +0.035 A 
ATOM     27  S   UNL     1     -10.379  -9.322  15.994  0.00  0.00    -0.086 S 
ATOM     28  C   UNL     1     -10.187  -8.524  16.065  0.00  0.00    +0.035 A 
ATOM     29  C   UNL     1      -9.463  -8.469  16.457  0.00  0.00    +0.007 A 
ENDBRANCH  20  25
BRANCH   8   7
ATOM      4  N   UNL     1      -2.010 -10.681  16.184  0.00  0.00    -0.189 NA
ATOM      5  C   UNL     1      -2.807 -10.470  16.149  0.00  0.00    +0.339 C 
ATOM      6  O   UNL     1      -3.070  -9.948  15.567  0.00  0.00    -0.249 OA
ATOM      7  N   UNL     1      -3.341 -10.781  16.697  0.00  0.00    -0.189 NA
BRANCH   4   2
ATOM      1  C   UNL     1      -1.102  -9.651  15.788  0.00  0.00    +0.023 C 
ATOM      2  C   UNL     1      -1.476 -10.371  15.637  0.00  0.00    +0.097 C 
ATOM      3  C   UNL     1      -1.317 -10.780  14.939  0.00  0.00    +0.023 C 
ENDBRANCH   4   2
ENDBRANCH   8   7
TORSDOF 3
ENDMDL
