MODEL 1
REMARK VINA RESULT:     -11.9      0.000      0.000
REMARK  Name = 
REMARK  7 active torsions:
REMARK  status: ('A' for Active; 'I' for Inactive)
REMARK    1  A    between atoms: N_3  and  C_4
REMARK    2  A    between atoms: C_4  and  C_5
REMARK    3  A    between atoms: C_12  and  C_13
REMARK    4  A    between atoms: C_13  and  N_14
REMARK    5  A    between atoms: N_17  and  C_20
REMARK    6  A    between atoms: N_26  and  C_27
REMARK    7  A    between atoms: C_29  and  C_33
REMARK                            x       y       z     vdW  Elec       q    Type
REMARK                         _______ _______ _______ _____ _____    ______ ____
ROOT
ATOM      5  C   UNL     1      -4.963   3.107  25.230  0.00  0.00    +0.079 C 
ATOM      6  C   UNL     1      -5.597   2.693  25.408  0.00  0.00    +0.018 C 
ATOM      7  C   UNL     1      -5.669   1.889  25.342  0.00  0.00    +0.005 C 
ATOM      8  C   UNL     1      -6.481   1.605  25.597  0.00  0.00    +0.017 C 
ATOM      9  C   UNL     1      -6.014   2.048  25.482  0.00  0.00    +0.072 C 
ATOM     10  N   UNL     1      -5.044   2.288  25.166  0.00  0.00    -0.272 NA
ATOM     11  C   UNL     1      -4.468   1.638  24.888  0.00  0.00    +0.073 C 
ATOM     12  C   UNL     1      -5.110   1.269  25.073  0.00  0.00    +0.032 C 
ENDROOT
BRANCH   5   4
ATOM      4  C   UNL     1      -4.540   3.812  25.160  0.00  0.00    +0.133 C 
BRANCH   4   3
ATOM      1  O   UNL     1      -3.084   4.127  24.451  0.00  0.00    -0.249 OA
ATOM      2  C   UNL     1      -3.144   4.097  25.273  0.00  0.00    +0.344 C 
ATOM      3  N   UNL     1      -3.872   3.940  25.628  0.00  0.00    -0.185 NA
ATOM     26  N   UNL     1      -2.476   4.225  25.741  0.00  0.00    -0.161 NA
BRANCH  26  27
ATOM     27  C   UNL     1      -1.749   4.383  25.386  0.00  0.00    +0.076 A 
ATOM     28  C   UNL     1      -1.231   3.764  25.213  0.00  0.00    +0.027 A 
ATOM     29  C   UNL     1      -0.503   3.921  24.858  0.00  0.00    +0.070 A 
ATOM     30  C   UNL     1      -0.293   4.698  24.676  0.00  0.00    +0.010 A 
ATOM     31  C   UNL     1      -0.810   5.316  24.848  0.00  0.00    +0.002 A 
ATOM     32  C   UNL     1      -1.538   5.159  25.203  0.00  0.00    +0.017 A 
BRANCH  29  33
ATOM     33  C   UNL     1       0.014   3.302  24.686  0.00  0.00    +0.100 C 
ATOM     34  N   UNL     1       0.531   2.683  24.513  0.00  0.00    -0.191 NA
ENDBRANCH  29  33
ENDBRANCH  26  27
ENDBRANCH   4   3
ENDBRANCH   5   4
BRANCH  12  13
ATOM     13  C   UNL     1      -5.249   0.456  25.030  0.00  0.00    +0.074 C 
BRANCH  13  14
ATOM     14  N   UNL     1      -4.617  -0.065  24.933  0.00  0.00    -0.270 NA
ATOM     15  C   UNL     1      -4.381  -0.291  24.176  0.00  0.00    +0.094 C 
ATOM     16  C   UNL     1      -3.749  -0.813  24.079  0.00  0.00    +0.108 C 
ATOM     17  N   UNL     1      -3.353  -1.107  24.739  0.00  0.00    -0.305 N 
ATOM     18  C   UNL     1      -3.588  -0.882  25.497  0.00  0.00    +0.108 C 
ATOM     19  C   UNL     1      -4.221  -0.360  25.593  0.00  0.00    +0.094 C 
BRANCH  17  20
ATOM     20  C   UNL     1      -2.721  -1.629  24.643  0.00  0.00    +0.048 A 
ATOM     21  C   UNL     1      -1.946  -1.347  24.672  0.00  0.00    +0.015 A 
ATOM     22  C   UNL     1      -1.314  -1.869  24.575  0.00  0.00    +0.001 A 
ATOM     23  C   UNL     1      -1.457  -2.672  24.449  0.00  0.00    +0.000 A 
ATOM     24  C   UNL     1      -2.231  -2.953  24.420  0.00  0.00    +0.001 A 
ATOM     25  C   UNL     1      -2.864  -2.432  24.517  0.00  0.00    +0.015 A 
ENDBRANCH  17  20
ENDBRANCH  13  14
ENDBRANCH  12  13
TORSDOF 7
ENDMDL
MODEL 2
REMARK VINA RESULT:     -11.8      1.211      5.276
REMARK  Name = 
REMARK  7 active torsions:
REMARK  status: ('A' for Active; 'I' for Inactive)
REMARK    1  A    between atoms: N_3  and  C_4
REMARK    2  A    between atoms: C_4  and  C_5
REMARK    3  A    between atoms: C_12  and  C_13
REMARK    4  A    between atoms: C_13  and  N_14
REMARK    5  A    between atoms: N_17  and  C_20
REMARK    6  A    between atoms: N_26  and  C_27
REMARK    7  A    between atoms: C_29  and  C_33
REMARK                            x       y       z     vdW  Elec       q    Type
REMARK                         _______ _______ _______ _____ _____    ______ ____
ROOT
ATOM      5  C   UNL     1      -5.285   0.759  24.930  0.00  0.00    +0.079 C 
ATOM      6  C   UNL     1      -5.749   1.276  25.281  0.00  0.00    +0.018 C 
ATOM      7  C   UNL     1      -5.574   2.056  25.410  0.00  0.00    +0.005 C 
ATOM      8  C   UNL     1      -6.241   2.484  25.829  0.00  0.00    +0.017 C 
ATOM      9  C   UNL     1      -5.942   1.972  25.555  0.00  0.00    +0.072 C 
ATOM     10  N   UNL     1      -5.114   1.555  25.065  0.00  0.00    -0.272 NA
ATOM     11  C   UNL     1      -4.382   2.064  24.868  0.00  0.00    +0.073 C 
ATOM     12  C   UNL     1      -4.867   2.539  25.217  0.00  0.00    +0.032 C 
ENDROOT
BRANCH   5   4
ATOM      4  C   UNL     1      -5.106   0.006  24.645  0.00  0.00    +0.133 C 
BRANCH   4   3
ATOM      1  O   UNL     1      -3.847  -0.863  24.027  0.00  0.00    -0.249 OA
ATOM      2  C   UNL     1      -4.070  -0.964  24.815  0.00  0.00    +0.344 C 
ATOM      3  N   UNL     1      -4.699  -0.529  25.124  0.00  0.00    -0.185 NA
ATOM     26  N   UNL     1      -3.664  -1.499  25.293  0.00  0.00    -0.161 NA
BRANCH  26  27
ATOM     27  C   UNL     1      -3.035  -1.934  24.984  0.00  0.00    +0.076 A 
ATOM     28  C   UNL     1      -2.264  -1.646  25.047  0.00  0.00    +0.027 A 
ATOM     29  C   UNL     1      -1.635  -2.080  24.737  0.00  0.00    +0.070 A 
ATOM     30  C   UNL     1      -1.776  -2.803  24.365  0.00  0.00    +0.010 A 
ATOM     31  C   UNL     1      -2.546  -3.090  24.302  0.00  0.00    +0.002 A 
ATOM     32  C   UNL     1      -3.176  -2.656  24.611  0.00  0.00    +0.017 A 
BRANCH  29  33
ATOM     33  C   UNL     1      -0.864  -1.792  24.800  0.00  0.00    +0.100 C 
ATOM     34  N   UNL     1      -0.094  -1.505  24.863  0.00  0.00    -0.191 NA
ENDBRANCH  29  33
ENDBRANCH  26  27
ENDBRANCH   4   3
ENDBRANCH   5   4
BRANCH  12  13
ATOM     13  C   UNL     1      -4.751   3.340  25.379  0.00  0.00    +0.074 C 
BRANCH  13  14
ATOM     14  N   UNL     1      -4.002   3.675  25.286  0.00  0.00    -0.270 NA
ATOM     15  C   UNL     1      -3.740   3.899  24.538  0.00  0.00    +0.094 C 
ATOM     16  C   UNL     1      -2.991   4.234  24.446  0.00  0.00    +0.108 C 
ATOM     17  N   UNL     1      -2.505   4.343  25.103  0.00  0.00    -0.305 N 
ATOM     18  C   UNL     1      -2.767   4.118  25.852  0.00  0.00    +0.108 C 
ATOM     19  C   UNL     1      -3.516   3.784  25.944  0.00  0.00    +0.094 C 
BRANCH  17  20
ATOM     20  C   UNL     1      -1.757   4.677  25.011  0.00  0.00    +0.048 A 
ATOM     21  C   UNL     1      -1.668   5.498  25.011  0.00  0.00    +0.015 A 
ATOM     22  C   UNL     1      -0.919   5.832  24.920  0.00  0.00    +0.001 A 
ATOM     23  C   UNL     1      -0.259   5.346  24.827  0.00  0.00    +0.000 A 
ATOM     24  C   UNL     1      -0.347   4.526  24.827  0.00  0.00    +0.001 A 
ATOM     25  C   UNL     1      -1.096   4.191  24.919  0.00  0.00    +0.015 A 
ENDBRANCH  17  20
ENDBRANCH  13  14
ENDBRANCH  12  13
TORSDOF 7
ENDMDL
MODEL 3
REMARK VINA RESULT:     -11.6      3.270      5.574
REMARK  Name = 
REMARK  7 active torsions:
REMARK  status: ('A' for Active; 'I' for Inactive)
REMARK    1  A    between atoms: N_3  and  C_4
REMARK    2  A    between atoms: C_4  and  C_5
REMARK    3  A    between atoms: C_12  and  C_13
REMARK    4  A    between atoms: C_13  and  N_14
REMARK    5  A    between atoms: N_17  and  C_20
REMARK    6  A    between atoms: N_26  and  C_27
REMARK    7  A    between atoms: C_29  and  C_33
REMARK                            x       y       z     vdW  Elec       q    Type
REMARK                         _______ _______ _______ _____ _____    ______ ____
ROOT
ATOM      5  C   UNL     1      -0.104  -0.319  23.821  0.00  0.00    +0.079 C 
ATOM      6  C   UNL     1      -0.410  -0.980  24.094  0.00  0.00    +0.018 C 
ATOM      7  C   UNL     1      -1.179  -1.084  24.325  0.00  0.00    +0.005 C 
ATOM      8  C   UNL     1      -1.332  -1.921  24.609  0.00  0.00    +0.017 C 
ATOM      9  C   UNL     1      -0.973  -1.429  24.372  0.00  0.00    +0.072 C 
ATOM     10  N   UNL     1      -0.886  -0.432  24.059  0.00  0.00    -0.272 NA
ATOM     11  C   UNL     1      -1.605   0.130  24.083  0.00  0.00    +0.073 C 
ATOM     12  C   UNL     1      -1.866  -0.538  24.346  0.00  0.00    +0.032 C 
ENDROOT
BRANCH   5   4
ATOM      4  C   UNL     1       0.515   0.138  23.526  0.00  0.00    +0.133 C 
BRANCH   4   3
ATOM      1  O   UNL     1       2.009   0.837  23.589  0.00  0.00    -0.249 OA
ATOM      2  C   UNL     1       1.904   0.123  23.189  0.00  0.00    +0.344 C 
ATOM      3  N   UNL     1       1.158  -0.226  23.157  0.00  0.00    -0.185 NA
ATOM     26  N   UNL     1       2.547  -0.241  22.821  0.00  0.00    -0.161 NA
BRANCH  26  27
ATOM     27  C   UNL     1       3.293   0.108  22.853  0.00  0.00    +0.076 A 
ATOM     28  C   UNL     1       3.889  -0.232  23.312  0.00  0.00    +0.027 A 
ATOM     29  C   UNL     1       4.635   0.117  23.343  0.00  0.00    +0.070 A 
ATOM     30  C   UNL     1       4.786   0.807  22.917  0.00  0.00    +0.010 A 
ATOM     31  C   UNL     1       4.191   1.147  22.458  0.00  0.00    +0.002 A 
ATOM     32  C   UNL     1       3.444   0.798  22.426  0.00  0.00    +0.017 A 
BRANCH  29  33
ATOM     33  C   UNL     1       5.230  -0.223  23.802  0.00  0.00    +0.100 C 
ATOM     34  N   UNL     1       5.825  -0.563  24.261  0.00  0.00    -0.191 NA
ENDBRANCH  29  33
ENDBRANCH  26  27
ENDBRANCH   4   3
ENDBRANCH   5   4
BRANCH  12  13
ATOM     13  C   UNL     1      -2.633  -0.710  24.597  0.00  0.00    +0.074 C 
BRANCH  13  14
ATOM     14  N   UNL     1      -3.172  -0.097  24.724  0.00  0.00    -0.270 NA
ATOM     15  C   UNL     1      -3.250   0.234  25.475  0.00  0.00    +0.094 C 
ATOM     16  C   UNL     1      -3.789   0.847  25.602  0.00  0.00    +0.108 C 
ATOM     17  N   UNL     1      -4.249   1.126  24.977  0.00  0.00    -0.305 N 
ATOM     18  C   UNL     1      -4.171   0.794  24.225  0.00  0.00    +0.108 C 
ATOM     19  C   UNL     1      -3.632   0.182  24.099  0.00  0.00    +0.094 C 
BRANCH  17  20
ATOM     20  C   UNL     1      -4.787   1.738  25.103  0.00  0.00    +0.048 A 
ATOM     21  C   UNL     1      -4.530   2.522  25.101  0.00  0.00    +0.015 A 
ATOM     22  C   UNL     1      -5.068   3.133  25.228  0.00  0.00    +0.001 A 
ATOM     23  C   UNL     1      -5.866   2.961  25.356  0.00  0.00    +0.000 A 
ATOM     24  C   UNL     1      -6.123   2.179  25.357  0.00  0.00    +0.001 A 
ATOM     25  C   UNL     1      -5.585   1.566  25.231  0.00  0.00    +0.015 A 
ENDBRANCH  17  20
ENDBRANCH  13  14
ENDBRANCH  12  13
TORSDOF 7
ENDMDL
MODEL 4
REMARK VINA RESULT:     -10.3      1.249      3.955
REMARK  Name = 
REMARK  7 active torsions:
REMARK  status: ('A' for Active; 'I' for Inactive)
REMARK    1  A    between atoms: N_3  and  C_4
REMARK    2  A    between atoms: C_4  and  C_5
REMARK    3  A    between atoms: C_12  and  C_13
REMARK    4  A    between atoms: C_13  and  N_14
REMARK    5  A    between atoms: N_17  and  C_20
REMARK    6  A    between atoms: N_26  and  C_27
REMARK    7  A    between atoms: C_29  and  C_33
REMARK                            x       y       z     vdW  Elec       q    Type
REMARK                         _______ _______ _______ _____ _____    ______ ____
ROOT
ATOM      5  C   UNL     1      -1.019   3.143  25.092  0.00  0.00    +0.079 C 
ATOM      6  C   UNL     1      -0.338   2.889  24.815  0.00  0.00    +0.018 C 
ATOM      7  C   UNL     1      -0.108   2.114  24.766  0.00  0.00    +0.005 C 
ATOM      8  C   UNL     1       0.714   2.031  24.417  0.00  0.00    +0.017 C 
ATOM      9  C   UNL     1       0.185   2.354  24.624  0.00  0.00    +0.072 C 
ATOM     10  N   UNL     1      -0.778   2.355  25.038  0.00  0.00    -0.272 NA
ATOM     11  C   UNL     1      -1.191   1.574  25.266  0.00  0.00    +0.073 C 
ATOM     12  C   UNL     1      -0.511   1.366  24.987  0.00  0.00    +0.032 C 
ENDROOT
BRANCH   5   4
ATOM      4  C   UNL     1      -1.560   3.735  25.286  0.00  0.00    +0.133 C 
BRANCH   4   3
ATOM      1  O   UNL     1      -3.062   3.511  25.931  0.00  0.00    -0.249 OA
ATOM      2  C   UNL     1      -2.981   3.738  25.143  0.00  0.00    +0.344 C 
ATOM      3  N   UNL     1      -2.231   3.850  24.820  0.00  0.00    -0.185 NA
ATOM     26  N   UNL     1      -3.653   3.854  24.676  0.00  0.00    -0.161 NA
BRANCH  26  27
ATOM     27  C   UNL     1      -4.403   3.742  24.999  0.00  0.00    +0.076 A 
ATOM     28  C   UNL     1      -4.781   3.013  24.921  0.00  0.00    +0.027 A 
ATOM     29  C   UNL     1      -5.532   2.901  25.244  0.00  0.00    +0.070 A 
ATOM     30  C   UNL     1      -5.905   3.518  25.644  0.00  0.00    +0.010 A 
ATOM     31  C   UNL     1      -5.527   4.247  25.722  0.00  0.00    +0.002 A 
ATOM     32  C   UNL     1      -4.776   4.360  25.399  0.00  0.00    +0.017 A 
BRANCH  29  33
ATOM     33  C   UNL     1      -5.910   2.171  25.167  0.00  0.00    +0.100 C 
ATOM     34  N   UNL     1      -6.287   1.442  25.089  0.00  0.00    -0.191 NA
ENDBRANCH  29  33
ENDBRANCH  26  27
ENDBRANCH   4   3
ENDBRANCH   5   4
BRANCH  12  13
ATOM     13  C   UNL     1      -0.217   0.599  24.909  0.00  0.00    +0.074 C 
BRANCH  13  14
ATOM     14  N   UNL     1      -0.738  -0.040  24.867  0.00  0.00    -0.270 NA
ATOM     15  C   UNL     1      -0.998  -0.405  25.559  0.00  0.00    +0.094 C 
ATOM     16  C   UNL     1      -1.520  -1.044  25.517  0.00  0.00    +0.108 C 
ATOM     17  N   UNL     1      -1.779  -1.317  24.783  0.00  0.00    -0.305 N 
ATOM     18  C   UNL     1      -1.517  -0.951  24.090  0.00  0.00    +0.108 C 
ATOM     19  C   UNL     1      -0.996  -0.312  24.133  0.00  0.00    +0.094 C 
BRANCH  17  20
ATOM     20  C   UNL     1      -2.299  -1.955  24.740  0.00  0.00    +0.048 A 
ATOM     21  C   UNL     1      -3.071  -1.878  25.022  0.00  0.00    +0.015 A 
ATOM     22  C   UNL     1      -3.591  -2.516  24.980  0.00  0.00    +0.001 A 
ATOM     23  C   UNL     1      -3.340  -3.232  24.655  0.00  0.00    +0.000 A 
ATOM     24  C   UNL     1      -2.570  -3.309  24.374  0.00  0.00    +0.001 A 
ATOM     25  C   UNL     1      -2.048  -2.671  24.416  0.00  0.00    +0.015 A 
ENDBRANCH  17  20
ENDBRANCH  13  14
ENDBRANCH  12  13
TORSDOF 7
ENDMDL
MODEL 5
REMARK VINA RESULT:      -9.6      2.766      5.461
REMARK  Name = 
REMARK  7 active torsions:
REMARK  status: ('A' for Active; 'I' for Inactive)
REMARK    1  A    between atoms: N_3  and  C_4
REMARK    2  A    between atoms: C_4  and  C_5
REMARK    3  A    between atoms: C_12  and  C_13
REMARK    4  A    between atoms: C_13  and  N_14
REMARK    5  A    between atoms: N_17  and  C_20
REMARK    6  A    between atoms: N_26  and  C_27
REMARK    7  A    between atoms: C_29  and  C_33
REMARK                            x       y       z     vdW  Elec       q    Type
REMARK                         _______ _______ _______ _____ _____    ______ ____
ROOT
ATOM      5  C   UNL     1      -0.058   2.769  24.479  0.00  0.00    +0.079 C 
ATOM      6  C   UNL     1      -0.151   3.524  24.646  0.00  0.00    +0.018 C 
ATOM      7  C   UNL     1      -0.858   3.892  24.787  0.00  0.00    +0.005 C 
ATOM      8  C   UNL     1      -0.750   4.765  24.962  0.00  0.00    +0.017 C 
ATOM      9  C   UNL     1      -0.555   4.159  24.816  0.00  0.00    +0.072 C 
ATOM     10  N   UNL     1      -0.775   3.152  24.624  0.00  0.00    -0.272 NA
ATOM     11  C   UNL     1      -1.636   2.851  24.637  0.00  0.00    +0.073 C 
ATOM     12  C   UNL     1      -1.684   3.596  24.798  0.00  0.00    +0.032 C 
ENDROOT
BRANCH   5   4
ATOM      4  C   UNL     1       0.398   2.106  24.299  0.00  0.00    +0.133 C 
BRANCH   4   3
ATOM      1  O   UNL     1       1.270   0.773  23.870  0.00  0.00    -0.249 OA
ATOM      2  C   UNL     1       1.533   1.525  23.655  0.00  0.00    +0.344 C 
ATOM      3  N   UNL     1       1.097   2.191  23.869  0.00  0.00    -0.185 NA
ATOM     26  N   UNL     1       2.233   1.610  23.225  0.00  0.00    -0.161 NA
BRANCH  26  27
ATOM     27  C   UNL     1       2.668   0.943  23.011  0.00  0.00    +0.076 A 
ATOM     28  C   UNL     1       3.473   0.900  23.192  0.00  0.00    +0.027 A 
ATOM     29  C   UNL     1       3.908   0.234  22.978  0.00  0.00    +0.070 A 
ATOM     30  C   UNL     1       3.541  -0.390  22.583  0.00  0.00    +0.010 A 
ATOM     31  C   UNL     1       2.738  -0.347  22.402  0.00  0.00    +0.002 A 
ATOM     32  C   UNL     1       2.301   0.319  22.616  0.00  0.00    +0.017 A 
BRANCH  29  33
ATOM     33  C   UNL     1       4.713   0.191  23.159  0.00  0.00    +0.100 C 
ATOM     34  N   UNL     1       5.516   0.148  23.340  0.00  0.00    -0.191 NA
ENDBRANCH  29  33
ENDBRANCH  26  27
ENDBRANCH   4   3
ENDBRANCH   5   4
BRANCH  12  13
ATOM     13  C   UNL     1      -2.368   4.031  24.950  0.00  0.00    +0.074 C 
BRANCH  13  14
ATOM     14  N   UNL     1      -3.091   3.643  25.044  0.00  0.00    -0.270 NA
ATOM     15  C   UNL     1      -3.350   3.431  25.797  0.00  0.00    +0.094 C 
ATOM     16  C   UNL     1      -4.073   3.042  25.890  0.00  0.00    +0.108 C 
ATOM     17  N   UNL     1      -4.535   2.867  25.230  0.00  0.00    -0.305 N 
ATOM     18  C   UNL     1      -4.275   3.079  24.476  0.00  0.00    +0.108 C 
ATOM     19  C   UNL     1      -3.552   3.468  24.384  0.00  0.00    +0.094 C 
BRANCH  17  20
ATOM     20  C   UNL     1      -5.256   2.479  25.322  0.00  0.00    +0.048 A 
ATOM     21  C   UNL     1      -5.731   2.641  25.978  0.00  0.00    +0.015 A 
ATOM     22  C   UNL     1      -6.452   2.253  26.071  0.00  0.00    +0.001 A 
ATOM     23  C   UNL     1      -6.701   1.703  25.508  0.00  0.00    +0.000 A 
ATOM     24  C   UNL     1      -6.228   1.542  24.853  0.00  0.00    +0.001 A 
ATOM     25  C   UNL     1      -5.505   1.929  24.759  0.00  0.00    +0.015 A 
ENDBRANCH  17  20
ENDBRANCH  13  14
ENDBRANCH  12  13
TORSDOF 7
ENDMDL
MODEL 6
REMARK VINA RESULT:      -9.5      1.617      6.038
REMARK  Name = 
REMARK  7 active torsions:
REMARK  status: ('A' for Active; 'I' for Inactive)
REMARK    1  A    between atoms: N_3  and  C_4
REMARK    2  A    between atoms: C_4  and  C_5
REMARK    3  A    between atoms: C_12  and  C_13
REMARK    4  A    between atoms: C_13  and  N_14
REMARK    5  A    between atoms: N_17  and  C_20
REMARK    6  A    between atoms: N_26  and  C_27
REMARK    7  A    between atoms: C_29  and  C_33
REMARK                            x       y       z     vdW  Elec       q    Type
REMARK                         _______ _______ _______ _____ _____    ______ ____
ROOT
ATOM      5  C   UNL     1      -0.171   1.209  24.907  0.00  0.00    +0.079 C 
ATOM      6  C   UNL     1       0.117   1.859  25.223  0.00  0.00    +0.018 C 
ATOM      7  C   UNL     1      -0.280   2.560  25.302  0.00  0.00    +0.005 C 
ATOM      8  C   UNL     1       0.227   3.188  25.693  0.00  0.00    +0.017 C 
ATOM      9  C   UNL     1       0.094   2.596  25.452  0.00  0.00    +0.072 C 
ATOM     10  N   UNL     1      -0.569   1.927  24.991  0.00  0.00    -0.272 NA
ATOM     11  C   UNL     1      -1.413   2.188  24.762  0.00  0.00    +0.073 C 
ATOM     12  C   UNL     1      -1.093   2.805  25.080  0.00  0.00    +0.032 C 
ENDROOT
BRANCH   5   4
ATOM      4  C   UNL     1      -0.120   0.420  24.671  0.00  0.00    +0.133 C 
BRANCH   4   3
ATOM      1  O   UNL     1      -1.079  -0.704  23.937  0.00  0.00    -0.249 OA
ATOM      2  C   UNL     1      -0.963  -0.730  24.753  0.00  0.00    +0.344 C 
ATOM      3  N   UNL     1      -0.484  -0.169  25.120  0.00  0.00    -0.185 NA
ATOM     26  N   UNL     1      -1.327  -1.320  25.202  0.00  0.00    -0.161 NA
BRANCH  26  27
ATOM     27  C   UNL     1      -1.806  -1.881  24.835  0.00  0.00    +0.076 A 
ATOM     28  C   UNL     1      -2.599  -1.710  24.680  0.00  0.00    +0.027 A 
ATOM     29  C   UNL     1      -3.078  -2.271  24.313  0.00  0.00    +0.070 A 
ATOM     30  C   UNL     1      -2.765  -3.004  24.100  0.00  0.00    +0.010 A 
ATOM     31  C   UNL     1      -1.974  -3.176  24.254  0.00  0.00    +0.002 A 
ATOM     32  C   UNL     1      -1.494  -2.614  24.621  0.00  0.00    +0.017 A 
BRANCH  29  33
ATOM     33  C   UNL     1      -3.870  -2.100  24.158  0.00  0.00    +0.100 C 
ATOM     34  N   UNL     1      -4.662  -1.928  24.004  0.00  0.00    -0.191 NA
ENDBRANCH  29  33
ENDBRANCH  26  27
ENDBRANCH   4   3
ENDBRANCH   5   4
BRANCH  12  13
ATOM     13  C   UNL     1      -1.440   3.546  25.191  0.00  0.00    +0.074 C 
BRANCH  13  14
ATOM     14  N   UNL     1      -2.259   3.611  25.263  0.00  0.00    -0.270 NA
ATOM     15  C   UNL     1      -2.602   3.681  26.009  0.00  0.00    +0.094 C 
ATOM     16  C   UNL     1      -3.423   3.746  26.081  0.00  0.00    +0.108 C 
ATOM     17  N   UNL     1      -3.897   3.740  25.407  0.00  0.00    -0.305 N 
ATOM     18  C   UNL     1      -3.553   3.669  24.660  0.00  0.00    +0.108 C 
ATOM     19  C   UNL     1      -2.733   3.604  24.589  0.00  0.00    +0.094 C 
BRANCH  17  20
ATOM     20  C   UNL     1      -4.716   3.804  25.479  0.00  0.00    +0.048 A 
ATOM     21  C   UNL     1      -5.077   4.545  25.436  0.00  0.00    +0.015 A 
ATOM     22  C   UNL     1      -5.896   4.610  25.508  0.00  0.00    +0.001 A 
ATOM     23  C   UNL     1      -6.355   3.933  25.623  0.00  0.00    +0.000 A 
ATOM     24  C   UNL     1      -5.995   3.194  25.665  0.00  0.00    +0.001 A 
ATOM     25  C   UNL     1      -5.175   3.128  25.594  0.00  0.00    +0.015 A 
ENDBRANCH  17  20
ENDBRANCH  13  14
ENDBRANCH  12  13
TORSDOF 7
ENDMDL
MODEL 7
REMARK VINA RESULT:      -9.4      3.197      4.822
REMARK  Name = 
REMARK  7 active torsions:
REMARK  status: ('A' for Active; 'I' for Inactive)
REMARK    1  A    between atoms: N_3  and  C_4
REMARK    2  A    between atoms: C_4  and  C_5
REMARK    3  A    between atoms: C_12  and  C_13
REMARK    4  A    between atoms: C_13  and  N_14
REMARK    5  A    between atoms: N_17  and  C_20
REMARK    6  A    between atoms: N_26  and  C_27
REMARK    7  A    between atoms: C_29  and  C_33
REMARK                            x       y       z     vdW  Elec       q    Type
REMARK                         _______ _______ _______ _____ _____    ______ ____
ROOT
ATOM      5  C   UNL     1       0.286   2.128  24.410  0.00  0.00    +0.079 C 
ATOM      6  C   UNL     1      -0.139   2.453  24.975  0.00  0.00    +0.018 C 
ATOM      7  C   UNL     1      -0.883   2.222  25.197  0.00  0.00    +0.005 C 
ATOM      8  C   UNL     1      -1.201   2.724  25.869  0.00  0.00    +0.017 C 
ATOM      9  C   UNL     1      -0.762   2.534  25.424  0.00  0.00    +0.072 C 
ATOM     10  N   UNL     1      -0.472   1.899  24.642  0.00  0.00    -0.272 NA
ATOM     11  C   UNL     1      -1.029   1.240  24.344  0.00  0.00    +0.073 C 
ATOM     12  C   UNL     1      -1.413   1.587  24.905  0.00  0.00    +0.032 C 
ENDROOT
BRANCH   5   4
ATOM      4  C   UNL     1       0.963   2.064  23.943  0.00  0.00    +0.133 C 
BRANCH   4   3
ATOM      1  O   UNL     1       2.472   1.947  23.286  0.00  0.00    -0.249 OA
ATOM      2  C   UNL     1       2.046   1.263  23.466  0.00  0.00    +0.344 C 
ATOM      3  N   UNL     1       1.292   1.321  23.794  0.00  0.00    -0.185 NA
ATOM     26  N   UNL     1       2.375   0.521  23.317  0.00  0.00    -0.161 NA
BRANCH  26  27
ATOM     27  C   UNL     1       3.129   0.463  22.989  0.00  0.00    +0.076 A 
ATOM     28  C   UNL     1       3.783   0.338  23.477  0.00  0.00    +0.027 A 
ATOM     29  C   UNL     1       4.538   0.280  23.149  0.00  0.00    +0.070 A 
ATOM     30  C   UNL     1       4.639   0.347  22.333  0.00  0.00    +0.010 A 
ATOM     31  C   UNL     1       3.986   0.471  21.845  0.00  0.00    +0.002 A 
ATOM     32  C   UNL     1       3.231   0.530  22.173  0.00  0.00    +0.017 A 
BRANCH  29  33
ATOM     33  C   UNL     1       5.191   0.155  23.637  0.00  0.00    +0.100 C 
ATOM     34  N   UNL     1       5.845   0.030  24.124  0.00  0.00    -0.191 NA
ENDBRANCH  29  33
ENDBRANCH  26  27
ENDBRANCH   4   3
ENDBRANCH   5   4
BRANCH  12  13
ATOM     13  C   UNL     1      -2.170   1.402  25.180  0.00  0.00    +0.074 C 
BRANCH  13  14
ATOM     14  N   UNL     1      -2.511   0.675  24.991  0.00  0.00    -0.270 NA
ATOM     15  C   UNL     1      -2.397   0.025  25.485  0.00  0.00    +0.094 C 
ATOM     16  C   UNL     1      -2.739  -0.703  25.295  0.00  0.00    +0.108 C 
ATOM     17  N   UNL     1      -3.193  -0.778  24.611  0.00  0.00    -0.305 N 
ATOM     18  C   UNL     1      -3.307  -0.127  24.116  0.00  0.00    +0.108 C 
ATOM     19  C   UNL     1      -2.965   0.600  24.307  0.00  0.00    +0.094 C 
BRANCH  17  20
ATOM     20  C   UNL     1      -3.534  -1.504  24.421  0.00  0.00    +0.048 A 
ATOM     21  C   UNL     1      -3.209  -2.203  24.714  0.00  0.00    +0.015 A 
ATOM     22  C   UNL     1      -3.550  -2.929  24.524  0.00  0.00    +0.001 A 
ATOM     23  C   UNL     1      -4.218  -2.957  24.040  0.00  0.00    +0.000 A 
ATOM     24  C   UNL     1      -4.543  -2.259  23.746  0.00  0.00    +0.001 A 
ATOM     25  C   UNL     1      -4.202  -1.532  23.936  0.00  0.00    +0.015 A 
ENDBRANCH  17  20
ENDBRANCH  13  14
ENDBRANCH  12  13
TORSDOF 7
ENDMDL
MODEL 8
REMARK VINA RESULT:      -9.3      1.908      4.309
REMARK  Name = 
REMARK  7 active torsions:
REMARK  status: ('A' for Active; 'I' for Inactive)
REMARK    1  A    between atoms: N_3  and  C_4
REMARK    2  A    between atoms: C_4  and  C_5
REMARK    3  A    between atoms: C_12  and  C_13
REMARK    4  A    between atoms: C_13  and  N_14
REMARK    5  A    between atoms: N_17  and  C_20
REMARK    6  A    between atoms: N_26  and  C_27
REMARK    7  A    between atoms: C_29  and  C_33
REMARK                            x       y       z     vdW  Elec       q    Type
REMARK                         _______ _______ _______ _____ _____    ______ ____
ROOT
ATOM      5  C   UNL     1      -4.068  -1.014  24.854  0.00  0.00    +0.079 C 
ATOM      6  C   UNL     1      -3.867  -1.753  24.718  0.00  0.00    +0.018 C 
ATOM      7  C   UNL     1      -3.113  -2.022  24.597  0.00  0.00    +0.005 C 
ATOM      8  C   UNL     1      -3.093  -2.908  24.457  0.00  0.00    +0.017 C 
ATOM      9  C   UNL     1      -3.374  -2.330  24.576  0.00  0.00    +0.072 C 
ATOM     10  N   UNL     1      -3.302  -1.296  24.730  0.00  0.00    -0.272 NA
ATOM     11  C   UNL     1      -2.493  -0.875  24.711  0.00  0.00    +0.073 C 
ATOM     12  C   UNL     1      -2.338  -1.611  24.580  0.00  0.00    +0.032 C 
ENDROOT
BRANCH   5   4
ATOM      4  C   UNL     1      -4.616  -0.416  25.004  0.00  0.00    +0.133 C 
BRANCH   4   3
ATOM      1  O   UNL     1      -4.842   1.019  25.785  0.00  0.00    -0.249 OA
ATOM      2  C   UNL     1      -4.692   1.010  24.974  0.00  0.00    +0.344 C 
ATOM      3  N   UNL     1      -4.579   0.293  24.583  0.00  0.00    -0.185 NA
ATOM     26  N   UNL     1      -4.655   1.720  24.553  0.00  0.00    -0.161 NA
BRANCH  26  27
ATOM     27  C   UNL     1      -4.768   2.437  24.944  0.00  0.00    +0.076 A 
ATOM     28  C   UNL     1      -4.116   2.878  25.193  0.00  0.00    +0.027 A 
ATOM     29  C   UNL     1      -4.229   3.596  25.583  0.00  0.00    +0.070 A 
ATOM     30  C   UNL     1      -4.993   3.872  25.726  0.00  0.00    +0.010 A 
ATOM     31  C   UNL     1      -5.644   3.432  25.478  0.00  0.00    +0.002 A 
ATOM     32  C   UNL     1      -5.532   2.714  25.087  0.00  0.00    +0.017 A 
BRANCH  29  33
ATOM     33  C   UNL     1      -3.577   4.037  25.832  0.00  0.00    +0.100 C 
ATOM     34  N   UNL     1      -2.926   4.478  26.080  0.00  0.00    -0.191 NA
ENDBRANCH  29  33
ENDBRANCH  26  27
ENDBRANCH   4   3
ENDBRANCH   5   4
BRANCH  12  13
ATOM     13  C   UNL     1      -1.596  -1.950  24.450  0.00  0.00    +0.074 C 
BRANCH  13  14
ATOM     14  N   UNL     1      -0.967  -1.479  24.200  0.00  0.00    -0.270 NA
ATOM     15  C   UNL     1      -0.450  -1.153  24.753  0.00  0.00    +0.094 C 
ATOM     16  C   UNL     1       0.180  -0.681  24.502  0.00  0.00    +0.108 C 
ATOM     17  N   UNL     1       0.291  -0.537  23.697  0.00  0.00    -0.305 N 
ATOM     18  C   UNL     1      -0.226  -0.863  23.144  0.00  0.00    +0.108 C 
ATOM     19  C   UNL     1      -0.855  -1.335  23.395  0.00  0.00    +0.094 C 
BRANCH  17  20
ATOM     20  C   UNL     1       0.920  -0.067  23.446  0.00  0.00    +0.048 A 
ATOM     21  C   UNL     1       0.994   0.707  23.724  0.00  0.00    +0.015 A 
ATOM     22  C   UNL     1       1.623   1.178  23.473  0.00  0.00    +0.001 A 
ATOM     23  C   UNL     1       2.179   0.875  22.943  0.00  0.00    +0.000 A 
ATOM     24  C   UNL     1       2.106   0.103  22.666  0.00  0.00    +0.001 A 
ATOM     25  C   UNL     1       1.476  -0.369  22.917  0.00  0.00    +0.015 A 
ENDBRANCH  17  20
ENDBRANCH  13  14
ENDBRANCH  12  13
TORSDOF 7
ENDMDL
MODEL 9
REMARK VINA RESULT:      -9.2     14.339     16.598
REMARK  Name = 
REMARK  7 active torsions:
REMARK  status: ('A' for Active; 'I' for Inactive)
REMARK    1  A    between atoms: N_3  and  C_4
REMARK    2  A    between atoms: C_4  and  C_5
REMARK    3  A    between atoms: C_12  and  C_13
REMARK    4  A    between atoms: C_13  and  N_14
REMARK    5  A    between atoms: N_17  and  C_20
REMARK    6  A    between atoms: N_26  and  C_27
REMARK    7  A    between atoms: C_29  and  C_33
REMARK                            x       y       z     vdW  Elec       q    Type
REMARK                         _______ _______ _______ _____ _____    ______ ____
ROOT
ATOM      5  C   UNL     1      -7.919  -9.794  12.777  0.00  0.00    +0.079 C 
ATOM      6  C   UNL     1      -8.635  -9.657  13.050  0.00  0.00    +0.018 C 
ATOM      7  C   UNL     1      -8.847  -9.640  13.831  0.00  0.00    +0.005 C 
ATOM      8  C   UNL     1      -9.720  -9.465  13.936  0.00  0.00    +0.017 C 
ATOM      9  C   UNL     1      -9.170  -9.566  13.599  0.00  0.00    +0.072 C 
ATOM     10  N   UNL     1      -8.143  -9.775  13.572  0.00  0.00    -0.272 NA
ATOM     11  C   UNL     1      -7.670  -9.897  14.342  0.00  0.00    +0.073 C 
ATOM     12  C   UNL     1      -8.386  -9.759  14.568  0.00  0.00    +0.032 C 
ENDROOT
BRANCH   5   4
ATOM      4  C   UNL     1      -7.367  -9.885  12.171  0.00  0.00    +0.133 C 
BRANCH   4   3
ATOM      1  O   UNL     1      -6.131 -10.099  11.099  0.00  0.00    -0.249 OA
ATOM      2  C   UNL     1      -6.317  -9.342  11.370  0.00  0.00    +0.344 C 
ATOM      3  N   UNL     1      -6.934  -9.235  11.905  0.00  0.00    -0.185 NA
ATOM     26  N   UNL     1      -5.883  -8.692  11.104  0.00  0.00    -0.161 NA
BRANCH  26  27
ATOM     27  C   UNL     1      -5.266  -8.799  10.568  0.00  0.00    +0.076 A 
ATOM     28  C   UNL     1      -4.520  -9.025  10.838  0.00  0.00    +0.027 A 
ATOM     29  C   UNL     1      -3.902  -9.133  10.303  0.00  0.00    +0.070 A 
ATOM     30  C   UNL     1      -4.030  -9.014   9.496  0.00  0.00    +0.010 A 
ATOM     31  C   UNL     1      -4.775  -8.787   9.226  0.00  0.00    +0.002 A 
ATOM     32  C   UNL     1      -5.394  -8.680   9.762  0.00  0.00    +0.017 A 
BRANCH  29  33
ATOM     33  C   UNL     1      -3.156  -9.359  10.573  0.00  0.00    +0.100 C 
ATOM     34  N   UNL     1      -2.410  -9.585  10.843  0.00  0.00    -0.191 NA
ENDBRANCH  29  33
ENDBRANCH  26  27
ENDBRANCH   4   3
ENDBRANCH   5   4
BRANCH  12  13
ATOM     13  C   UNL     1      -8.668  -9.728  15.343  0.00  0.00    +0.074 C 
BRANCH  13  14
ATOM     14  N   UNL     1      -8.154  -9.867  15.974  0.00  0.00    -0.270 NA
ATOM     15  C   UNL     1      -7.875  -9.237  16.425  0.00  0.00    +0.094 C 
ATOM     16  C   UNL     1      -7.361  -9.377  17.057  0.00  0.00    +0.108 C 
ATOM     17  N   UNL     1      -7.128 -10.148  17.235  0.00  0.00    -0.305 N 
ATOM     18  C   UNL     1      -7.408 -10.779  16.783  0.00  0.00    +0.108 C 
ATOM     19  C   UNL     1      -7.922 -10.638  16.152  0.00  0.00    +0.094 C 
BRANCH  17  20
ATOM     20  C   UNL     1      -6.615 -10.288  17.865  0.00  0.00    +0.048 A 
ATOM     21  C   UNL     1      -6.911 -10.350  18.632  0.00  0.00    +0.015 A 
ATOM     22  C   UNL     1      -6.398 -10.490  19.263  0.00  0.00    +0.001 A 
ATOM     23  C   UNL     1      -5.587 -10.568  19.126  0.00  0.00    +0.000 A 
ATOM     24  C   UNL     1      -5.292 -10.506  18.359  0.00  0.00    +0.001 A 
ATOM     25  C   UNL     1      -5.804 -10.366  17.728  0.00  0.00    +0.015 A 
ENDBRANCH  17  20
ENDBRANCH  13  14
ENDBRANCH  12  13
TORSDOF 7
ENDMDL
MODEL 10
REMARK VINA RESULT:      -9.2     14.308     16.334
REMARK  Name = 
REMARK  7 active torsions:
REMARK  status: ('A' for Active; 'I' for Inactive)
REMARK    1  A    between atoms: N_3  and  C_4
REMARK    2  A    between atoms: C_4  and  C_5
REMARK    3  A    between atoms: C_12  and  C_13
REMARK    4  A    between atoms: C_13  and  N_14
REMARK    5  A    between atoms: N_17  and  C_20
REMARK    6  A    between atoms: N_26  and  C_27
REMARK    7  A    between atoms: C_29  and  C_33
REMARK                            x       y       z     vdW  Elec       q    Type
REMARK                         _______ _______ _______ _____ _____    ______ ____
ROOT
ATOM      5  C   UNL     1      -5.980 -10.357  16.132  0.00  0.00    +0.079 C 
ATOM      6  C   UNL     1      -5.244 -10.396  16.381  0.00  0.00    +0.018 C 
ATOM      7  C   UNL     1      -4.594 -10.523  15.915  0.00  0.00    +0.005 C 
ATOM      8  C   UNL     1      -3.836 -10.534  16.395  0.00  0.00    +0.017 C 
ATOM      9  C   UNL     1      -4.481 -10.483  16.301  0.00  0.00    +0.072 C 
ATOM     10  N   UNL     1      -5.313 -10.486  15.663  0.00  0.00    -0.272 NA
ATOM     11  C   UNL     1      -5.213 -10.617  14.766  0.00  0.00    +0.073 C 
ATOM     12  C   UNL     1      -4.506 -10.648  15.051  0.00  0.00    +0.032 C 
ENDROOT
BRANCH   5   4
ATOM      4  C   UNL     1      -6.791 -10.262  16.246  0.00  0.00    +0.133 C 
BRANCH   4   3
ATOM      1  O   UNL     1      -8.407  -9.946  16.347  0.00  0.00    -0.249 OA
ATOM      2  C   UNL     1      -7.877  -9.541  16.831  0.00  0.00    +0.344 C 
ATOM      3  N   UNL     1      -7.069  -9.698  16.781  0.00  0.00    -0.185 NA
ATOM     26  N   UNL     1      -8.155  -8.977  17.367  0.00  0.00    -0.161 NA
BRANCH  26  27
ATOM     27  C   UNL     1      -8.963  -8.820  17.417  0.00  0.00    +0.076 A 
ATOM     28  C   UNL     1      -9.279  -8.160  17.036  0.00  0.00    +0.027 A 
ATOM     29  C   UNL     1     -10.087  -8.002  17.086  0.00  0.00    +0.070 A 
ATOM     30  C   UNL     1     -10.579  -8.504  17.517  0.00  0.00    +0.010 A 
ATOM     31  C   UNL     1     -10.263  -9.164  17.898  0.00  0.00    +0.002 A 
ATOM     32  C   UNL     1      -9.455  -9.322  17.849  0.00  0.00    +0.017 A 
BRANCH  29  33
ATOM     33  C   UNL     1     -10.403  -7.342  16.704  0.00  0.00    +0.100 C 
ATOM     34  N   UNL     1     -10.719  -6.683  16.323  0.00  0.00    -0.191 NA
ENDBRANCH  29  33
ENDBRANCH  26  27
ENDBRANCH   4   3
ENDBRANCH   5   4
BRANCH  12  13
ATOM     13  C   UNL     1      -3.804 -10.774  14.634  0.00  0.00    +0.074 C 
BRANCH  13  14
ATOM     14  N   UNL     1      -3.777 -10.629  13.822  0.00  0.00    -0.270 NA
ATOM     15  C   UNL     1      -4.459 -10.706  13.366  0.00  0.00    +0.094 C 
ATOM     16  C   UNL     1      -4.430 -10.561  12.553  0.00  0.00    +0.108 C 
ATOM     17  N   UNL     1      -3.719 -10.339  12.199  0.00  0.00    -0.305 N 
ATOM     18  C   UNL     1      -3.037 -10.261  12.656  0.00  0.00    +0.108 C 
ATOM     19  C   UNL     1      -3.066 -10.407  13.468  0.00  0.00    +0.094 C 
BRANCH  17  20
ATOM     20  C   UNL     1      -3.691 -10.194  11.388  0.00  0.00    +0.048 A 
ATOM     21  C   UNL     1      -3.427 -10.781  10.872  0.00  0.00    +0.015 A 
ATOM     22  C   UNL     1      -3.398 -10.636  10.061  0.00  0.00    +0.001 A 
ATOM     23  C   UNL     1      -3.634  -9.903   9.764  0.00  0.00    +0.000 A 
ATOM     24  C   UNL     1      -3.898  -9.316  10.279  0.00  0.00    +0.001 A 
ATOM     25  C   UNL     1      -3.927  -9.460  11.091  0.00  0.00    +0.015 A 
ENDBRANCH  17  20
ENDBRANCH  13  14
ENDBRANCH  12  13
TORSDOF 7
ENDMDL
