MODEL 1
REMARK VINA RESULT:     -12.4      0.000      0.000
REMARK  Name = 
REMARK  6 active torsions:
REMARK  status: ('A' for Active; 'I' for Inactive)
REMARK    1  A    between atoms: C_2  and  O_10
REMARK    2  A    between atoms: N_3  and  C_4
REMARK    3  A    between atoms: O_10  and  C_11
REMARK    4  A    between atoms: C_15  and  N_19
REMARK    5  A    between atoms: N_19  and  S_20
REMARK    6  A    between atoms: S_20  and  C_23
REMARK                            x       y       z     vdW  Elec       q    Type
REMARK                         _______ _______ _______ _____ _____    ______ ____
ROOT
ATOM     11  C   UNL     1      -0.693  -0.882  24.736  0.00  0.00    +0.229 C 
ATOM     12  C   UNL     1      -0.260  -0.811  24.037  0.00  0.00    +0.188 C 
ATOM     13  O   UNL     1       0.012  -0.034  23.983  0.00  0.00    -0.348 OA
ATOM     14  C   UNL     1      -0.253   0.375  24.648  0.00  0.00    +0.166 C 
ATOM     15  C   UNL     1      -0.249   1.109  25.026  0.00  0.00    +0.157 C 
ATOM     16  C   UNL     1      -0.682   1.038  25.725  0.00  0.00    +0.164 C 
ATOM     17  O   UNL     1      -0.954   0.261  25.779  0.00  0.00    -0.348 OA
ATOM     18  C   UNL     1      -0.689  -0.149  25.114  0.00  0.00    +0.186 C 
ENDROOT
BRANCH  11  10
ATOM     10  O   UNL     1      -1.065  -1.566  25.008  0.00  0.00    -0.432 OA
BRANCH  10   2
ATOM      1  O   UNL     1      -1.669  -2.195  23.877  0.00  0.00    -0.225 OA
ATOM      2  C   UNL     1      -1.736  -1.852  24.624  0.00  0.00    +0.421 C 
ATOM      3  N   UNL     1      -2.475  -1.796  24.987  0.00  0.00    -0.170 NA
BRANCH   3   4
ATOM      4  C   UNL     1      -3.146  -2.082  24.603  0.00  0.00    +0.099 C 
ATOM      5  C   UNL     1      -3.306  -2.892  24.598  0.00  0.00    +0.022 C 
ATOM      6  C   UNL     1      -3.977  -3.178  24.214  0.00  0.00    +0.002 C 
ATOM      7  C   UNL     1      -4.489  -2.655  23.834  0.00  0.00    +0.000 C 
ATOM      8  C   UNL     1      -4.331  -1.845  23.838  0.00  0.00    +0.002 C 
ATOM      9  C   UNL     1      -3.659  -1.559  24.223  0.00  0.00    +0.022 C 
ENDBRANCH   3   4
ENDBRANCH  10   2
ENDBRANCH  11  10
BRANCH  15  19
ATOM     19  N   UNL     1       0.122   1.792  24.754  0.00  0.00    -0.074 NA
BRANCH  19  20
ATOM     20  S   UNL     1      -0.247   2.525  24.839  0.00  0.00    +0.077 S 
ATOM     21  O   UNL     1      -0.599   2.434  24.098  0.00  0.00    -0.152 OA
ATOM     22  O   UNL     1       0.106   2.617  25.579  0.00  0.00    -0.152 OA
BRANCH  20  23
ATOM     23  C   UNL     1      -0.616   3.258  24.924  0.00  0.00    +0.124 A 
ATOM     24  C   UNL     1      -1.357   3.309  25.281  0.00  0.00    +0.020 A 
ATOM     25  C   UNL     1      -1.726   4.041  25.366  0.00  0.00    +0.001 A 
ATOM     26  C   UNL     1      -2.468   4.092  25.724  0.00  0.00    +0.000 A 
ATOM     27  C   UNL     1      -2.836   4.824  25.808  0.00  0.00    +0.000 A 
ATOM     28  C   UNL     1      -2.462   5.508  25.535  0.00  0.00    +0.000 A 
ATOM     29  C   UNL     1      -1.721   5.458  25.177  0.00  0.00    +0.000 A 
ATOM     30  C   UNL     1      -1.352   4.725  25.092  0.00  0.00    +0.000 A 
ATOM     31  C   UNL     1      -0.611   4.675  24.735  0.00  0.00    +0.001 A 
ATOM     32  C   UNL     1      -0.242   3.943  24.650  0.00  0.00    +0.020 A 
ENDBRANCH  20  23
ENDBRANCH  19  20
ENDBRANCH  15  19
TORSDOF 6
ENDMDL
MODEL 2
REMARK VINA RESULT:     -11.8      1.066      5.768
REMARK  Name = 
REMARK  6 active torsions:
REMARK  status: ('A' for Active; 'I' for Inactive)
REMARK    1  A    between atoms: C_2  and  O_10
REMARK    2  A    between atoms: N_3  and  C_4
REMARK    3  A    between atoms: O_10  and  C_11
REMARK    4  A    between atoms: C_15  and  N_19
REMARK    5  A    between atoms: N_19  and  S_20
REMARK    6  A    between atoms: S_20  and  C_23
REMARK                            x       y       z     vdW  Elec       q    Type
REMARK                         _______ _______ _______ _____ _____    ______ ____
ROOT
ATOM     11  C   UNL     1      -0.145   1.776  25.078  0.00  0.00    +0.229 C 
ATOM     12  C   UNL     1      -0.330   1.640  25.870  0.00  0.00    +0.188 C 
ATOM     13  O   UNL     1      -0.480   0.833  25.962  0.00  0.00    -0.348 OA
ATOM     14  C   UNL     1      -0.388   0.473  25.226  0.00  0.00    +0.166 C 
ATOM     15  C   UNL     1      -0.423  -0.249  24.828  0.00  0.00    +0.157 C 
ATOM     16  C   UNL     1      -0.238  -0.113  24.035  0.00  0.00    +0.164 C 
ATOM     17  O   UNL     1      -0.089   0.693  23.944  0.00  0.00    -0.348 OA
ATOM     18  C   UNL     1      -0.181   1.055  24.679  0.00  0.00    +0.186 C 
ENDROOT
BRANCH  11  10
ATOM     10  O   UNL     1       0.042   2.507  24.744  0.00  0.00    -0.432 OA
BRANCH  10   2
ATOM      1  O   UNL     1      -0.198   3.473  25.768  0.00  0.00    -0.225 OA
ATOM      2  C   UNL     1      -0.337   3.190  25.005  0.00  0.00    +0.421 C 
ATOM      3  N   UNL     1      -0.856   3.592  24.505  0.00  0.00    -0.170 NA
BRANCH   3   4
ATOM      4  C   UNL     1      -1.236   4.275  24.767  0.00  0.00    +0.099 C 
ATOM      5  C   UNL     1      -0.858   5.007  24.706  0.00  0.00    +0.022 C 
ATOM      6  C   UNL     1      -1.238   5.690  24.968  0.00  0.00    +0.002 C 
ATOM      7  C   UNL     1      -1.996   5.643  25.290  0.00  0.00    +0.000 C 
ATOM      8  C   UNL     1      -2.374   4.913  25.351  0.00  0.00    +0.002 C 
ATOM      9  C   UNL     1      -1.994   4.229  25.089  0.00  0.00    +0.022 C 
ENDBRANCH   3   4
ENDBRANCH  10   2
ENDBRANCH  11  10
BRANCH  15  19
ATOM     19  N   UNL     1      -0.611  -0.979  25.162  0.00  0.00    -0.074 NA
BRANCH  19  20
ATOM     20  S   UNL     1      -1.295  -1.377  24.929  0.00  0.00    +0.077 S 
ATOM     21  O   UNL     1      -0.944  -1.555  24.204  0.00  0.00    -0.152 OA
ATOM     22  O   UNL     1      -1.645  -1.199  25.655  0.00  0.00    -0.152 OA
BRANCH  20  23
ATOM     23  C   UNL     1      -1.979  -1.775  24.696  0.00  0.00    +0.124 A 
ATOM     24  C   UNL     1      -2.656  -1.350  24.496  0.00  0.00    +0.020 A 
ATOM     25  C   UNL     1      -3.340  -1.748  24.263  0.00  0.00    +0.001 A 
ATOM     26  C   UNL     1      -4.018  -1.323  24.063  0.00  0.00    +0.000 A 
ATOM     27  C   UNL     1      -4.701  -1.721  23.830  0.00  0.00    +0.000 A 
ATOM     28  C   UNL     1      -4.707  -2.547  23.797  0.00  0.00    +0.000 A 
ATOM     29  C   UNL     1      -4.030  -2.972  23.998  0.00  0.00    +0.000 A 
ATOM     30  C   UNL     1      -3.346  -2.574  24.231  0.00  0.00    +0.000 A 
ATOM     31  C   UNL     1      -2.669  -2.999  24.431  0.00  0.00    +0.001 A 
ATOM     32  C   UNL     1      -1.985  -2.601  24.664  0.00  0.00    +0.020 A 
ENDBRANCH  20  23
ENDBRANCH  19  20
ENDBRANCH  15  19
TORSDOF 6
ENDMDL
MODEL 3
REMARK VINA RESULT:     -11.4      2.421      6.332
REMARK  Name = 
REMARK  6 active torsions:
REMARK  status: ('A' for Active; 'I' for Inactive)
REMARK    1  A    between atoms: C_2  and  O_10
REMARK    2  A    between atoms: N_3  and  C_4
REMARK    3  A    between atoms: O_10  and  C_11
REMARK    4  A    between atoms: C_15  and  N_19
REMARK    5  A    between atoms: N_19  and  S_20
REMARK    6  A    between atoms: S_20  and  C_23
REMARK                            x       y       z     vdW  Elec       q    Type
REMARK                         _______ _______ _______ _____ _____    ______ ____
ROOT
ATOM     11  C   UNL     1      -4.409   3.046  25.082  0.00  0.00    +0.229 C 
ATOM     12  C   UNL     1      -4.783   2.865  25.794  0.00  0.00    +0.188 C 
ATOM     13  O   UNL     1      -4.944   2.055  25.799  0.00  0.00    -0.348 OA
ATOM     14  C   UNL     1      -4.668   1.737  25.091  0.00  0.00    +0.166 C 
ATOM     15  C   UNL     1      -4.596   1.040  24.655  0.00  0.00    +0.157 C 
ATOM     16  C   UNL     1      -4.221   1.221  23.942  0.00  0.00    +0.164 C 
ATOM     17  O   UNL     1      -4.061   2.030  23.938  0.00  0.00    -0.348 OA
ATOM     18  C   UNL     1      -4.337   2.349  24.647  0.00  0.00    +0.186 C 
ENDROOT
BRANCH  11  10
ATOM     10  O   UNL     1      -4.151   3.794  24.847  0.00  0.00    -0.432 OA
BRANCH  10   2
ATOM      1  O   UNL     1      -3.238   4.199  25.868  0.00  0.00    -0.225 OA
ATOM      2  C   UNL     1      -3.405   4.063  25.071  0.00  0.00    +0.421 C 
ATOM      3  N   UNL     1      -2.824   4.195  24.500  0.00  0.00    -0.170 NA
BRANCH   3   4
ATOM      4  C   UNL     1      -2.078   4.464  24.724  0.00  0.00    +0.099 C 
ATOM      5  C   UNL     1      -1.463   3.927  24.843  0.00  0.00    +0.022 C 
ATOM      6  C   UNL     1      -0.717   4.196  25.068  0.00  0.00    +0.002 C 
ATOM      7  C   UNL     1      -0.584   5.003  25.173  0.00  0.00    +0.000 C 
ATOM      8  C   UNL     1      -1.198   5.541  25.054  0.00  0.00    +0.002 C 
ATOM      9  C   UNL     1      -1.945   5.272  24.830  0.00  0.00    +0.022 C 
ENDBRANCH   3   4
ENDBRANCH  10   2
ENDBRANCH  11  10
BRANCH  15  19
ATOM     19  N   UNL     1      -4.854   0.293  24.890  0.00  0.00    -0.074 NA
BRANCH  19  20
ATOM     20  S   UNL     1      -4.370  -0.366  24.778  0.00  0.00    +0.077 S 
ATOM     21  O   UNL     1      -4.603  -0.402  23.987  0.00  0.00    -0.152 OA
ATOM     22  O   UNL     1      -4.137  -0.330  25.569  0.00  0.00    -0.152 OA
BRANCH  20  23
ATOM     23  C   UNL     1      -3.886  -1.025  24.665  0.00  0.00    +0.124 A 
ATOM     24  C   UNL     1      -3.082  -0.982  24.842  0.00  0.00    +0.020 A 
ATOM     25  C   UNL     1      -2.599  -1.640  24.729  0.00  0.00    +0.001 A 
ATOM     26  C   UNL     1      -1.794  -1.597  24.906  0.00  0.00    +0.000 A 
ATOM     27  C   UNL     1      -1.311  -2.255  24.793  0.00  0.00    +0.000 A 
ATOM     28  C   UNL     1      -1.632  -2.959  24.503  0.00  0.00    +0.000 A 
ATOM     29  C   UNL     1      -2.436  -3.002  24.326  0.00  0.00    +0.000 A 
ATOM     30  C   UNL     1      -2.920  -2.343  24.439  0.00  0.00    +0.000 A 
ATOM     31  C   UNL     1      -3.724  -2.386  24.262  0.00  0.00    +0.001 A 
ATOM     32  C   UNL     1      -4.208  -1.728  24.375  0.00  0.00    +0.020 A 
ENDBRANCH  20  23
ENDBRANCH  19  20
ENDBRANCH  15  19
TORSDOF 6
ENDMDL
MODEL 4
REMARK VINA RESULT:     -11.0      2.921      4.872
REMARK  Name = 
REMARK  6 active torsions:
REMARK  status: ('A' for Active; 'I' for Inactive)
REMARK    1  A    between atoms: C_2  and  O_10
REMARK    2  A    between atoms: N_3  and  C_4
REMARK    3  A    between atoms: O_10  and  C_11
REMARK    4  A    between atoms: C_15  and  N_19
REMARK    5  A    between atoms: N_19  and  S_20
REMARK    6  A    between atoms: S_20  and  C_23
REMARK                            x       y       z     vdW  Elec       q    Type
REMARK                         _______ _______ _______ _____ _____    ______ ____
ROOT
ATOM     11  C   UNL     1       0.548   0.033  23.315  0.00  0.00    +0.229 C 
ATOM     12  C   UNL     1       0.624  -0.625  23.805  0.00  0.00    +0.188 C 
ATOM     13  O   UNL     1      -0.047  -0.667  24.283  0.00  0.00    -0.348 OA
ATOM     14  C   UNL     1      -0.538  -0.034  24.088  0.00  0.00    +0.166 C 
ATOM     15  C   UNL     1      -1.257   0.332  24.262  0.00  0.00    +0.157 C 
ATOM     16  C   UNL     1      -1.333   0.991  23.771  0.00  0.00    +0.164 C 
ATOM     17  O   UNL     1      -0.662   1.032  23.294  0.00  0.00    -0.348 OA
ATOM     18  C   UNL     1      -0.170   0.399  23.489  0.00  0.00    +0.186 C 
ENDROOT
BRANCH  11  10
ATOM     10  O   UNL     1       1.094   0.282  22.749  0.00  0.00    -0.432 OA
BRANCH  10   2
ATOM      1  O   UNL     1       2.057   0.914  23.593  0.00  0.00    -0.225 OA
ATOM      2  C   UNL     1       1.880   0.413  22.962  0.00  0.00    +0.421 C 
ATOM      3  N   UNL     1       2.489   0.042  22.546  0.00  0.00    -0.170 NA
BRANCH   3   4
ATOM      4  C   UNL     1       3.274   0.173  22.760  0.00  0.00    +0.099 C 
ATOM      5  C   UNL     1       3.698  -0.415  23.154  0.00  0.00    +0.022 C 
ATOM      6  C   UNL     1       4.484  -0.284  23.368  0.00  0.00    +0.002 C 
ATOM      7  C   UNL     1       4.846   0.435  23.188  0.00  0.00    +0.000 C 
ATOM      8  C   UNL     1       4.423   1.023  22.794  0.00  0.00    +0.002 C 
ATOM      9  C   UNL     1       3.636   0.892  22.580  0.00  0.00    +0.022 C 
ENDBRANCH   3   4
ENDBRANCH  10   2
ENDBRANCH  11  10
BRANCH  15  19
ATOM     19  N   UNL     1      -1.802   0.083  24.828  0.00  0.00    -0.074 NA
BRANCH  19  20
ATOM     20  S   UNL     1      -2.555   0.420  24.852  0.00  0.00    +0.077 S 
ATOM     21  O   UNL     1      -2.809  -0.106  24.269  0.00  0.00    -0.152 OA
ATOM     22  O   UNL     1      -2.301   0.946  25.435  0.00  0.00    -0.152 OA
BRANCH  20  23
ATOM     23  C   UNL     1      -3.308   0.757  24.876  0.00  0.00    +0.124 A 
ATOM     24  C   UNL     1      -3.394   1.569  24.991  0.00  0.00    +0.020 A 
ATOM     25  C   UNL     1      -4.146   1.905  25.015  0.00  0.00    +0.001 A 
ATOM     26  C   UNL     1      -4.233   2.717  25.130  0.00  0.00    +0.000 A 
ATOM     27  C   UNL     1      -4.985   3.054  25.154  0.00  0.00    +0.000 A 
ATOM     28  C   UNL     1      -5.653   2.577  25.063  0.00  0.00    +0.000 A 
ATOM     29  C   UNL     1      -5.567   1.765  24.948  0.00  0.00    +0.000 A 
ATOM     30  C   UNL     1      -4.815   1.428  24.924  0.00  0.00    +0.000 A 
ATOM     31  C   UNL     1      -4.729   0.616  24.809  0.00  0.00    +0.001 A 
ATOM     32  C   UNL     1      -3.976   0.280  24.785  0.00  0.00    +0.020 A 
ENDBRANCH  20  23
ENDBRANCH  19  20
ENDBRANCH  15  19
TORSDOF 6
ENDMDL
MODEL 5
REMARK VINA RESULT:     -10.6      2.339      3.149
REMARK  Name = 
REMARK  6 active torsions:
REMARK  status: ('A' for Active; 'I' for Inactive)
REMARK    1  A    between atoms: C_2  and  O_10
REMARK    2  A    between atoms: N_3  and  C_4
REMARK    3  A    between atoms: O_10  and  C_11
REMARK    4  A    between atoms: C_15  and  N_19
REMARK    5  A    between atoms: N_19  and  S_20
REMARK    6  A    between atoms: S_20  and  C_23
REMARK                            x       y       z     vdW  Elec       q    Type
REMARK                         _______ _______ _______ _____ _____    ______ ____
ROOT
ATOM     11  C   UNL     1      -4.816   0.499  24.775  0.00  0.00    +0.229 C 
ATOM     12  C   UNL     1      -5.019   0.633  25.563  0.00  0.00    +0.188 C 
ATOM     13  O   UNL     1      -4.894   1.432  25.726  0.00  0.00    -0.348 OA
ATOM     14  C   UNL     1      -4.614   1.791  25.039  0.00  0.00    +0.166 C 
ATOM     15  C   UNL     1      -4.363   2.507  24.714  0.00  0.00    +0.157 C 
ATOM     16  C   UNL     1      -4.159   2.373  23.925  0.00  0.00    +0.164 C 
ATOM     17  O   UNL     1      -4.284   1.574  23.763  0.00  0.00    -0.348 OA
ATOM     18  C   UNL     1      -4.565   1.214  24.450  0.00  0.00    +0.186 C 
ENDROOT
BRANCH  11  10
ATOM     10  O   UNL     1      -4.856  -0.225  24.382  0.00  0.00    -0.432 OA
BRANCH  10   2
ATOM      1  O   UNL     1      -4.166  -0.980  25.379  0.00  0.00    -0.225 OA
ATOM      2  C   UNL     1      -4.341  -0.836  24.585  0.00  0.00    +0.421 C 
ATOM      3  N   UNL     1      -4.000  -1.303  23.997  0.00  0.00    -0.170 NA
BRANCH   3   4
ATOM      4  C   UNL     1      -3.484  -1.913  24.201  0.00  0.00    +0.099 C 
ATOM      5  C   UNL     1      -3.778  -2.669  24.352  0.00  0.00    +0.022 C 
ATOM      6  C   UNL     1      -3.263  -3.279  24.556  0.00  0.00    +0.002 C 
ATOM      7  C   UNL     1      -2.453  -3.134  24.609  0.00  0.00    +0.000 C 
ATOM      8  C   UNL     1      -2.157  -2.379  24.457  0.00  0.00    +0.002 C 
ATOM      9  C   UNL     1      -2.674  -1.768  24.253  0.00  0.00    +0.022 C 
ENDBRANCH   3   4
ENDBRANCH  10   2
ENDBRANCH  11  10
BRANCH  15  19
ATOM     19  N   UNL     1      -4.322   3.230  25.108  0.00  0.00    -0.074 NA
BRANCH  19  20
ATOM     20  S   UNL     1      -3.624   3.670  25.095  0.00  0.00    +0.077 S 
ATOM     21  O   UNL     1      -3.816   3.952  24.344  0.00  0.00    -0.152 OA
ATOM     22  O   UNL     1      -3.433   3.387  25.846  0.00  0.00    -0.152 OA
BRANCH  20  23
ATOM     23  C   UNL     1      -2.926   4.109  25.082  0.00  0.00    +0.124 A 
ATOM     24  C   UNL     1      -2.211   3.743  24.895  0.00  0.00    +0.020 A 
ATOM     25  C   UNL     1      -1.514   4.183  24.882  0.00  0.00    +0.001 A 
ATOM     26  C   UNL     1      -0.798   3.817  24.695  0.00  0.00    +0.000 A 
ATOM     27  C   UNL     1      -0.101   4.256  24.682  0.00  0.00    +0.000 A 
ATOM     28  C   UNL     1      -0.118   5.063  24.858  0.00  0.00    +0.000 A 
ATOM     29  C   UNL     1      -0.833   5.429  25.045  0.00  0.00    +0.000 A 
ATOM     30  C   UNL     1      -1.531   4.990  25.058  0.00  0.00    +0.000 A 
ATOM     31  C   UNL     1      -2.246   5.355  25.245  0.00  0.00    +0.001 A 
ATOM     32  C   UNL     1      -2.943   4.916  25.258  0.00  0.00    +0.020 A 
ENDBRANCH  20  23
ENDBRANCH  19  20
ENDBRANCH  15  19
TORSDOF 6
ENDMDL
MODEL 6
REMARK VINA RESULT:     -10.6      2.891      5.929
REMARK  Name = 
REMARK  6 active torsions:
REMARK  status: ('A' for Active; 'I' for Inactive)
REMARK    1  A    between atoms: C_2  and  O_10
REMARK    2  A    between atoms: N_3  and  C_4
REMARK    3  A    between atoms: O_10  and  C_11
REMARK    4  A    between atoms: C_15  and  N_19
REMARK    5  A    between atoms: N_19  and  S_20
REMARK    6  A    between atoms: S_20  and  C_23
REMARK                            x       y       z     vdW  Elec       q    Type
REMARK                         _______ _______ _______ _____ _____    ______ ____
ROOT
ATOM     11  C   UNL     1       1.564   0.706  23.187  0.00  0.00    +0.229 C 
ATOM     12  C   UNL     1       1.459   1.427  23.573  0.00  0.00    +0.188 C 
ATOM     13  O   UNL     1       0.758   1.384  24.006  0.00  0.00    -0.348 OA
ATOM     14  C   UNL     1       0.431   0.637  23.888  0.00  0.00    +0.166 C 
ATOM     15  C   UNL     1      -0.205   0.148  24.082  0.00  0.00    +0.157 C 
ATOM     16  C   UNL     1      -0.100  -0.574  23.695  0.00  0.00    +0.164 C 
ATOM     17  O   UNL     1       0.601  -0.530  23.262  0.00  0.00    -0.348 OA
ATOM     18  C   UNL     1       0.929   0.217  23.380  0.00  0.00    +0.186 C 
ENDROOT
BRANCH  11  10
ATOM     10  O   UNL     1       2.195   0.509  22.692  0.00  0.00    -0.432 OA
BRANCH  10   2
ATOM      1  O   UNL     1       3.269   1.217  23.311  0.00  0.00    -0.225 OA
ATOM      2  C   UNL     1       2.966   0.524  22.981  0.00  0.00    +0.421 C 
ATOM      3  N   UNL     1       3.436  -0.153  22.942  0.00  0.00    -0.170 NA
BRANCH   3   4
ATOM      4  C   UNL     1       4.208  -0.137  23.231  0.00  0.00    +0.099 C 
ATOM      5  C   UNL     1       4.732   0.448  22.979  0.00  0.00    +0.022 C 
ATOM      6  C   UNL     1       5.504   0.464  23.269  0.00  0.00    +0.002 C 
ATOM      7  C   UNL     1       5.753  -0.107  23.810  0.00  0.00    +0.000 C 
ATOM      8  C   UNL     1       5.230  -0.693  24.062  0.00  0.00    +0.002 C 
ATOM      9  C   UNL     1       4.457  -0.708  23.772  0.00  0.00    +0.022 C 
ENDBRANCH   3   4
ENDBRANCH  10   2
ENDBRANCH  11  10
BRANCH  15  19
ATOM     19  N   UNL     1      -0.835   0.345  24.576  0.00  0.00    -0.074 NA
BRANCH  19  20
ATOM     20  S   UNL     1      -1.564  -0.031  24.487  0.00  0.00    +0.077 S 
ATOM     21  O   UNL     1      -1.356  -0.572  25.074  0.00  0.00    -0.152 OA
ATOM     22  O   UNL     1      -1.772   0.510  23.899  0.00  0.00    -0.152 OA
BRANCH  20  23
ATOM     23  C   UNL     1      -2.293  -0.408  24.398  0.00  0.00    +0.124 A 
ATOM     24  C   UNL     1      -2.341  -1.230  24.439  0.00  0.00    +0.020 A 
ATOM     25  C   UNL     1      -3.069  -1.605  24.350  0.00  0.00    +0.001 A 
ATOM     26  C   UNL     1      -3.117  -2.428  24.391  0.00  0.00    +0.000 A 
ATOM     27  C   UNL     1      -3.846  -2.804  24.302  0.00  0.00    +0.000 A 
ATOM     28  C   UNL     1      -4.528  -2.357  24.171  0.00  0.00    +0.000 A 
ATOM     29  C   UNL     1      -4.480  -1.535  24.130  0.00  0.00    +0.000 A 
ATOM     30  C   UNL     1      -3.751  -1.158  24.219  0.00  0.00    +0.000 A 
ATOM     31  C   UNL     1      -3.703  -0.336  24.178  0.00  0.00    +0.001 A 
ATOM     32  C   UNL     1      -2.975   0.039  24.267  0.00  0.00    +0.020 A 
ENDBRANCH  20  23
ENDBRANCH  19  20
ENDBRANCH  15  19
TORSDOF 6
ENDMDL
MODEL 7
REMARK VINA RESULT:     -10.4      1.755      5.388
REMARK  Name = 
REMARK  6 active torsions:
REMARK  status: ('A' for Active; 'I' for Inactive)
REMARK    1  A    between atoms: C_2  and  O_10
REMARK    2  A    between atoms: N_3  and  C_4
REMARK    3  A    between atoms: O_10  and  C_11
REMARK    4  A    between atoms: C_15  and  N_19
REMARK    5  A    between atoms: N_19  and  S_20
REMARK    6  A    between atoms: S_20  and  C_23
REMARK                            x       y       z     vdW  Elec       q    Type
REMARK                         _______ _______ _______ _____ _____    ______ ____
ROOT
ATOM     11  C   UNL     1      -1.684   3.009  25.263  0.00  0.00    +0.229 C 
ATOM     12  C   UNL     1      -1.369   2.799  25.995  0.00  0.00    +0.188 C 
ATOM     13  O   UNL     1      -1.003   2.064  25.915  0.00  0.00    -0.348 OA
ATOM     14  C   UNL     1      -1.092   1.821  25.132  0.00  0.00    +0.166 C 
ATOM     15  C   UNL     1      -0.920   1.215  24.598  0.00  0.00    +0.157 C 
ATOM     16  C   UNL     1      -1.235   1.425  23.864  0.00  0.00    +0.164 C 
ATOM     17  O   UNL     1      -1.601   2.160  23.946  0.00  0.00    -0.348 OA
ATOM     18  C   UNL     1      -1.513   2.405  24.728  0.00  0.00    +0.186 C 
ENDROOT
BRANCH  11  10
ATOM     10  O   UNL     1      -2.097   3.703  25.094  0.00  0.00    -0.432 OA
BRANCH  10   2
ATOM      1  O   UNL     1      -3.013   4.040  26.137  0.00  0.00    -0.225 OA
ATOM      2  C   UNL     1      -2.871   3.798  25.361  0.00  0.00    +0.421 C 
ATOM      3  N   UNL     1      -3.505   3.651  24.853  0.00  0.00    -0.170 NA
BRANCH   3   4
ATOM      4  C   UNL     1      -4.279   3.746  25.120  0.00  0.00    +0.099 C 
ATOM      5  C   UNL     1      -4.722   3.087  25.346  0.00  0.00    +0.022 C 
ATOM      6  C   UNL     1      -5.496   3.182  25.614  0.00  0.00    +0.002 C 
ATOM      7  C   UNL     1      -5.828   3.936  25.654  0.00  0.00    +0.000 C 
ATOM      8  C   UNL     1      -5.387   4.595  25.428  0.00  0.00    +0.002 C 
ATOM      9  C   UNL     1      -4.612   4.499  25.161  0.00  0.00    +0.022 C 
ENDBRANCH   3   4
ENDBRANCH  10   2
ENDBRANCH  11  10
BRANCH  15  19
ATOM     19  N   UNL     1      -0.507   0.522  24.767  0.00  0.00    -0.074 NA
BRANCH  19  20
ATOM     20  S   UNL     1      -0.888  -0.208  24.719  0.00  0.00    +0.077 S 
ATOM     21  O   UNL     1      -0.828  -0.185  23.896  0.00  0.00    -0.152 OA
ATOM     22  O   UNL     1      -0.948  -0.231  25.542  0.00  0.00    -0.152 OA
BRANCH  20  23
ATOM     23  C   UNL     1      -1.269  -0.939  24.671  0.00  0.00    +0.124 A 
ATOM     24  C   UNL     1      -2.090  -0.980  24.719  0.00  0.00    +0.020 A 
ATOM     25  C   UNL     1      -2.470  -1.710  24.671  0.00  0.00    +0.001 A 
ATOM     26  C   UNL     1      -3.293  -1.751  24.718  0.00  0.00    +0.000 A 
ATOM     27  C   UNL     1      -3.673  -2.481  24.670  0.00  0.00    +0.000 A 
ATOM     28  C   UNL     1      -3.230  -3.172  24.574  0.00  0.00    +0.000 A 
ATOM     29  C   UNL     1      -2.408  -3.131  24.527  0.00  0.00    +0.000 A 
ATOM     30  C   UNL     1      -2.027  -2.400  24.575  0.00  0.00    +0.000 A 
ATOM     31  C   UNL     1      -1.205  -2.359  24.527  0.00  0.00    +0.001 A 
ATOM     32  C   UNL     1      -0.826  -1.629  24.575  0.00  0.00    +0.020 A 
ENDBRANCH  20  23
ENDBRANCH  19  20
ENDBRANCH  15  19
TORSDOF 6
ENDMDL
