MODEL 1
REMARK VINA RESULT:      -9.3      0.000      0.000
REMARK  Name = 
REMARK  5 active torsions:
REMARK  status: ('A' for Active; 'I' for Inactive)
REMARK    1  A    between atoms: C_2  and  C_4
REMARK    2  A    between atoms: C_4  and  C_5
REMARK    3  A    between atoms: C_5  and  C_6
REMARK    4  A    between atoms: C_6  and  C_7
REMARK    5  A    between atoms: C_21  and  C_24
REMARK                            x       y       z     vdW  Elec       q    Type
REMARK                         _______ _______ _______ _____ _____    ______ ____
ROOT
ATOM      7  C   UNL     1      -3.844   2.732  24.430  0.00  0.00    +0.226 C 
ATOM      8  O   UNL     1      -4.069   3.453  24.097  0.00  0.00    -0.275 OA
ATOM      9  N   UNL     1      -3.133   2.378  24.209  0.00  0.00    -0.276 N 
ATOM     10  C   UNL     1      -2.645   2.745  23.654  0.00  0.00    +0.115 C 
ATOM     11  C   UNL     1      -1.934   2.392  23.431  0.00  0.00    +0.116 C 
ATOM     12  N   UNL     1      -1.710   1.671  23.765  0.00  0.00    -0.266 N 
ATOM     13  C   UNL     1      -2.198   1.304  24.320  0.00  0.00    +0.174 C 
ATOM     14  C   UNL     1      -2.909   1.657  24.542  0.00  0.00    +0.123 C 
ATOM     15  C   UNL     1      -2.079   0.590  24.716  0.00  0.00    +0.265 C 
ATOM     16  O   UNL     1      -2.674   0.370  25.243  0.00  0.00    -0.271 OA
ATOM     17  N   UNL     1      -1.444   0.067  24.655  0.00  0.00    -0.178 NA
ATOM     18  C   UNL     1      -0.770   0.129  24.183  0.00  0.00    +0.078 A 
ATOM     19  C   UNL     1      -0.565   0.728  23.655  0.00  0.00    +0.069 A 
ATOM     20  C   UNL     1       0.142   0.683  23.232  0.00  0.00    +0.006 A 
ATOM     21  C   UNL     1       0.644   0.036  23.338  0.00  0.00    +0.001 A 
ATOM     22  C   UNL     1       0.439  -0.563  23.866  0.00  0.00    +0.001 A 
ATOM     23  C   UNL     1      -0.267  -0.517  24.288  0.00  0.00    +0.017 A 
ATOM     29  C   UNL     1      -0.984   1.415  23.469  0.00  0.00    +0.251 C 
ATOM     30  O   UNL     1      -0.629   1.911  22.914  0.00  0.00    -0.270 OA
ENDROOT
BRANCH  21  24
ATOM     24  C   UNL     1       1.352  -0.010  22.916  0.00  0.00    +0.007 A 
ATOM     25  C   UNL     1       2.084   0.274  23.164  0.00  0.00    +0.035 A 
ATOM     26  S   UNL     1       2.636   0.111  22.572  0.00  0.00    -0.086 S 
ATOM     27  C   UNL     1       2.243  -0.274  21.958  0.00  0.00    +0.035 A 
ATOM     28  C   UNL     1       1.449  -0.349  22.170  0.00  0.00    +0.007 A 
ENDBRANCH  21  24
BRANCH   7   6
ATOM      6  C   UNL     1      -4.333   2.364  24.986  0.00  0.00    +0.086 C 
BRANCH   6   5
ATOM      5  C   UNL     1      -5.019   2.741  25.245  0.00  0.00    +0.019 C 
ATOM     31  C   UNL     1      -5.785   3.006  25.400  0.00  0.00    +0.001 C 
ATOM     32  C   UNL     1      -5.735   3.627  25.939  0.00  0.00    +0.000 C 
ATOM     33  C   UNL     1      -4.939   3.747  26.118  0.00  0.00    +0.000 C 
ATOM     34  C   UNL     1      -4.497   3.199  25.688  0.00  0.00    +0.001 C 
BRANCH   5   4
ATOM      4  C   UNL     1      -5.398   2.203  24.746  0.00  0.00    +0.115 C 
BRANCH   4   2
ATOM      1  O   UNL     1      -6.731   1.691  24.719  0.00  0.00    -0.246 OA
ATOM      2  C   UNL     1      -5.975   1.697  25.050  0.00  0.00    +0.365 C 
ATOM      3  O   UNL     1      -5.797   1.199  25.682  0.00  0.00    -0.246 OA
ENDBRANCH   4   2
ENDBRANCH   5   4
ENDBRANCH   6   5
ENDBRANCH   7   6
TORSDOF 5
ENDMDL
MODEL 2
REMARK VINA RESULT:      -9.0      2.810      4.577
REMARK  Name = 
REMARK  5 active torsions:
REMARK  status: ('A' for Active; 'I' for Inactive)
REMARK    1  A    between atoms: C_2  and  C_4
REMARK    2  A    between atoms: C_4  and  C_5
REMARK    3  A    between atoms: C_5  and  C_6
REMARK    4  A    between atoms: C_6  and  C_7
REMARK    5  A    between atoms: C_21  and  C_24
REMARK                            x       y       z     vdW  Elec       q    Type
REMARK                         _______ _______ _______ _____ _____    ______ ____
ROOT
ATOM      7  C   UNL     1      -3.932  -0.720  24.434  0.00  0.00    +0.226 C 
ATOM      8  O   UNL     1      -4.753  -0.796  24.465  0.00  0.00    -0.275 OA
ATOM      9  N   UNL     1      -3.584   0.025  24.496  0.00  0.00    -0.276 N 
ATOM     10  C   UNL     1      -4.056   0.695  24.591  0.00  0.00    +0.115 C 
ATOM     11  C   UNL     1      -3.708   1.440  24.653  0.00  0.00    +0.116 C 
ATOM     12  N   UNL     1      -2.887   1.515  24.621  0.00  0.00    -0.266 N 
ATOM     13  C   UNL     1      -2.415   0.846  24.527  0.00  0.00    +0.174 C 
ATOM     14  C   UNL     1      -2.763   0.101  24.464  0.00  0.00    +0.123 C 
ATOM     15  C   UNL     1      -1.592   0.799  24.482  0.00  0.00    +0.265 C 
ATOM     16  O   UNL     1      -1.281   0.041  24.386  0.00  0.00    -0.271 OA
ATOM     17  N   UNL     1      -1.039   1.410  24.520  0.00  0.00    -0.178 NA
ATOM     18  C   UNL     1      -1.172   2.219  24.613  0.00  0.00    +0.078 A 
ATOM     19  C   UNL     1      -1.890   2.617  24.691  0.00  0.00    +0.069 A 
ATOM     20  C   UNL     1      -1.901   3.437  24.779  0.00  0.00    +0.006 A 
ATOM     21  C   UNL     1      -1.192   3.859  24.789  0.00  0.00    +0.001 A 
ATOM     22  C   UNL     1      -0.474   3.461  24.712  0.00  0.00    +0.001 A 
ATOM     23  C   UNL     1      -0.463   2.642  24.624  0.00  0.00    +0.017 A 
ATOM     29  C   UNL     1      -2.654   2.303  24.694  0.00  0.00    +0.251 C 
ATOM     30  O   UNL     1      -3.265   2.851  24.782  0.00  0.00    -0.270 OA
ENDROOT
BRANCH  21  24
ATOM     24  C   UNL     1      -1.201   4.680  24.877  0.00  0.00    +0.007 A 
ATOM     25  C   UNL     1      -0.652   5.208  24.563  0.00  0.00    +0.035 A 
ATOM     26  S   UNL     1      -0.874   5.971  24.787  0.00  0.00    -0.086 S 
ATOM     27  C   UNL     1      -1.561   5.913  25.240  0.00  0.00    +0.035 A 
ATOM     28  C   UNL     1      -1.764   5.115  25.296  0.00  0.00    +0.007 A 
ENDBRANCH  21  24
BRANCH   7   6
ATOM      6  C   UNL     1      -3.459  -1.390  24.339  0.00  0.00    +0.086 C 
BRANCH   6   5
ATOM      5  C   UNL     1      -3.806  -2.137  24.299  0.00  0.00    +0.019 C 
ATOM     31  C   UNL     1      -4.099  -2.899  24.421  0.00  0.00    +0.001 C 
ATOM     32  C   UNL     1      -4.466  -3.145  23.725  0.00  0.00    +0.000 C 
ATOM     33  C   UNL     1      -4.400  -2.537  23.172  0.00  0.00    +0.000 C 
ATOM     34  C   UNL     1      -3.992  -1.914  23.527  0.00  0.00    +0.001 C 
BRANCH   5   4
ATOM      4  C   UNL     1      -3.547  -2.204  25.079  0.00  0.00    +0.115 C 
BRANCH   4   2
ATOM      1  O   UNL     1      -3.172  -3.290  25.929  0.00  0.00    -0.246 OA
ATOM      2  C   UNL     1      -3.012  -2.798  25.286  0.00  0.00    +0.365 C 
ATOM      3  O   UNL     1      -2.319  -2.899  24.852  0.00  0.00    -0.246 OA
ENDBRANCH   4   2
ENDBRANCH   5   4
ENDBRANCH   6   5
ENDBRANCH   7   6
TORSDOF 5
ENDMDL
MODEL 3
REMARK VINA RESULT:      -9.0      2.789      4.251
REMARK  Name = 
REMARK  5 active torsions:
REMARK  status: ('A' for Active; 'I' for Inactive)
REMARK    1  A    between atoms: C_2  and  C_4
REMARK    2  A    between atoms: C_4  and  C_5
REMARK    3  A    between atoms: C_5  and  C_6
REMARK    4  A    between atoms: C_6  and  C_7
REMARK    5  A    between atoms: C_21  and  C_24
REMARK                            x       y       z     vdW  Elec       q    Type
REMARK                         _______ _______ _______ _____ _____    ______ ____
ROOT
ATOM      7  C   UNL     1      -1.181   3.069  25.214  0.00  0.00    +0.226 C 
ATOM      8  O   UNL     1      -0.434   3.175  25.548  0.00  0.00    -0.275 OA
ATOM      9  N   UNL     1      -1.485   2.309  25.117  0.00  0.00    -0.276 N 
ATOM     10  C   UNL     1      -1.044   1.654  25.353  0.00  0.00    +0.115 C 
ATOM     11  C   UNL     1      -1.348   0.894  25.256  0.00  0.00    +0.116 C 
ATOM     12  N   UNL     1      -2.095   0.789  24.921  0.00  0.00    -0.266 N 
ATOM     13  C   UNL     1      -2.537   1.444  24.685  0.00  0.00    +0.174 C 
ATOM     14  C   UNL     1      -2.232   2.204  24.783  0.00  0.00    +0.123 C 
ATOM     15  C   UNL     1      -3.288   1.461  24.342  0.00  0.00    +0.265 C 
ATOM     16  O   UNL     1      -3.583   2.211  24.167  0.00  0.00    -0.271 OA
ATOM     17  N   UNL     1      -3.781   0.828  24.152  0.00  0.00    -0.178 NA
ATOM     18  C   UNL     1      -3.646   0.021  24.257  0.00  0.00    +0.078 A 
ATOM     19  C   UNL     1      -2.985  -0.352  24.578  0.00  0.00    +0.069 A 
ATOM     20  C   UNL     1      -2.961  -1.175  24.634  0.00  0.00    +0.006 A 
ATOM     21  C   UNL     1      -3.600  -1.625  24.367  0.00  0.00    +0.001 A 
ATOM     22  C   UNL     1      -4.261  -1.251  24.046  0.00  0.00    +0.001 A 
ATOM     23  C   UNL     1      -4.285  -0.429  23.991  0.00  0.00    +0.017 A 
ATOM     29  C   UNL     1      -2.294  -0.010  24.874  0.00  0.00    +0.251 C 
ATOM     30  O   UNL     1      -1.728  -0.538  25.160  0.00  0.00    -0.270 OA
ENDROOT
BRANCH  21  24
ATOM     24  C   UNL     1      -3.577  -2.447  24.422  0.00  0.00    +0.007 A 
ATOM     25  C   UNL     1      -3.608  -2.977  23.790  0.00  0.00    +0.035 A 
ATOM     26  S   UNL     1      -3.569  -3.742  24.097  0.00  0.00    -0.086 S 
ATOM     27  C   UNL     1      -3.514  -3.685  24.917  0.00  0.00    +0.035 A 
ATOM     28  C   UNL     1      -3.519  -2.885  25.119  0.00  0.00    +0.007 A 
ENDBRANCH  21  24
BRANCH   7   6
ATOM      6  C   UNL     1      -1.623   3.725  24.978  0.00  0.00    +0.086 C 
BRANCH   6   5
ATOM      5  C   UNL     1      -1.306   4.484  25.048  0.00  0.00    +0.019 C 
ATOM     31  C   UNL     1      -1.090   5.252  25.258  0.00  0.00    +0.001 C 
ATOM     32  C   UNL     1      -0.543   5.523  24.704  0.00  0.00    +0.000 C 
ATOM     33  C   UNL     1      -0.421   4.923  24.152  0.00  0.00    +0.000 C 
ATOM     34  C   UNL     1      -0.893   4.281  24.364  0.00  0.00    +0.001 C 
BRANCH   5   4
ATOM      4  C   UNL     1      -1.787   4.528  25.718  0.00  0.00    +0.115 C 
BRANCH   4   2
ATOM      1  O   UNL     1      -3.019   4.915  26.330  0.00  0.00    -0.246 OA
ATOM      2  C   UNL     1      -2.508   4.928  25.681  0.00  0.00    +0.365 C 
ATOM      3  O   UNL     1      -2.717   5.340  24.999  0.00  0.00    -0.246 OA
ENDBRANCH   4   2
ENDBRANCH   5   4
ENDBRANCH   6   5
ENDBRANCH   7   6
TORSDOF 5
ENDMDL
MODEL 4
REMARK VINA RESULT:      -8.3      1.356      2.067
REMARK  Name = 
REMARK  5 active torsions:
REMARK  status: ('A' for Active; 'I' for Inactive)
REMARK    1  A    between atoms: C_2  and  C_4
REMARK    2  A    between atoms: C_4  and  C_5
REMARK    3  A    between atoms: C_5  and  C_6
REMARK    4  A    between atoms: C_6  and  C_7
REMARK    5  A    between atoms: C_21  and  C_24
REMARK                            x       y       z     vdW  Elec       q    Type
REMARK                         _______ _______ _______ _____ _____    ______ ____
ROOT
ATOM      7  C   UNL     1      -2.268   2.116  24.702  0.00  0.00    +0.226 C 
ATOM      8  O   UNL     1      -2.392   2.762  25.200  0.00  0.00    -0.275 OA
ATOM      9  N   UNL     1      -1.502   1.906  24.480  0.00  0.00    -0.276 N 
ATOM     10  C   UNL     1      -0.859   2.343  24.756  0.00  0.00    +0.115 C 
ATOM     11  C   UNL     1      -0.092   2.134  24.535  0.00  0.00    +0.116 C 
ATOM     12  N   UNL     1       0.031   1.487  24.037  0.00  0.00    -0.266 N 
ATOM     13  C   UNL     1      -0.612   1.051  23.761  0.00  0.00    +0.174 C 
ATOM     14  C   UNL     1      -1.378   1.260  23.983  0.00  0.00    +0.123 C 
ATOM     15  C   UNL     1      -0.610   0.392  23.264  0.00  0.00    +0.265 C 
ATOM     16  O   UNL     1      -1.352   0.076  23.087  0.00  0.00    -0.271 OA
ATOM     17  N   UNL     1       0.034   0.008  22.920  0.00  0.00    -0.178 NA
ATOM     18  C   UNL     1       0.836   0.187  22.989  0.00  0.00    +0.078 A 
ATOM     19  C   UNL     1       1.192   0.795  23.418  0.00  0.00    +0.069 A 
ATOM     20  C   UNL     1       2.013   0.879  23.412  0.00  0.00    +0.006 A 
ATOM     21  C   UNL     1       2.478   0.353  22.977  0.00  0.00    +0.001 A 
ATOM     22  C   UNL     1       2.121  -0.255  22.548  0.00  0.00    +0.001 A 
ATOM     23  C   UNL     1       1.301  -0.338  22.554  0.00  0.00    +0.017 A 
ATOM     29  C   UNL     1       0.834   1.374  23.884  0.00  0.00    +0.251 C 
ATOM     30  O   UNL     1       1.346   1.910  24.246  0.00  0.00    -0.270 OA
ENDROOT
BRANCH  21  24
ATOM     24  C   UNL     1       3.298   0.435  22.971  0.00  0.00    +0.007 A 
ATOM     25  C   UNL     1       3.841  -0.083  23.313  0.00  0.00    +0.035 A 
ATOM     26  S   UNL     1       4.599   0.213  23.175  0.00  0.00    -0.086 S 
ATOM     27  C   UNL     1       4.525   0.913  22.747  0.00  0.00    +0.035 A 
ATOM     28  C   UNL     1       3.721   1.051  22.621  0.00  0.00    +0.007 A 
ENDBRANCH  21  24
BRANCH   7   6
ATOM      6  C   UNL     1      -2.912   1.678  24.426  0.00  0.00    +0.086 C 
BRANCH   6   5
ATOM      5  C   UNL     1      -3.681   1.938  24.573  0.00  0.00    +0.019 C 
ATOM     31  C   UNL     1      -4.453   2.068  24.834  0.00  0.00    +0.001 C 
ATOM     32  C   UNL     1      -4.755   2.716  24.423  0.00  0.00    +0.000 C 
ATOM     33  C   UNL     1      -4.170   2.987  23.908  0.00  0.00    +0.000 C 
ATOM     34  C   UNL     1      -3.506   2.506  24.002  0.00  0.00    +0.001 C 
BRANCH   5   4
ATOM      4  C   UNL     1      -3.694   1.315  25.115  0.00  0.00    +0.115 C 
BRANCH   4   2
ATOM      1  O   UNL     1      -4.863   0.663  25.614  0.00  0.00    -0.246 OA
ATOM      2  C   UNL     1      -4.266   0.724  25.048  0.00  0.00    +0.365 C 
ATOM      3  O   UNL     1      -4.242   0.195  24.416  0.00  0.00    -0.246 OA
ENDBRANCH   4   2
ENDBRANCH   5   4
ENDBRANCH   6   5
ENDBRANCH   7   6
TORSDOF 5
ENDMDL
MODEL 5
REMARK VINA RESULT:      -7.8      2.051      6.269
REMARK  Name = 
REMARK  5 active torsions:
REMARK  status: ('A' for Active; 'I' for Inactive)
REMARK    1  A    between atoms: C_2  and  C_4
REMARK    2  A    between atoms: C_4  and  C_5
REMARK    3  A    between atoms: C_5  and  C_6
REMARK    4  A    between atoms: C_6  and  C_7
REMARK    5  A    between atoms: C_21  and  C_24
REMARK                            x       y       z     vdW  Elec       q    Type
REMARK                         _______ _______ _______ _____ _____    ______ ____
ROOT
ATOM      7  C   UNL     1       0.302   0.007  23.603  0.00  0.00    +0.226 C 
ATOM      8  O   UNL     1       0.549  -0.748  23.825  0.00  0.00    -0.275 OA
ATOM      9  N   UNL     1      -0.443   0.281  23.827  0.00  0.00    -0.276 N 
ATOM     10  C   UNL     1      -0.942  -0.200  24.274  0.00  0.00    +0.115 C 
ATOM     11  C   UNL     1      -1.687   0.072  24.499  0.00  0.00    +0.116 C 
ATOM     12  N   UNL     1      -1.933   0.829  24.276  0.00  0.00    -0.266 N 
ATOM     13  C   UNL     1      -1.434   1.310  23.830  0.00  0.00    +0.174 C 
ATOM     14  C   UNL     1      -0.689   1.036  23.605  0.00  0.00    +0.123 C 
ATOM     15  C   UNL     1      -1.571   2.075  23.552  0.00  0.00    +0.265 C 
ATOM     16  O   UNL     1      -0.957   2.412  23.116  0.00  0.00    -0.271 OA
ATOM     17  N   UNL     1      -2.240   2.547  23.653  0.00  0.00    -0.178 NA
ATOM     18  C   UNL     1      -2.937   2.371  24.056  0.00  0.00    +0.078 A 
ATOM     19  C   UNL     1      -3.139   1.679  24.458  0.00  0.00    +0.069 A 
ATOM     20  C   UNL     1      -3.873   1.615  24.828  0.00  0.00    +0.006 A 
ATOM     21  C   UNL     1      -4.407   2.244  24.796  0.00  0.00    +0.001 A 
ATOM     22  C   UNL     1      -4.206   2.936  24.394  0.00  0.00    +0.001 A 
ATOM     23  C   UNL     1      -3.472   2.999  24.024  0.00  0.00    +0.017 A 
ATOM     29  C   UNL     1      -2.691   0.993  24.556  0.00  0.00    +0.251 C 
ATOM     30  O   UNL     1      -3.050   0.391  24.991  0.00  0.00    -0.270 OA
ENDROOT
BRANCH  21  24
ATOM     24  C   UNL     1      -5.142   2.181  25.166  0.00  0.00    +0.007 A 
ATOM     25  C   UNL     1      -5.355   2.526  25.884  0.00  0.00    +0.035 A 
ATOM     26  S   UNL     1      -6.138   2.320  26.044  0.00  0.00    -0.086 S 
ATOM     27  C   UNL     1      -6.408   1.848  25.425  0.00  0.00    +0.035 A 
ATOM     28  C   UNL     1      -5.793   1.762  24.881  0.00  0.00    +0.007 A 
ENDBRANCH  21  24
BRANCH   7   6
ATOM      6  C   UNL     1       0.802   0.489  23.156  0.00  0.00    +0.086 C 
BRANCH   6   5
ATOM      5  C   UNL     1       1.475   0.170  22.803  0.00  0.00    +0.019 C 
ATOM     31  C   UNL     1       2.231  -0.081  22.585  0.00  0.00    +0.001 C 
ATOM     32  C   UNL     1       2.167  -0.495  21.876  0.00  0.00    +0.000 C 
ATOM     33  C   UNL     1       1.373  -0.501  21.654  0.00  0.00    +0.000 C 
ATOM     34  C   UNL     1       0.946  -0.089  22.227  0.00  0.00    +0.001 C 
BRANCH   5   4
ATOM      4  C   UNL     1       1.865   0.497  23.453  0.00  0.00    +0.115 C 
BRANCH   4   2
ATOM      1  O   UNL     1       2.239   1.870  23.325  0.00  0.00    -0.246 OA
ATOM      2  C   UNL     1       2.446   1.072  23.339  0.00  0.00    +0.365 C 
ATOM      3  O   UNL     1       3.233   0.848  23.238  0.00  0.00    -0.246 OA
ENDBRANCH   4   2
ENDBRANCH   5   4
ENDBRANCH   6   5
ENDBRANCH   7   6
TORSDOF 5
ENDMDL
MODEL 6
REMARK VINA RESULT:      -7.1     13.785     14.471
REMARK  Name = 
REMARK  5 active torsions:
REMARK  status: ('A' for Active; 'I' for Inactive)
REMARK    1  A    between atoms: C_2  and  C_4
REMARK    2  A    between atoms: C_4  and  C_5
REMARK    3  A    between atoms: C_5  and  C_6
REMARK    4  A    between atoms: C_6  and  C_7
REMARK    5  A    between atoms: C_21  and  C_24
REMARK                            x       y       z     vdW  Elec       q    Type
REMARK                         _______ _______ _______ _____ _____    ______ ____
ROOT
ATOM      7  C   UNL     1      -8.159  -9.453  17.621  0.00  0.00    +0.226 C 
ATOM      8  O   UNL     1      -8.232  -9.325  18.432  0.00  0.00    -0.275 OA
ATOM      9  N   UNL     1      -7.417  -9.600  17.291  0.00  0.00    -0.276 N 
ATOM     10  C   UNL     1      -6.748  -9.619  17.773  0.00  0.00    +0.115 C 
ATOM     11  C   UNL     1      -6.006  -9.765  17.445  0.00  0.00    +0.116 C 
ATOM     12  N   UNL     1      -5.933  -9.894  16.632  0.00  0.00    -0.266 N 
ATOM     13  C   UNL     1      -6.603  -9.875  16.150  0.00  0.00    +0.174 C 
ATOM     14  C   UNL     1      -7.344  -9.728  16.479  0.00  0.00    +0.123 C 
ATOM     15  C   UNL     1      -6.651  -9.987  15.334  0.00  0.00    +0.265 C 
ATOM     16  O   UNL     1      -7.408  -9.934  15.011  0.00  0.00    -0.271 OA
ATOM     17  N   UNL     1      -6.044 -10.146  14.799  0.00  0.00    -0.178 NA
ATOM     18  C   UNL     1      -5.237 -10.232  14.948  0.00  0.00    +0.078 A 
ATOM     19  C   UNL     1      -4.838 -10.180  15.668  0.00  0.00    +0.069 A 
ATOM     20  C   UNL     1      -4.020 -10.285  15.696  0.00  0.00    +0.006 A 
ATOM     21  C   UNL     1      -3.601 -10.442  15.002  0.00  0.00    +0.001 A 
ATOM     22  C   UNL     1      -4.000 -10.493  14.283  0.00  0.00    +0.001 A 
ATOM     23  C   UNL     1      -4.817 -10.389  14.255  0.00  0.00    +0.017 A 
ATOM     29  C   UNL     1      -5.149 -10.029  16.418  0.00  0.00    +0.251 C 
ATOM     30  O   UNL     1      -4.601 -10.012  17.035  0.00  0.00    -0.270 OA
ENDROOT
BRANCH  21  24
ATOM     24  C   UNL     1      -2.783 -10.546  15.030  0.00  0.00    +0.007 A 
ATOM     25  C   UNL     1      -2.339 -10.727  15.700  0.00  0.00    +0.035 A 
ATOM     26  S   UNL     1      -1.547 -10.781  15.475  0.00  0.00    -0.086 S 
ATOM     27  C   UNL     1      -1.502 -10.634  14.666  0.00  0.00    +0.035 A 
ATOM     28  C   UNL     1      -2.266 -10.489  14.389  0.00  0.00    +0.007 A 
ENDBRANCH  21  24
BRANCH   7   6
ATOM      6  C   UNL     1      -8.829  -9.434  17.138  0.00  0.00    +0.086 C 
BRANCH   6   5
ATOM      5  C   UNL     1      -9.576  -9.335  17.473  0.00  0.00    +0.019 C 
ATOM     31  C   UNL     1     -10.295  -9.068  17.778  0.00  0.00    +0.001 C 
ATOM     32  C   UNL     1     -10.720  -9.725  18.039  0.00  0.00    +0.000 C 
ATOM     33  C   UNL     1     -10.264 -10.397  17.896  0.00  0.00    +0.000 C 
ATOM     34  C   UNL     1      -9.557 -10.156  17.546  0.00  0.00    +0.001 C 
BRANCH   5   4
ATOM      4  C   UNL     1      -9.438  -8.534  17.329  0.00  0.00    +0.115 C 
BRANCH   4   2
ATOM      1  O   UNL     1     -10.083  -8.346  16.068  0.00  0.00    -0.246 OA
ATOM      2  C   UNL     1      -9.955  -8.107  16.848  0.00  0.00    +0.365 C 
ATOM      3  O   UNL     1     -10.342  -7.443  17.145  0.00  0.00    -0.246 OA
ENDBRANCH   4   2
ENDBRANCH   5   4
ENDBRANCH   6   5
ENDBRANCH   7   6
TORSDOF 5
ENDMDL
