MODEL 1
REMARK VINA RESULT:     -12.8      0.000      0.000
REMARK  Name = 
REMARK  3 active torsions:
REMARK  status: ('A' for Active; 'I' for Inactive)
REMARK    1  A    between atoms: C_3  and  C_11
REMARK    2  A    between atoms: N_14  and  C_15
REMARK    3  A    between atoms: C_15  and  C_16
REMARK                            x       y       z     vdW  Elec       q    Type
REMARK                         _______ _______ _______ _____ _____    ______ ____
ROOT
ATOM     11  C   UNL     1      -3.095   1.891  24.367  0.00  0.00    +0.074 C 
ATOM     12  C   UNL     1      -3.212   1.587  23.610  0.00  0.00    +0.026 C 
ATOM     13  C   UNL     1      -3.701   0.926  23.673  0.00  0.00    +0.073 C 
ATOM     14  N   UNL     1      -3.886   0.821  24.470  0.00  0.00    -0.269 NA
ATOM     23  C   UNL     1      -3.512   1.418  24.899  0.00  0.00    +0.080 C 
ENDROOT
BRANCH  11   3
ATOM      1  C   UNL     1      -1.302   1.966  24.404  0.00  0.00    +0.132 C 
ATOM      2  N   UNL     1      -1.816   2.587  24.577  0.00  0.00    -0.313 N 
ATOM      3  C   UNL     1      -2.641   2.553  24.560  0.00  0.00    +0.121 A 
ATOM      4  N   UNL     1      -2.931   3.296  24.769  0.00  0.00    -0.231 NA
ATOM      5  C   UNL     1      -2.286   3.789  24.916  0.00  0.00    +0.098 A 
ATOM      6  C   UNL     1      -1.598   3.351  24.797  0.00  0.00    +0.079 A 
ATOM      7  C   UNL     1      -0.860   3.705  24.904  0.00  0.00    +0.019 A 
ATOM      8  C   UNL     1      -0.811   4.496  25.131  0.00  0.00    +0.002 A 
ATOM      9  C   UNL     1      -1.500   4.934  25.249  0.00  0.00    +0.002 A 
ATOM     10  C   UNL     1      -2.238   4.581  25.142  0.00  0.00    +0.021 A 
ENDBRANCH  11   3
BRANCH  14  15
ATOM     15  C   UNL     1      -4.362   0.224  24.782  0.00  0.00    +0.099 C 
BRANCH  15  16
ATOM     16  C   UNL     1      -4.087  -0.552  24.808  0.00  0.00    -0.006 A 
ATOM     17  C   UNL     1      -3.671  -0.821  25.469  0.00  0.00    -0.002 A 
ATOM     18  C   UNL     1      -3.396  -1.598  25.493  0.00  0.00    +0.011 A 
ATOM     19  C   UNL     1      -3.537  -2.107  24.860  0.00  0.00    +0.058 A 
ATOM     20 CL   UNL     1      -3.261  -2.884  24.886  0.00  0.00    -0.082 Cl
ATOM     21  C   UNL     1      -3.953  -1.838  24.200  0.00  0.00    +0.011 A 
ATOM     22  C   UNL     1      -4.229  -1.061  24.174  0.00  0.00    -0.002 A 
ENDBRANCH  15  16
ENDBRANCH  14  15
TORSDOF 3
ENDMDL
MODEL 2
REMARK VINA RESULT:     -12.5      1.923      4.943
REMARK  Name = 
REMARK  3 active torsions:
REMARK  status: ('A' for Active; 'I' for Inactive)
REMARK    1  A    between atoms: C_3  and  C_11
REMARK    2  A    between atoms: N_14  and  C_15
REMARK    3  A    between atoms: C_15  and  C_16
REMARK                            x       y       z     vdW  Elec       q    Type
REMARK                         _______ _______ _______ _____ _____    ______ ____
ROOT
ATOM     11  C   UNL     1      -4.368   0.612  24.693  0.00  0.00    +0.074 C 
ATOM     12  C   UNL     1      -4.943   0.937  25.187  0.00  0.00    +0.026 C 
ATOM     13  C   UNL     1      -4.941   1.755  25.079  0.00  0.00    +0.073 C 
ATOM     14  N   UNL     1      -4.364   1.936  24.517  0.00  0.00    -0.269 NA
ATOM     23  C   UNL     1      -4.010   1.229  24.278  0.00  0.00    +0.080 C 
ENDROOT
BRANCH  11   3
ATOM      1  C   UNL     1      -3.245  -0.305  25.751  0.00  0.00    +0.132 C 
ATOM      2  N   UNL     1      -3.666  -0.611  25.112  0.00  0.00    -0.313 N 
ATOM      3  C   UNL     1      -4.183  -0.189  24.625  0.00  0.00    +0.121 A 
ATOM      4  N   UNL     1      -4.482  -0.710  24.059  0.00  0.00    -0.231 NA
ATOM      5  C   UNL     1      -4.150  -1.452  24.195  0.00  0.00    +0.098 A 
ATOM      6  C   UNL     1      -3.646  -1.391  24.846  0.00  0.00    +0.079 A 
ATOM      7  C   UNL     1      -3.234  -2.055  25.112  0.00  0.00    +0.019 A 
ATOM      8  C   UNL     1      -3.326  -2.779  24.728  0.00  0.00    +0.002 A 
ATOM      9  C   UNL     1      -3.830  -2.840  24.077  0.00  0.00    +0.002 A 
ATOM     10  C   UNL     1      -4.242  -2.177  23.811  0.00  0.00    +0.021 A 
ENDBRANCH  11   3
BRANCH  14  15
ATOM     15  C   UNL     1      -4.175   2.690  24.242  0.00  0.00    +0.099 C 
BRANCH  15  16
ATOM     16  C   UNL     1      -3.575   3.123  24.606  0.00  0.00    -0.006 A 
ATOM     17  C   UNL     1      -3.744   3.585  25.268  0.00  0.00    -0.002 A 
ATOM     18  C   UNL     1      -3.143   4.018  25.631  0.00  0.00    +0.011 A 
ATOM     19  C   UNL     1      -2.375   3.991  25.334  0.00  0.00    +0.058 A 
ATOM     20 CL   UNL     1      -1.775   4.424  25.697  0.00  0.00    -0.082 Cl
ATOM     21  C   UNL     1      -2.206   3.528  24.671  0.00  0.00    +0.011 A 
ATOM     22  C   UNL     1      -2.807   3.094  24.307  0.00  0.00    -0.002 A 
ENDBRANCH  15  16
ENDBRANCH  14  15
TORSDOF 3
ENDMDL
MODEL 3
REMARK VINA RESULT:     -12.0      2.221      5.130
REMARK  Name = 
REMARK  3 active torsions:
REMARK  status: ('A' for Active; 'I' for Inactive)
REMARK    1  A    between atoms: C_3  and  C_11
REMARK    2  A    between atoms: N_14  and  C_15
REMARK    3  A    between atoms: C_15  and  C_16
REMARK                            x       y       z     vdW  Elec       q    Type
REMARK                         _______ _______ _______ _____ _____    ______ ____
ROOT
ATOM     11  C   UNL     1      -1.473   0.436  24.792  0.00  0.00    +0.074 C 
ATOM     12  C   UNL     1      -0.838   0.613  24.296  0.00  0.00    +0.026 C 
ATOM     13  C   UNL     1      -0.445   1.268  24.607  0.00  0.00    +0.073 C 
ATOM     14  N   UNL     1      -0.838   1.497  25.296  0.00  0.00    -0.269 NA
ATOM     23  C   UNL     1      -1.473   0.983  25.410  0.00  0.00    +0.080 C 
ENDROOT
BRANCH  11   3
ATOM      1  C   UNL     1      -1.192  -1.293  25.183  0.00  0.00    +0.132 C 
ATOM      2  N   UNL     1      -1.884  -0.973  24.869  0.00  0.00    -0.313 N 
ATOM      3  C   UNL     1      -2.014  -0.178  24.689  0.00  0.00    +0.121 A 
ATOM      4  N   UNL     1      -2.778  -0.107  24.387  0.00  0.00    -0.231 NA
ATOM      5  C   UNL     1      -3.121  -0.856  24.381  0.00  0.00    +0.098 A 
ATOM      6  C   UNL     1      -2.568  -1.392  24.679  0.00  0.00    +0.079 A 
ATOM      7  C   UNL     1      -2.761  -2.192  24.738  0.00  0.00    +0.019 A 
ATOM      8  C   UNL     1      -3.504  -2.457  24.500  0.00  0.00    +0.002 A 
ATOM      9  C   UNL     1      -4.057  -1.921  24.202  0.00  0.00    +0.002 A 
ATOM     10  C   UNL     1      -3.866  -1.121  24.143  0.00  0.00    +0.021 A 
ENDBRANCH  11   3
BRANCH  14  15
ATOM     15  C   UNL     1      -0.631   2.129  25.784  0.00  0.00    +0.099 C 
BRANCH  15  16
ATOM     16  C   UNL     1      -0.897   2.890  25.610  0.00  0.00    -0.006 A 
ATOM     17  C   UNL     1      -0.445   3.384  25.128  0.00  0.00    -0.002 A 
ATOM     18  C   UNL     1      -0.711   4.145  24.954  0.00  0.00    +0.011 A 
ATOM     19  C   UNL     1      -1.429   4.412  25.260  0.00  0.00    +0.058 A 
ATOM     20 CL   UNL     1      -1.695   5.173  25.086  0.00  0.00    -0.082 Cl
ATOM     21  C   UNL     1      -1.881   3.917  25.742  0.00  0.00    +0.011 A 
ATOM     22  C   UNL     1      -1.615   3.156  25.917  0.00  0.00    -0.002 A 
ENDBRANCH  15  16
ENDBRANCH  14  15
TORSDOF 3
ENDMDL
MODEL 4
REMARK VINA RESULT:     -11.2      1.944      4.976
REMARK  Name = 
REMARK  3 active torsions:
REMARK  status: ('A' for Active; 'I' for Inactive)
REMARK    1  A    between atoms: C_3  and  C_11
REMARK    2  A    between atoms: N_14  and  C_15
REMARK    3  A    between atoms: C_15  and  C_16
REMARK                            x       y       z     vdW  Elec       q    Type
REMARK                         _______ _______ _______ _____ _____    ______ ____
ROOT
ATOM     11  C   UNL     1      -3.287   1.015  24.533  0.00  0.00    +0.074 C 
ATOM     12  C   UNL     1      -3.503   1.486  23.891  0.00  0.00    +0.026 C 
ATOM     13  C   UNL     1      -3.506   2.273  24.141  0.00  0.00    +0.073 C 
ATOM     14  N   UNL     1      -3.294   2.288  24.938  0.00  0.00    -0.269 NA
ATOM     23  C   UNL     1      -3.158   1.511  25.180  0.00  0.00    +0.080 C 
ENDROOT
BRANCH  11   3
ATOM      1  C   UNL     1      -4.639  -0.164  24.478  0.00  0.00    +0.132 C 
ATOM      2  N   UNL     1      -3.836  -0.348  24.504  0.00  0.00    -0.313 N 
ATOM      3  C   UNL     1      -3.214   0.194  24.529  0.00  0.00    +0.121 A 
ATOM      4  N   UNL     1      -2.507  -0.230  24.550  0.00  0.00    -0.231 NA
ATOM      5  C   UNL     1      -2.691  -1.034  24.537  0.00  0.00    +0.098 A 
ATOM      6  C   UNL     1      -3.513  -1.107  24.509  0.00  0.00    +0.079 A 
ATOM      7  C   UNL     1      -3.859  -1.855  24.492  0.00  0.00    +0.019 A 
ATOM      8  C   UNL     1      -3.386  -2.530  24.503  0.00  0.00    +0.002 A 
ATOM      9  C   UNL     1      -2.565  -2.457  24.531  0.00  0.00    +0.002 A 
ATOM     10  C   UNL     1      -2.217  -1.709  24.548  0.00  0.00    +0.021 A 
ENDBRANCH  11   3
BRANCH  14  15
ATOM     15  C   UNL     1      -3.228   2.961  25.409  0.00  0.00    +0.099 C 
BRANCH  15  16
ATOM     16  C   UNL     1      -2.590   3.474  25.309  0.00  0.00    -0.006 A 
ATOM     17  C   UNL     1      -1.848   3.275  25.612  0.00  0.00    -0.002 A 
ATOM     18  C   UNL     1      -1.211   3.788  25.512  0.00  0.00    +0.011 A 
ATOM     19  C   UNL     1      -1.313   4.501  25.110  0.00  0.00    +0.058 A 
ATOM     20 CL   UNL     1      -0.675   5.013  25.010  0.00  0.00    -0.082 Cl
ATOM     21  C   UNL     1      -2.055   4.700  24.807  0.00  0.00    +0.011 A 
ATOM     22  C   UNL     1      -2.693   4.187  24.907  0.00  0.00    -0.002 A 
ENDBRANCH  15  16
ENDBRANCH  14  15
TORSDOF 3
ENDMDL
