REMARK  Name = 
REMARK  4 active torsions:
REMARK  status: ('A' for Active; 'I' for Inactive)
REMARK    1  A    between atoms: C_4  and  C_13
REMARK    2  A    between atoms: N_5  and  C_7
REMARK    3  A    between atoms: C_15  and  C_18
REMARK    4  A    between atoms: C_21  and  C_24
REMARK                            x       y       z     vdW  Elec       q    Type
REMARK                         _______ _______ _______ _____ _____    ______ ____
ROOT
ATOM     13  C   UNL     1       0.302  -4.977   0.000  0.00  0.00    +0.251 A 
ATOM     14  N   UNL     1       1.127  -4.977   0.000  0.00  0.00    -0.190 NA
ATOM     15  C   UNL     1       1.382  -5.762   0.000  0.00  0.00    +0.203 A 
ATOM     16  N   UNL     1       0.715  -6.247   0.000  0.00  0.00    -0.056 NA
ATOM     17  O   UNL     1       0.047  -5.762   0.000  0.00  0.00    -0.336 OA
ENDROOT
BRANCH  13   4
ATOM      1  O   UNL     1      -0.596  -2.216   0.000  0.00  0.00    -0.222 OA
ATOM      2  C   UNL     1      -0.596  -3.041   0.000  0.00  0.00    +0.170 C 
ATOM      3  C   UNL     1       0.072  -3.525   0.000  0.00  0.00    +0.060 C 
ATOM      4  C   UNL     1      -0.183  -4.310   0.000  0.00  0.00    +0.140 C 
ATOM      5  N   UNL     1      -1.008  -4.310   0.000  0.00  0.00    -0.265 NA
ATOM      6  C   UNL     1      -1.263  -3.525   0.000  0.00  0.00    +0.106 C 
BRANCH   5   7
ATOM      7  C   UNL     1      -1.493  -4.977   0.000  0.00  0.00    +0.063 C 
ATOM      8  C   UNL     1      -1.157  -5.731   0.000  0.00  0.00    +0.048 C 
ATOM      9  C   UNL     1      -1.642  -6.399   0.000  0.00  0.00    +0.144 C 
ATOM     10  O   UNL     1      -2.463  -6.312   0.000  0.00  0.00    -0.354 OA
ATOM     11  C   UNL     1      -2.798  -5.559   0.000  0.00  0.00    +0.144 C 
ATOM     12  C   UNL     1      -2.313  -4.891   0.000  0.00  0.00    +0.048 C 
ENDBRANCH   5   7
ENDBRANCH  13   4
BRANCH  15  18
ATOM     18  C   UNL     1       2.167  -6.017   0.000  0.00  0.00    +0.039 A 
ATOM     19  C   UNL     1       2.780  -5.465   0.000  0.00  0.00    +0.003 A 
ATOM     20  C   UNL     1       3.564  -5.720   0.000  0.00  0.00    +0.004 A 
ATOM     21  C   UNL     1       3.736  -6.527   0.000  0.00  0.00    +0.071 A 
ATOM     22  C   UNL     1       3.123  -7.079   0.000  0.00  0.00    +0.004 A 
ATOM     23  C   UNL     1       2.338  -6.824   0.000  0.00  0.00    +0.003 A 
BRANCH  21  24
ATOM     24  C   UNL     1       4.520  -6.782   0.000  0.00  0.00    +0.419 C 
ATOM     25  F   UNL     1       5.305  -7.037   0.000  0.00  0.00    -0.166 F 
ATOM     26  F   UNL     1       4.266  -7.566   0.000  0.00  0.00    -0.166 F 
ATOM     27  F   UNL     1       4.775  -5.997   0.000  0.00  0.00    -0.166 F 
ENDBRANCH  21  24
ENDBRANCH  15  18
TORSDOF 4
