REMARK  Name = 
REMARK  10 active torsions:
REMARK  status: ('A' for Active; 'I' for Inactive)
REMARK    1  A    between atoms: O_2  and  C_3
REMARK    2  A    between atoms: C_6  and  C_7
REMARK    3  A    between atoms: C_7  and  N_8
REMARK    4  A    between atoms: N_8  and  C_9
REMARK    5  A    between atoms: C_14  and  C_15
REMARK    6  A    between atoms: C_15  and  C_16
REMARK    7  A    between atoms: C_16  and  C_17
REMARK    8  A    between atoms: N_19  and  C_20
REMARK    9  A    between atoms: C_20  and  C_21
REMARK   10  A    between atoms: C_24  and  O_25
REMARK                            x       y       z     vdW  Elec       q    Type
REMARK                         _______ _______ _______ _____ _____    ______ ____
ROOT
ATOM      9  C   UNL     1      -3.135   2.131   0.000  0.00  0.00    +0.091 C 
ATOM     10  C   UNL     1      -3.471   1.377   0.000  0.00  0.00    +0.044 C 
ATOM     11  C   UNL     1      -2.858   0.825   0.000  0.00  0.00    +0.138 C 
ATOM     12  N   UNL     1      -2.143   1.238   0.000  0.00  0.00    -0.265 NA
ATOM     13  C   UNL     1      -2.315   2.045   0.000  0.00  0.00    +0.090 C 
ATOM     14  C   UNL     1      -1.429   0.825   0.000  0.00  0.00    +0.080 C 
ATOM     29  C   UNL     1      -1.429   0.000   0.000  0.00  0.00    +0.131 C 
ATOM     30  N   UNL     1      -2.143  -0.412   0.000  0.00  0.00    -0.203 NA
ATOM     31  C   UNL     1      -2.858   0.000   0.000  0.00  0.00    +0.256 C 
ATOM     32  O   UNL     1      -3.572  -0.412   0.000  0.00  0.00    -0.272 OA
ENDROOT
BRANCH   9   8
ATOM      8  N   UNL     1      -3.548   2.845   0.000  0.00  0.00    -0.213 NA
BRANCH   8   7
ATOM      7  C   UNL     1      -4.373   2.845   0.000  0.00  0.00    +0.115 C 
BRANCH   7   6
ATOM      3  C   UNL     1      -5.610   4.989   0.000  0.00  0.00    +0.139 A 
ATOM      4  C   UNL     1      -4.785   4.989   0.000  0.00  0.00    +0.037 A 
ATOM      5  C   UNL     1      -4.373   4.274   0.000  0.00  0.00    +0.000 A 
ATOM      6  C   UNL     1      -4.785   3.560   0.000  0.00  0.00    -0.005 A 
ATOM     33  C   UNL     1      -5.610   3.560   0.000  0.00  0.00    +0.000 A 
ATOM     34  C   UNL     1      -6.023   4.274   0.000  0.00  0.00    +0.037 A 
BRANCH   3   2
ATOM      1  C   UNL     1      -6.848   5.703   0.000  0.00  0.00    +0.252 C 
ATOM      2  O   UNL     1      -6.023   5.703   0.000  0.00  0.00    -0.471 OA
ENDBRANCH   3   2
ENDBRANCH   7   6
ENDBRANCH   8   7
ENDBRANCH   9   8
BRANCH  14  15
ATOM     15  C   UNL     1      -0.715   1.238   0.000  0.00  0.00    +0.027 C 
BRANCH  15  16
ATOM     16  C   UNL     1       0.000   0.825   0.000  0.00  0.00    +0.088 C 
BRANCH  16  17
ATOM     17  C   UNL     1       0.715   1.238   0.000  0.00  0.00    +0.242 C 
ATOM     18  O   UNL     1       0.715   2.062   0.000  0.00  0.00    -0.273 OA
ATOM     19  N   UNL     1       1.429   0.825   0.000  0.00  0.00    -0.201 NA
BRANCH  19  20
ATOM     20  C   UNL     1       2.143   1.238   0.000  0.00  0.00    +0.141 C 
BRANCH  20  21
ATOM     21  C   UNL     1       2.858   0.825   0.000  0.00  0.00    -0.000 A 
ATOM     22  C   UNL     1       3.572   1.238   0.000  0.00  0.00    +0.001 A 
ATOM     23  C   UNL     1       4.287   0.825   0.000  0.00  0.00    +0.037 A 
ATOM     24  C   UNL     1       4.287   0.000   0.000  0.00  0.00    +0.139 A 
ATOM     27  C   UNL     1       3.572  -0.412   0.000  0.00  0.00    +0.037 A 
ATOM     28  C   UNL     1       2.858   0.000   0.000  0.00  0.00    +0.001 A 
BRANCH  24  25
ATOM     25  O   UNL     1       5.001  -0.412   0.000  0.00  0.00    -0.471 OA
ATOM     26  C   UNL     1       5.716   0.000   0.000  0.00  0.00    +0.252 C 
ENDBRANCH  24  25
ENDBRANCH  20  21
ENDBRANCH  19  20
ENDBRANCH  16  17
ENDBRANCH  15  16
ENDBRANCH  14  15
TORSDOF 10
