MODEL 1
REMARK VINA RESULT:      -9.4      0.000      0.000
REMARK  Name = 
REMARK  7 active torsions:
REMARK  status: ('A' for Active; 'I' for Inactive)
REMARK    1  A    between atoms: C_3  and  C_4
REMARK    2  A    between atoms: C_4  and  N_5
REMARK    3  A    between atoms: C_14  and  C_15
REMARK    4  A    between atoms: C_15  and  C_16
REMARK    5  A    between atoms: C_16  and  C_17
REMARK    6  A    between atoms: N_19  and  C_20
REMARK    7  A    between atoms: C_20  and  C_21
REMARK                            x       y       z     vdW  Elec       q    Type
REMARK                         _______ _______ _______ _____ _____    ______ ____
ROOT
ATOM      5  N   UNL     1      -2.099   1.740  24.773  0.00  0.00    -0.259 NA
ATOM      6  C   UNL     1      -2.354   0.969  24.922  0.00  0.00    +0.074 C 
ATOM      7  C   UNL     1      -1.754   0.453  24.689  0.00  0.00    +0.035 C 
ATOM      8  C   UNL     1      -1.127   0.905  24.398  0.00  0.00    +0.083 C 
ATOM      9  C   UNL     1      -1.341   1.700  24.450  0.00  0.00    +0.152 C 
ATOM     10  C   UNL     1      -0.906   2.365  24.230  0.00  0.00    +0.257 C 
ATOM     11  O   UNL     1      -1.276   3.092  24.353  0.00  0.00    -0.272 OA
ATOM     12  N   UNL     1      -0.149   2.400  23.903  0.00  0.00    -0.203 NA
ATOM     13  C   UNL     1       0.359   1.777  23.715  0.00  0.00    +0.131 C 
ATOM     14  C   UNL     1       0.236   0.966  23.809  0.00  0.00    +0.080 C 
ATOM     26  N   UNL     1      -0.426   0.579  24.113  0.00  0.00    -0.271 NA
ATOM     27  C   UNL     1      -0.380  -0.245  24.134  0.00  0.00    +0.090 C 
ENDROOT
BRANCH   5   4
ATOM      4  C   UNL     1      -2.527   2.429  24.923  0.00  0.00    +0.137 C 
BRANCH   4   3
ATOM      1  C   UNL     1      -3.524   3.563  25.894  0.00  0.00    +0.132 C 
ATOM      2  N   UNL     1      -3.804   2.914  25.467  0.00  0.00    -0.312 N 
ATOM      3  C   UNL     1      -3.345   2.393  25.021  0.00  0.00    +0.137 A 
ATOM     28  N   UNL     1      -3.850   1.830  24.689  0.00  0.00    -0.230 NA
ATOM     29  C   UNL     1      -4.620   2.003  24.931  0.00  0.00    +0.098 A 
ATOM     30  C   UNL     1      -4.591   2.673  25.411  0.00  0.00    +0.079 A 
ATOM     31  C   UNL     1      -5.285   2.978  25.736  0.00  0.00    +0.019 A 
ATOM     32  C   UNL     1      -6.009   2.612  25.580  0.00  0.00    +0.002 A 
ATOM     33  C   UNL     1      -6.037   1.942  25.100  0.00  0.00    +0.002 A 
ATOM     34  C   UNL     1      -5.342   1.638  24.775  0.00  0.00    +0.021 A 
ENDBRANCH   4   3
ENDBRANCH   5   4
BRANCH  14  15
ATOM     15  C   UNL     1       0.856   0.479  23.567  0.00  0.00    +0.027 C 
BRANCH  15  16
ATOM     16  C   UNL     1       1.499   0.801  23.161  0.00  0.00    +0.088 C 
BRANCH  16  17
ATOM     17  C   UNL     1       2.104   0.310  22.890  0.00  0.00    +0.242 C 
ATOM     18  O   UNL     1       1.935  -0.300  22.362  0.00  0.00    -0.273 OA
ATOM     19  N   UNL     1       2.878   0.429  23.149  0.00  0.00    -0.200 NA
BRANCH  19  20
ATOM     20  C   UNL     1       3.483  -0.062  22.878  0.00  0.00    +0.148 C 
BRANCH  20  21
ATOM     21  C   UNL     1       4.242   0.006  23.194  0.00  0.00    +0.029 A 
ATOM     22  C   UNL     1       4.715   0.682  23.176  0.00  0.00    +0.004 A 
ATOM     23  C   UNL     1       5.427   0.504  23.555  0.00  0.00    +0.007 A 
ATOM     24  C   UNL     1       5.393  -0.280  23.805  0.00  0.00    +0.035 A 
ATOM     25  S   UNL     1       4.661  -0.588  23.583  0.00  0.00    -0.089 S 
ENDBRANCH  20  21
ENDBRANCH  19  20
ENDBRANCH  16  17
ENDBRANCH  15  16
ENDBRANCH  14  15
TORSDOF 7
ENDMDL
MODEL 2
REMARK VINA RESULT:      -6.6     15.253     16.139
REMARK  Name = 
REMARK  7 active torsions:
REMARK  status: ('A' for Active; 'I' for Inactive)
REMARK    1  A    between atoms: C_3  and  C_4
REMARK    2  A    between atoms: C_4  and  N_5
REMARK    3  A    between atoms: C_14  and  C_15
REMARK    4  A    between atoms: C_15  and  C_16
REMARK    5  A    between atoms: C_16  and  C_17
REMARK    6  A    between atoms: N_19  and  C_20
REMARK    7  A    between atoms: C_20  and  C_21
REMARK                            x       y       z     vdW  Elec       q    Type
REMARK                         _______ _______ _______ _____ _____    ______ ____
ROOT
ATOM      5  N   UNL     1      -7.470  -9.973  15.710  0.00  0.00    -0.259 NA
ATOM      6  C   UNL     1      -8.053 -10.145  15.151  0.00  0.00    +0.074 C 
ATOM      7  C   UNL     1      -7.677 -10.310  14.436  0.00  0.00    +0.035 C 
ATOM      8  C   UNL     1      -6.863 -10.241  14.552  0.00  0.00    +0.083 C 
ATOM      9  C   UNL     1      -6.736 -10.032  15.341  0.00  0.00    +0.152 C 
ATOM     10  C   UNL     1      -6.020  -9.898  15.727  0.00  0.00    +0.257 C 
ATOM     11  O   UNL     1      -6.077  -9.696  16.525  0.00  0.00    -0.272 OA
ATOM     12  N   UNL     1      -5.254  -9.939  15.422  0.00  0.00    -0.203 NA
ATOM     13  C   UNL     1      -5.016 -10.124  14.654  0.00  0.00    +0.131 C 
ATOM     14  C   UNL     1      -5.485 -10.315  14.002  0.00  0.00    +0.080 C 
ATOM     26  N   UNL     1      -6.307 -10.366  13.957  0.00  0.00    -0.271 NA
ATOM     27  C   UNL     1      -6.612 -10.571  13.219  0.00  0.00    +0.090 C 
ENDROOT
BRANCH   5   4
ATOM      4  C   UNL     1      -7.601  -9.776  16.501  0.00  0.00    +0.137 C 
BRANCH   4   3
ATOM      1  C   UNL     1      -8.696 -10.260  17.838  0.00  0.00    +0.132 C 
ATOM      2  N   UNL     1      -8.800  -9.614  17.336  0.00  0.00    -0.312 N 
ATOM      3  C   UNL     1      -8.297  -9.392  16.721  0.00  0.00    +0.137 A 
ATOM     28  N   UNL     1      -8.612  -8.717  16.365  0.00  0.00    -0.230 NA
ATOM     29  C   UNL     1      -9.310  -8.523  16.760  0.00  0.00    +0.098 A 
ATOM     30  C   UNL     1      -9.426  -9.077  17.360  0.00  0.00    +0.079 A 
ATOM     31  C   UNL     1     -10.087  -9.022  17.851  0.00  0.00    +0.019 A 
ATOM     32  C   UNL     1     -10.632  -8.411  17.741  0.00  0.00    +0.002 A 
ATOM     33  C   UNL     1     -10.516  -7.857  17.142  0.00  0.00    +0.002 A 
ATOM     34  C   UNL     1      -9.854  -7.913  16.651  0.00  0.00    +0.021 A 
ENDBRANCH   4   3
ENDBRANCH   5   4
BRANCH  14  15
ATOM     15  C   UNL     1      -5.077 -10.474  13.303  0.00  0.00    +0.027 C 
BRANCH  15  16
ATOM     16  C   UNL     1      -4.413 -10.027  13.101  0.00  0.00    +0.088 C 
BRANCH  16  17
ATOM     17  C   UNL     1      -3.965 -10.231  12.439  0.00  0.00    +0.242 C 
ATOM     18  O   UNL     1      -3.354 -10.780  12.508  0.00  0.00    -0.273 OA
ATOM     19  N   UNL     1      -4.127  -9.884  11.709  0.00  0.00    -0.200 NA
BRANCH  19  20
ATOM     20  C   UNL     1      -3.679 -10.087  11.047  0.00  0.00    +0.148 C 
BRANCH  20  21
ATOM     21  C   UNL     1      -3.860  -9.762  10.310  0.00  0.00    +0.029 A 
ATOM     22  C   UNL     1      -3.722  -8.983  10.077  0.00  0.00    +0.004 A 
ATOM     23  C   UNL     1      -3.987  -8.898   9.300  0.00  0.00    +0.007 A 
ATOM     24  C   UNL     1      -4.289  -9.625   9.054  0.00  0.00    +0.035 A 
ATOM     25  S   UNL     1      -4.210 -10.158   9.678  0.00  0.00    -0.089 S 
ENDBRANCH  20  21
ENDBRANCH  19  20
ENDBRANCH  16  17
ENDBRANCH  15  16
ENDBRANCH  14  15
TORSDOF 7
ENDMDL
MODEL 3
REMARK VINA RESULT:      -6.4     15.328     16.398
REMARK  Name = 
REMARK  7 active torsions:
REMARK  status: ('A' for Active; 'I' for Inactive)
REMARK    1  A    between atoms: C_3  and  C_4
REMARK    2  A    between atoms: C_4  and  N_5
REMARK    3  A    between atoms: C_14  and  C_15
REMARK    4  A    between atoms: C_15  and  C_16
REMARK    5  A    between atoms: C_16  and  C_17
REMARK    6  A    between atoms: N_19  and  C_20
REMARK    7  A    between atoms: C_20  and  C_21
REMARK                            x       y       z     vdW  Elec       q    Type
REMARK                         _______ _______ _______ _____ _____    ______ ____
ROOT
ATOM      5  N   UNL     1      -5.386 -10.262  16.102  0.00  0.00    -0.259 NA
ATOM      6  C   UNL     1      -4.634 -10.444  16.389  0.00  0.00    +0.074 C 
ATOM      7  C   UNL     1      -4.138 -10.571  15.743  0.00  0.00    +0.035 C 
ATOM      8  C   UNL     1      -4.584 -10.467  15.055  0.00  0.00    +0.083 C 
ATOM      9  C   UNL     1      -5.355 -10.276  15.278  0.00  0.00    +0.152 C 
ATOM     10  C   UNL     1      -6.005 -10.120  14.795  0.00  0.00    +0.257 C 
ATOM     11  O   UNL     1      -6.708  -9.944  15.189  0.00  0.00    -0.272 OA
ATOM     12  N   UNL     1      -6.046 -10.116  13.971  0.00  0.00    -0.203 NA
ATOM     13  C   UNL     1      -5.445 -10.268  13.426  0.00  0.00    +0.131 C 
ATOM     14  C   UNL     1      -4.655 -10.461  13.571  0.00  0.00    +0.080 C 
ATOM     26  N   UNL     1      -4.273 -10.550  14.296  0.00  0.00    -0.271 NA
ATOM     27  C   UNL     1      -3.472 -10.747  14.256  0.00  0.00    +0.090 C 
ENDROOT
BRANCH   5   4
ATOM      4  C   UNL     1      -6.052 -10.095  16.559  0.00  0.00    +0.137 C 
BRANCH   4   3
ATOM      1  C   UNL     1      -7.458  -9.980  17.669  0.00  0.00    +0.132 C 
ATOM      2  N   UNL     1      -6.687 -10.183  17.882  0.00  0.00    -0.312 N 
ATOM      3  C   UNL     1      -6.041 -10.236  17.372  0.00  0.00    +0.137 A 
ATOM     28  N   UNL     1      -5.381 -10.454  17.817  0.00  0.00    -0.230 NA
ATOM     29  C   UNL     1      -5.620 -10.537  18.603  0.00  0.00    +0.098 A 
ATOM     30  C   UNL     1      -6.427 -10.369  18.643  0.00  0.00    +0.079 A 
ATOM     31  C   UNL     1      -6.821 -10.408  19.367  0.00  0.00    +0.019 A 
ATOM     32  C   UNL     1      -6.407 -10.614  20.051  0.00  0.00    +0.002 A 
ATOM     33  C   UNL     1      -5.600 -10.781  20.011  0.00  0.00    +0.002 A 
ATOM     34  C   UNL     1      -5.207 -10.742  19.286  0.00  0.00    +0.021 A 
ENDBRANCH   4   3
ENDBRANCH   5   4
BRANCH  14  15
ATOM     15  C   UNL     1      -4.188 -10.581  12.902  0.00  0.00    +0.027 C 
BRANCH  15  16
ATOM     16  C   UNL     1      -4.329 -10.144  12.216  0.00  0.00    +0.088 C 
BRANCH  16  17
ATOM     17  C   UNL     1      -3.986 -10.374  11.502  0.00  0.00    +0.242 C 
ATOM     18  O   UNL     1      -3.255 -10.756  11.500  0.00  0.00    -0.273 OA
ATOM     19  N   UNL     1      -4.374 -10.222  10.791  0.00  0.00    -0.200 NA
BRANCH  19  20
ATOM     20  C   UNL     1      -4.031 -10.453  10.077  0.00  0.00    +0.148 C 
BRANCH  20  21
ATOM     21  C   UNL     1      -4.432 -10.327   9.366  0.00  0.00    +0.029 A 
ATOM     22  C   UNL     1      -4.272  -9.731   8.819  0.00  0.00    +0.004 A 
ATOM     23  C   UNL     1      -4.804  -9.810   8.193  0.00  0.00    +0.007 A 
ATOM     24  C   UNL     1      -5.292 -10.455   8.354  0.00  0.00    +0.035 A 
ATOM     25  S   UNL     1      -5.062 -10.774   9.079  0.00  0.00    -0.089 S 
ENDBRANCH  20  21
ENDBRANCH  19  20
ENDBRANCH  16  17
ENDBRANCH  15  16
ENDBRANCH  14  15
TORSDOF 7
ENDMDL
MODEL 4
REMARK VINA RESULT:      -6.2      2.110      7.252
REMARK  Name = 
REMARK  7 active torsions:
REMARK  status: ('A' for Active; 'I' for Inactive)
REMARK    1  A    between atoms: C_3  and  C_4
REMARK    2  A    between atoms: C_4  and  N_5
REMARK    3  A    between atoms: C_14  and  C_15
REMARK    4  A    between atoms: C_15  and  C_16
REMARK    5  A    between atoms: C_16  and  C_17
REMARK    6  A    between atoms: N_19  and  C_20
REMARK    7  A    between atoms: C_20  and  C_21
REMARK                            x       y       z     vdW  Elec       q    Type
REMARK                         _______ _______ _______ _____ _____    ______ ____
ROOT
ATOM      5  N   UNL     1       1.698   0.400  23.089  0.00  0.00    -0.259 NA
ATOM      6  C   UNL     1       1.594  -0.368  22.804  0.00  0.00    +0.074 C 
ATOM      7  C   UNL     1       0.837  -0.617  23.016  0.00  0.00    +0.035 C 
ATOM      8  C   UNL     1       0.472  -0.004  23.431  0.00  0.00    +0.083 C 
ATOM      9  C   UNL     1       1.005   0.625  23.476  0.00  0.00    +0.152 C 
ATOM     10  C   UNL     1       0.902   1.361  23.834  0.00  0.00    +0.257 C 
ATOM     11  O   UNL     1       1.545   1.875  23.784  0.00  0.00    -0.272 OA
ATOM     12  N   UNL     1       0.242   1.650  24.235  0.00  0.00    -0.203 NA
ATOM     13  C   UNL     1      -0.479   1.275  24.378  0.00  0.00    +0.131 C 
ATOM     14  C   UNL     1      -0.717   0.517  24.154  0.00  0.00    +0.080 C 
ATOM     26  N   UNL     1      -0.293  -0.052  23.733  0.00  0.00    -0.271 NA
ATOM     27  C   UNL     1      -0.689  -0.763  23.595  0.00  0.00    +0.090 C 
ENDROOT
BRANCH   5   4
ATOM      4  C   UNL     1       2.376   0.862  23.001  0.00  0.00    +0.137 C 
BRANCH   4   3
ATOM      1  C   UNL     1       3.943   1.546  22.458  0.00  0.00    +0.132 C 
ATOM      2  N   UNL     1       3.841   0.844  22.880  0.00  0.00    -0.312 N 
ATOM      3  C   UNL     1       3.120   0.530  23.130  0.00  0.00    +0.137 A 
ATOM     28  N   UNL     1       3.275  -0.175  23.531  0.00  0.00    -0.230 NA
ATOM     29  C   UNL     1       4.091  -0.295  23.529  0.00  0.00    +0.098 A 
ATOM     30  C   UNL     1       4.441   0.334  23.127  0.00  0.00    +0.079 A 
ATOM     31  C   UNL     1       5.260   0.363  23.036  0.00  0.00    +0.019 A 
ATOM     32  C   UNL     1       5.731  -0.240  23.349  0.00  0.00    +0.002 A 
ATOM     33  C   UNL     1       5.381  -0.869  23.751  0.00  0.00    +0.002 A 
ATOM     34  C   UNL     1       4.561  -0.897  23.841  0.00  0.00    +0.021 A 
ENDBRANCH   4   3
ENDBRANCH   5   4
BRANCH  14  15
ATOM     15  C   UNL     1      -1.480   0.300  24.382  0.00  0.00    +0.027 C 
BRANCH  15  16
ATOM     16  C   UNL     1      -1.991   0.863  24.702  0.00  0.00    +0.088 C 
BRANCH  16  17
ATOM     17  C   UNL     1      -2.788   0.681  24.813  0.00  0.00    +0.242 C 
ATOM     18  O   UNL     1      -3.022  -0.103  24.912  0.00  0.00    -0.273 OA
ATOM     19  N   UNL     1      -3.350   1.284  24.826  0.00  0.00    -0.200 NA
BRANCH  19  20
ATOM     20  C   UNL     1      -4.147   1.102  24.937  0.00  0.00    +0.148 C 
BRANCH  20  21
ATOM     21  C   UNL     1      -4.697   1.707  25.049  0.00  0.00    +0.029 A 
ATOM     22  C   UNL     1      -4.577   2.507  24.885  0.00  0.00    +0.004 A 
ATOM     23  C   UNL     1      -5.270   2.913  25.079  0.00  0.00    +0.007 A 
ATOM     24  C   UNL     1      -5.816   2.364  25.362  0.00  0.00    +0.035 A 
ATOM     25  S   UNL     1      -5.462   1.619  25.343  0.00  0.00    -0.089 S 
ENDBRANCH  20  21
ENDBRANCH  19  20
ENDBRANCH  16  17
ENDBRANCH  15  16
ENDBRANCH  14  15
TORSDOF 7
ENDMDL
MODEL 5
REMARK VINA RESULT:      -6.0      3.328      5.655
REMARK  Name = 
REMARK  7 active torsions:
REMARK  status: ('A' for Active; 'I' for Inactive)
REMARK    1  A    between atoms: C_3  and  C_4
REMARK    2  A    between atoms: C_4  and  N_5
REMARK    3  A    between atoms: C_14  and  C_15
REMARK    4  A    between atoms: C_15  and  C_16
REMARK    5  A    between atoms: C_16  and  C_17
REMARK    6  A    between atoms: N_19  and  C_20
REMARK    7  A    between atoms: C_20  and  C_21
REMARK                            x       y       z     vdW  Elec       q    Type
REMARK                         _______ _______ _______ _____ _____    ______ ____
ROOT
ATOM      5  N   UNL     1      -0.985  -0.070  24.495  0.00  0.00    -0.259 NA
ATOM      6  C   UNL     1      -1.040   0.063  23.682  0.00  0.00    +0.074 C 
ATOM      7  C   UNL     1      -0.950   0.872  23.549  0.00  0.00    +0.035 C 
ATOM      8  C   UNL     1      -0.839   1.240  24.280  0.00  0.00    +0.083 C 
ATOM      9  C   UNL     1      -0.861   0.657  24.864  0.00  0.00    +0.152 C 
ATOM     10  C   UNL     1      -0.778   0.744  25.680  0.00  0.00    +0.257 C 
ATOM     11  O   UNL     1      -0.827   0.049  26.120  0.00  0.00    -0.272 OA
ATOM     12  N   UNL     1      -0.652   1.435  26.114  0.00  0.00    -0.203 NA
ATOM     13  C   UNL     1      -0.579   2.209  25.839  0.00  0.00    +0.131 C 
ATOM     14  C   UNL     1      -0.613   2.484  25.061  0.00  0.00    +0.080 C 
ATOM     26  N   UNL     1      -0.729   2.052  24.368  0.00  0.00    -0.271 NA
ATOM     27  C   UNL     1      -0.735   2.492  23.670  0.00  0.00    +0.090 C 
ENDROOT
BRANCH   5   4
ATOM      4  C   UNL     1      -1.044  -0.801  24.871  0.00  0.00    +0.137 C 
BRANCH   4   3
ATOM      1  C   UNL     1      -1.011  -2.595  24.806  0.00  0.00    +0.132 C 
ATOM      2  N   UNL     1      -1.674  -2.117  24.689  0.00  0.00    -0.312 N 
ATOM      3  C   UNL     1      -1.689  -1.293  24.719  0.00  0.00    +0.137 A 
ATOM     28  N   UNL     1      -2.463  -1.046  24.570  0.00  0.00    -0.230 NA
ATOM     29  C   UNL     1      -2.925  -1.719  24.448  0.00  0.00    +0.098 A 
ATOM     30  C   UNL     1      -2.438  -2.380  24.522  0.00  0.00    +0.079 A 
ATOM     31  C   UNL     1      -2.752  -3.137  24.427  0.00  0.00    +0.019 A 
ATOM     32  C   UNL     1      -3.555  -3.232  24.258  0.00  0.00    +0.002 A 
ATOM     33  C   UNL     1      -4.042  -2.570  24.185  0.00  0.00    +0.002 A 
ATOM     34  C   UNL     1      -3.727  -1.814  24.280  0.00  0.00    +0.021 A 
ENDBRANCH   4   3
ENDBRANCH   5   4
BRANCH  14  15
ATOM     15  C   UNL     1      -0.519   3.298  24.964  0.00  0.00    +0.027 C 
BRANCH  15  16
ATOM     16  C   UNL     1      -0.804   3.817  25.539  0.00  0.00    +0.088 C 
BRANCH  16  17
ATOM     17  C   UNL     1      -1.452   4.301  25.372  0.00  0.00    +0.242 C 
ATOM     18  O   UNL     1      -1.334   5.051  25.052  0.00  0.00    -0.273 OA
ATOM     19  N   UNL     1      -2.216   4.033  25.526  0.00  0.00    -0.200 NA
BRANCH  19  20
ATOM     20  C   UNL     1      -2.863   4.517  25.360  0.00  0.00    +0.148 C 
BRANCH  20  21
ATOM     21  C   UNL     1      -3.621   4.191  25.312  0.00  0.00    +0.029 A 
ATOM     22  C   UNL     1      -4.039   4.037  24.618  0.00  0.00    +0.004 A 
ATOM     23  C   UNL     1      -4.769   3.713  24.828  0.00  0.00    +0.007 A 
ATOM     24  C   UNL     1      -4.801   3.668  25.650  0.00  0.00    +0.035 A 
ATOM     25  S   UNL     1      -4.091   3.964  25.949  0.00  0.00    -0.089 S 
ENDBRANCH  20  21
ENDBRANCH  19  20
ENDBRANCH  16  17
ENDBRANCH  15  16
ENDBRANCH  14  15
TORSDOF 7
ENDMDL
MODEL 6
REMARK VINA RESULT:      -5.8      2.307      7.115
REMARK  Name = 
REMARK  7 active torsions:
REMARK  status: ('A' for Active; 'I' for Inactive)
REMARK    1  A    between atoms: C_3  and  C_4
REMARK    2  A    between atoms: C_4  and  N_5
REMARK    3  A    between atoms: C_14  and  C_15
REMARK    4  A    between atoms: C_15  and  C_16
REMARK    5  A    between atoms: C_16  and  C_17
REMARK    6  A    between atoms: N_19  and  C_20
REMARK    7  A    between atoms: C_20  and  C_21
REMARK                            x       y       z     vdW  Elec       q    Type
REMARK                         _______ _______ _______ _____ _____    ______ ____
ROOT
ATOM      5  N   UNL     1       0.276   1.309  24.050  0.00  0.00    -0.259 NA
ATOM      6  C   UNL     1       0.738   1.514  24.702  0.00  0.00    +0.074 C 
ATOM      7  C   UNL     1       0.292   2.016  25.182  0.00  0.00    +0.035 C 
ATOM      8  C   UNL     1      -0.445   2.121  24.825  0.00  0.00    +0.083 C 
ATOM      9  C   UNL     1      -0.454   1.684  24.126  0.00  0.00    +0.152 C 
ATOM     10  C   UNL     1      -1.063   1.609  23.574  0.00  0.00    +0.257 C 
ATOM     11  O   UNL     1      -0.900   1.127  22.926  0.00  0.00    -0.272 OA
ATOM     12  N   UNL     1      -1.813   1.953  23.586  0.00  0.00    -0.203 NA
ATOM     13  C   UNL     1      -2.140   2.456  24.153  0.00  0.00    +0.131 C 
ATOM     14  C   UNL     1      -1.796   2.741  24.848  0.00  0.00    +0.080 C 
ATOM     26  N   UNL     1      -1.041   2.591  25.146  0.00  0.00    -0.271 NA
ATOM     27  C   UNL     1      -0.861   2.961  25.861  0.00  0.00    +0.090 C 
ENDROOT
BRANCH   5   4
ATOM      4  C   UNL     1       0.506   0.815  23.430  0.00  0.00    +0.137 C 
BRANCH   4   3
ATOM      1  C   UNL     1       1.268  -0.579  22.596  0.00  0.00    +0.132 C 
ATOM      2  N   UNL     1       1.654   0.105  22.848  0.00  0.00    -0.312 N 
ATOM      3  C   UNL     1       1.304   0.746  23.231  0.00  0.00    +0.137 A 
ATOM     28  N   UNL     1       1.891   1.306  23.381  0.00  0.00    -0.230 NA
ATOM     29  C   UNL     1       2.605   1.011  23.090  0.00  0.00    +0.098 A 
ATOM     30  C   UNL     1       2.459   0.269  22.761  0.00  0.00    +0.079 A 
ATOM     31  C   UNL     1       3.076  -0.163  22.424  0.00  0.00    +0.019 A 
ATOM     32  C   UNL     1       3.840   0.149  22.416  0.00  0.00    +0.002 A 
ATOM     33  C   UNL     1       3.987   0.891  22.746  0.00  0.00    +0.002 A 
ATOM     34  C   UNL     1       3.369   1.321  23.082  0.00  0.00    +0.021 A 
ENDBRANCH   4   3
ENDBRANCH   5   4
BRANCH  14  15
ATOM     15  C   UNL     1      -2.269   3.240  25.303  0.00  0.00    +0.027 C 
BRANCH  15  16
ATOM     16  C   UNL     1      -2.953   3.568  24.979  0.00  0.00    +0.088 C 
BRANCH  16  17
ATOM     17  C   UNL     1      -3.640   3.624  25.433  0.00  0.00    +0.242 C 
ATOM     18  O   UNL     1      -3.674   4.151  26.066  0.00  0.00    -0.273 OA
ATOM     19  N   UNL     1      -4.291   3.151  25.255  0.00  0.00    -0.200 NA
BRANCH  19  20
ATOM     20  C   UNL     1      -4.977   3.206  25.709  0.00  0.00    +0.148 C 
BRANCH  20  21
ATOM     21  C   UNL     1      -5.563   2.628  25.644  0.00  0.00    +0.029 A 
ATOM     22  C   UNL     1      -5.825   2.280  24.944  0.00  0.00    +0.004 A 
ATOM     23  C   UNL     1      -6.413   1.733  25.135  0.00  0.00    +0.007 A 
ATOM     24  C   UNL     1      -6.514   1.744  25.953  0.00  0.00    +0.035 A 
ATOM     25  S   UNL     1      -5.988   2.296  26.268  0.00  0.00    -0.089 S 
ENDBRANCH  20  21
ENDBRANCH  19  20
ENDBRANCH  16  17
ENDBRANCH  15  16
ENDBRANCH  14  15
TORSDOF 7
ENDMDL
MODEL 7
REMARK VINA RESULT:      -5.7     17.650     19.398
REMARK  Name = 
REMARK  7 active torsions:
REMARK  status: ('A' for Active; 'I' for Inactive)
REMARK    1  A    between atoms: C_3  and  C_4
REMARK    2  A    between atoms: C_4  and  N_5
REMARK    3  A    between atoms: C_14  and  C_15
REMARK    4  A    between atoms: C_15  and  C_16
REMARK    5  A    between atoms: C_16  and  C_17
REMARK    6  A    between atoms: N_19  and  C_20
REMARK    7  A    between atoms: C_20  and  C_21
REMARK                            x       y       z     vdW  Elec       q    Type
REMARK                         _______ _______ _______ _____ _____    ______ ____
ROOT
ATOM      5  N   UNL     1      -4.622  -9.621  10.240  0.00  0.00    -0.259 NA
ATOM      6  C   UNL     1      -4.232  -9.157   9.679  0.00  0.00    +0.074 C 
ATOM      7  C   UNL     1      -4.803  -8.750   9.244  0.00  0.00    +0.035 C 
ATOM      8  C   UNL     1      -5.546  -8.963   9.535  0.00  0.00    +0.083 C 
ATOM      9  C   UNL     1      -5.433  -9.501  10.151  0.00  0.00    +0.152 C 
ATOM     10  C   UNL     1      -6.002  -9.874  10.617  0.00  0.00    +0.257 C 
ATOM     11  O   UNL     1      -5.711 -10.388  11.193  0.00  0.00    -0.272 OA
ATOM     12  N   UNL     1      -6.823  -9.802  10.584  0.00  0.00    -0.203 NA
ATOM     13  C   UNL     1      -7.279  -9.338  10.076  0.00  0.00    +0.131 C 
ATOM     14  C   UNL     1      -7.025  -8.832   9.475  0.00  0.00    +0.080 C 
ATOM     26  N   UNL     1      -6.253  -8.665   9.235  0.00  0.00    -0.271 NA
ATOM     27  C   UNL     1      -6.181  -8.130   8.611  0.00  0.00    +0.090 C 
ENDROOT
BRANCH   5   4
ATOM      4  C   UNL     1      -4.263 -10.118  10.792  0.00  0.00    +0.137 C 
BRANCH   4   3
ATOM      1  C   UNL     1      -3.458 -10.772  12.256  0.00  0.00    +0.132 C 
ATOM      2  N   UNL     1      -3.108 -10.293  11.683  0.00  0.00    -0.312 N 
ATOM      3  C   UNL     1      -3.478  -9.992  11.011  0.00  0.00    +0.137 A 
ATOM     28  N   UNL     1      -2.924  -9.543  10.594  0.00  0.00    -0.230 NA
ATOM     29  C   UNL     1      -2.212  -9.566  11.011  0.00  0.00    +0.098 A 
ATOM     30  C   UNL     1      -2.325 -10.030  11.684  0.00  0.00    +0.079 A 
ATOM     31  C   UNL     1      -1.702 -10.153  12.210  0.00  0.00    +0.019 A 
ATOM     32  C   UNL     1      -0.965  -9.812  12.063  0.00  0.00    +0.002 A 
ATOM     33  C   UNL     1      -0.851  -9.348  11.390  0.00  0.00    +0.002 A 
ATOM     34  C   UNL     1      -1.475  -9.226  10.864  0.00  0.00    +0.021 A 
ENDBRANCH   4   3
ENDBRANCH   5   4
BRANCH  14  15
ATOM     15  C   UNL     1      -7.621  -8.441   9.060  0.00  0.00    +0.027 C 
BRANCH  15  16
ATOM     16  C   UNL     1      -8.364  -8.338   9.405  0.00  0.00    +0.088 C 
BRANCH  16  17
ATOM     17  C   UNL     1      -8.981  -8.013   8.965  0.00  0.00    +0.242 C 
ATOM     18  O   UNL     1      -9.440  -8.495   8.479  0.00  0.00    -0.273 OA
ATOM     19  N   UNL     1      -9.140  -7.205   9.011  0.00  0.00    -0.200 NA
BRANCH  19  20
ATOM     20  C   UNL     1      -9.757  -6.880   8.571  0.00  0.00    +0.148 C 
BRANCH  20  21
ATOM     21  C   UNL     1      -9.944  -6.079   8.651  0.00  0.00    +0.029 A 
ATOM     22  C   UNL     1     -10.658  -5.774   8.928  0.00  0.00    +0.004 A 
ATOM     23  C   UNL     1     -10.604  -4.950   8.915  0.00  0.00    +0.007 A 
ATOM     24  C   UNL     1      -9.858  -4.748   8.630  0.00  0.00    +0.035 A 
ATOM     25  S   UNL     1      -9.450  -5.446   8.466  0.00  0.00    -0.089 S 
ENDBRANCH  20  21
ENDBRANCH  19  20
ENDBRANCH  16  17
ENDBRANCH  15  16
ENDBRANCH  14  15
TORSDOF 7
ENDMDL
MODEL 8
REMARK VINA RESULT:      -5.7     14.603     15.212
REMARK  Name = 
REMARK  7 active torsions:
REMARK  status: ('A' for Active; 'I' for Inactive)
REMARK    1  A    between atoms: C_3  and  C_4
REMARK    2  A    between atoms: C_4  and  N_5
REMARK    3  A    between atoms: C_14  and  C_15
REMARK    4  A    between atoms: C_15  and  C_16
REMARK    5  A    between atoms: C_16  and  C_17
REMARK    6  A    between atoms: N_19  and  C_20
REMARK    7  A    between atoms: C_20  and  C_21
REMARK                            x       y       z     vdW  Elec       q    Type
REMARK                         _______ _______ _______ _____ _____    ______ ____
ROOT
ATOM      5  N   UNL     1      -6.669 -10.182  16.537  0.00  0.00    -0.259 NA
ATOM      6  C   UNL     1      -7.069 -10.132  15.817  0.00  0.00    +0.074 C 
ATOM      7  C   UNL     1      -6.519 -10.240  15.211  0.00  0.00    +0.035 C 
ATOM      8  C   UNL     1      -5.779 -10.356  15.557  0.00  0.00    +0.083 C 
ATOM      9  C   UNL     1      -5.872 -10.320  16.376  0.00  0.00    +0.152 C 
ATOM     10  C   UNL     1      -5.298 -10.403  16.963  0.00  0.00    +0.257 C 
ATOM     11  O   UNL     1      -5.568 -10.338  17.739  0.00  0.00    -0.272 OA
ATOM     12  N   UNL     1      -4.489 -10.541  16.875  0.00  0.00    -0.203 NA
ATOM     13  C   UNL     1      -4.054 -10.631  16.179  0.00  0.00    +0.131 C 
ATOM     14  C   UNL     1      -4.322 -10.605  15.399  0.00  0.00    +0.080 C 
ATOM     26  N   UNL     1      -5.090 -10.483  15.123  0.00  0.00    -0.271 NA
ATOM     27  C   UNL     1      -5.179 -10.487  14.302  0.00  0.00    +0.090 C 
ENDROOT
BRANCH   5   4
ATOM      4  C   UNL     1      -7.007 -10.107  17.285  0.00  0.00    +0.137 C 
BRANCH   4   3
ATOM      1  C   UNL     1      -8.347 -10.646  18.350  0.00  0.00    +0.132 C 
ATOM      2  N   UNL     1      -8.353  -9.981  17.862  0.00  0.00    -0.312 N 
ATOM      3  C   UNL     1      -7.737  -9.733  17.373  0.00  0.00    +0.137 A 
ATOM     28  N   UNL     1      -7.979  -9.046  16.986  0.00  0.00    -0.230 NA
ATOM     29  C   UNL     1      -8.746  -8.868  17.236  0.00  0.00    +0.098 A 
ATOM     30  C   UNL     1      -8.977  -9.446  17.778  0.00  0.00    +0.079 A 
ATOM     31  C   UNL     1      -9.724  -9.412  18.125  0.00  0.00    +0.019 A 
ATOM     32  C   UNL     1     -10.241  -8.799  17.929  0.00  0.00    +0.002 A 
ATOM     33  C   UNL     1     -10.010  -8.221  17.388  0.00  0.00    +0.002 A 
ATOM     34  C   UNL     1      -9.262  -8.256  17.042  0.00  0.00    +0.021 A 
ENDBRANCH   4   3
ENDBRANCH   5   4
BRANCH  14  15
ATOM     15  C   UNL     1      -3.746 -10.716  14.819  0.00  0.00    +0.027 C 
BRANCH  15  16
ATOM     16  C   UNL     1      -2.951 -10.780  15.034  0.00  0.00    +0.088 C 
BRANCH  16  17
ATOM     17  C   UNL     1      -2.369 -10.421  14.572  0.00  0.00    +0.242 C 
ATOM     18  O   UNL     1      -1.806  -9.933  14.925  0.00  0.00    -0.273 OA
ATOM     19  N   UNL     1      -2.352 -10.550  13.758  0.00  0.00    -0.200 NA
BRANCH  19  20
ATOM     20  C   UNL     1      -1.770 -10.191  13.296  0.00  0.00    +0.148 C 
BRANCH  20  21
ATOM     21  C   UNL     1      -1.830 -10.204  12.473  0.00  0.00    +0.029 A 
ATOM     22  C   UNL     1      -2.353 -10.665  12.033  0.00  0.00    +0.004 A 
ATOM     23  C   UNL     1      -2.224 -10.504  11.233  0.00  0.00    +0.007 A 
ATOM     24  C   UNL     1      -1.622  -9.942  11.181  0.00  0.00    +0.035 A 
ATOM     25  S   UNL     1      -1.379  -9.757  11.947  0.00  0.00    -0.089 S 
ENDBRANCH  20  21
ENDBRANCH  19  20
ENDBRANCH  16  17
ENDBRANCH  15  16
ENDBRANCH  14  15
TORSDOF 7
ENDMDL
