REMARK  Name = 
REMARK  4 active torsions:
REMARK  status: ('A' for Active; 'I' for Inactive)
REMARK    1  A    between atoms: O_2  and  C_3
REMARK    2  A    between atoms: C_8  and  C_9
REMARK    3  A    between atoms: C_12  and  C_14
REMARK    4  A    between atoms: C_23  and  C_25
REMARK                            x       y       z     vdW  Elec       q    Type
REMARK                         _______ _______ _______ _____ _____    ______ ____
ROOT
ATOM     14  C   UNL     1       1.127  -4.977   0.000  0.00  0.00    +0.100 C 
ATOM     15  C   UNL     1       1.382  -5.762   0.000  0.00  0.00    +0.033 C 
ATOM     16  C   UNL     1       0.715  -6.247   0.000  0.00  0.00    +0.094 C 
ATOM     17  N   UNL     1       0.047  -5.762   0.000  0.00  0.00    -0.278 N 
ATOM     18  C   UNL     1       0.302  -4.977   0.000  0.00  0.00    +0.103 C 
ATOM     19  C   UNL     1      -0.738  -6.017   0.000  0.00  0.00    +0.220 A 
ATOM     20  N   UNL     1      -0.909  -6.824   0.000  0.00  0.00    -0.212 NA
ATOM     21  C   UNL     1      -1.694  -7.079   0.000  0.00  0.00    +0.103 A 
ATOM     22  C   UNL     1      -2.307  -6.527   0.000  0.00  0.00    +0.044 A 
ATOM     23  C   UNL     1      -2.135  -5.720   0.000  0.00  0.00    +0.157 A 
ATOM     24  N   UNL     1      -1.351  -5.465   0.000  0.00  0.00    -0.210 NA
ENDROOT
BRANCH  14  12
ATOM      9  C   UNL     1       2.024  -3.041   0.000  0.00  0.00    +0.252 A 
ATOM     10  N   UNL     1       2.692  -3.525   0.000  0.00  0.00    -0.107 NA
ATOM     11  N   UNL     1       2.437  -4.310   0.000  0.00  0.00    -0.111 NA
ATOM     12  C   UNL     1       1.612  -4.310   0.000  0.00  0.00    +0.228 A 
ATOM     13  O   UNL     1       1.357  -3.525   0.000  0.00  0.00    -0.419 OA
BRANCH   9   8
ATOM      3  C   UNL     1       1.310  -1.803   0.000  0.00  0.00    +0.143 A 
ATOM      4  C   UNL     1       1.310  -0.978   0.000  0.00  0.00    +0.037 A 
ATOM      5  C   UNL     1       2.024  -0.566   0.000  0.00  0.00    +0.003 A 
ATOM      6  C   UNL     1       2.739  -0.978   0.000  0.00  0.00    +0.000 A 
ATOM      7  C   UNL     1       2.739  -1.803   0.000  0.00  0.00    +0.008 A 
ATOM      8  C   UNL     1       2.024  -2.216   0.000  0.00  0.00    +0.089 A 
BRANCH   3   2
ATOM      1  C   UNL     1      -0.119  -1.803   0.000  0.00  0.00    +0.252 C 
ATOM      2  O   UNL     1       0.596  -2.216   0.000  0.00  0.00    -0.471 OA
ENDBRANCH   3   2
ENDBRANCH   9   8
ENDBRANCH  14  12
BRANCH  23  25
ATOM     25  C   UNL     1      -2.748  -5.168   0.000  0.00  0.00    +0.435 C 
ATOM     26  F   UNL     1      -3.361  -4.616   0.000  0.00  0.00    -0.164 F 
ATOM     27  F   UNL     1      -2.196  -4.555   0.000  0.00  0.00    -0.164 F 
ATOM     28  F   UNL     1      -3.300  -5.781   0.000  0.00  0.00    -0.164 F 
ENDBRANCH  23  25
TORSDOF 4
