MODEL 1
REMARK VINA RESULT:     -13.9      0.000      0.000
REMARK  Name = 
REMARK  3 active torsions:
REMARK  status: ('A' for Active; 'I' for Inactive)
REMARK    1  A    between atoms: C_5  and  N_6
REMARK    2  A    between atoms: C_14  and  C_15
REMARK    3  A    between atoms: C_17  and  C_20
REMARK                            x       y       z     vdW  Elec       q    Type
REMARK                         _______ _______ _______ _____ _____    ______ ____
ROOT
ATOM      6  N   UNL     1      -4.396   0.016  24.910  0.00  0.00    -0.162 NA
ATOM      7  C   UNL     1      -3.930   0.649  24.658  0.00  0.00    +0.328 C 
ATOM      8  O   UNL     1      -3.219   0.505  24.265  0.00  0.00    -0.250 OA
ATOM      9  N   UNL     1      -4.176   1.423  24.798  0.00  0.00    -0.249 N 
ATOM     10  C   UNL     1      -4.886   1.565  25.191  0.00  0.00    +0.143 C 
ATOM     11  C   UNL     1      -5.133   2.340  25.332  0.00  0.00    +0.094 A 
ATOM     12  C   UNL     1      -4.667   2.973  25.080  0.00  0.00    +0.078 A 
ATOM     13  C   UNL     1      -3.955   2.830  24.686  0.00  0.00    +0.077 C 
ATOM     14  C   UNL     1      -3.710   2.055  24.546  0.00  0.00    +0.162 C 
ATOM     26  N   UNL     1      -5.048   3.672  25.294  0.00  0.00    -0.227 NA
ATOM     27  C   UNL     1      -5.749   3.472  25.679  0.00  0.00    +0.198 A 
ATOM     28  N   UNL     1      -5.801   2.649  25.702  0.00  0.00    -0.225 NA
ENDROOT
BRANCH   6   5
ATOM      1 CL   UNL     1      -3.414  -3.084  24.348  0.00  0.00    -0.082 Cl
ATOM      2  C   UNL     1      -3.659  -2.310  24.488  0.00  0.00    +0.058 A 
ATOM      3  C   UNL     1      -4.121  -1.915  23.930  0.00  0.00    +0.013 A 
ATOM      4  C   UNL     1      -4.367  -1.141  24.070  0.00  0.00    +0.018 A 
ATOM      5  C   UNL     1      -4.150  -0.760  24.769  0.00  0.00    +0.075 A 
ATOM     29  C   UNL     1      -3.688  -1.153  25.328  0.00  0.00    +0.018 A 
ATOM     30  C   UNL     1      -3.443  -1.929  25.187  0.00  0.00    +0.013 A 
ENDBRANCH   6   5
BRANCH  14  15
ATOM     15  C   UNL     1      -2.998   1.914  24.153  0.00  0.00    +0.255 A 
ATOM     16  N   UNL     1      -2.249   1.898  24.496  0.00  0.00    -0.189 NA
ATOM     17  C   UNL     1      -1.699   1.737  23.903  0.00  0.00    +0.203 A 
ATOM     18  N   UNL     1      -2.109   1.653  23.192  0.00  0.00    -0.056 NA
ATOM     19  O   UNL     1      -2.912   1.762  23.346  0.00  0.00    -0.335 OA
BRANCH  17  20
ATOM     20  C   UNL     1      -0.882   1.672  24.003  0.00  0.00    +0.039 A 
ATOM     21  C   UNL     1      -0.454   2.301  24.322  0.00  0.00    +0.003 A 
ATOM     22  C   UNL     1       0.362   2.235  24.422  0.00  0.00    +0.000 A 
ATOM     23  C   UNL     1       0.750   1.541  24.202  0.00  0.00    +0.000 A 
ATOM     24  C   UNL     1       0.322   0.912  23.883  0.00  0.00    +0.000 A 
ATOM     25  C   UNL     1      -0.495   0.977  23.783  0.00  0.00    +0.003 A 
ENDBRANCH  17  20
ENDBRANCH  14  15
TORSDOF 3
ENDMDL
MODEL 2
REMARK VINA RESULT:     -13.9      1.426      3.710
REMARK  Name = 
REMARK  3 active torsions:
REMARK  status: ('A' for Active; 'I' for Inactive)
REMARK    1  A    between atoms: C_5  and  N_6
REMARK    2  A    between atoms: C_14  and  C_15
REMARK    3  A    between atoms: C_17  and  C_20
REMARK                            x       y       z     vdW  Elec       q    Type
REMARK                         _______ _______ _______ _____ _____    ______ ____
ROOT
ATOM      6  N   UNL     1      -2.277   2.524  24.977  0.00  0.00    -0.162 NA
ATOM      7  C   UNL     1      -2.863   1.976  24.786  0.00  0.00    +0.328 C 
ATOM      8  O   UNL     1      -2.656   1.250  24.451  0.00  0.00    -0.250 OA
ATOM      9  N   UNL     1      -3.656   2.153  24.928  0.00  0.00    -0.249 N 
ATOM     10  C   UNL     1      -3.863   2.878  25.262  0.00  0.00    +0.143 C 
ATOM     11  C   UNL     1      -4.656   3.055  25.405  0.00  0.00    +0.094 A 
ATOM     12  C   UNL     1      -5.242   2.507  25.214  0.00  0.00    +0.078 A 
ATOM     13  C   UNL     1      -5.035   1.781  24.879  0.00  0.00    +0.077 C 
ATOM     14  C   UNL     1      -4.242   1.605  24.737  0.00  0.00    +0.162 C 
ATOM     26  N   UNL     1      -5.972   2.833  25.416  0.00  0.00    -0.227 NA
ATOM     27  C   UNL     1      -5.837   3.582  25.733  0.00  0.00    +0.198 A 
ATOM     28  N   UNL     1      -5.024   3.719  25.726  0.00  0.00    -0.225 NA
ENDROOT
BRANCH   6   5
ATOM      1 CL   UNL     1       0.895   1.817  24.406  0.00  0.00    -0.082 Cl
ATOM      2  C   UNL     1       0.103   1.993  24.549  0.00  0.00    +0.058 A 
ATOM      3  C   UNL     1      -0.252   1.761  25.257  0.00  0.00    +0.013 A 
ATOM      4  C   UNL     1      -1.044   1.937  25.400  0.00  0.00    +0.018 A 
ATOM      5  C   UNL     1      -1.484   2.347  24.834  0.00  0.00    +0.075 A 
ATOM     29  C   UNL     1      -1.131   2.580  24.126  0.00  0.00    +0.018 A 
ATOM     30  C   UNL     1      -0.337   2.403  23.983  0.00  0.00    +0.013 A 
ENDBRANCH   6   5
BRANCH  14  15
ATOM     15  C   UNL     1      -4.035   0.879  24.403  0.00  0.00    +0.255 A 
ATOM     16  N   UNL     1      -4.066   0.145  24.778  0.00  0.00    -0.189 NA
ATOM     17  C   UNL     1      -3.811  -0.427  24.241  0.00  0.00    +0.203 A 
ATOM     18  N   UNL     1      -3.623  -0.047  23.534  0.00  0.00    -0.056 NA
ATOM     19  O   UNL     1      -3.762   0.761  23.633  0.00  0.00    -0.335 OA
BRANCH  17  20
ATOM     20  C   UNL     1      -3.755  -1.237  24.387  0.00  0.00    +0.039 A 
ATOM     21  C   UNL     1      -3.315  -1.511  25.029  0.00  0.00    +0.003 A 
ATOM     22  C   UNL     1      -3.259  -2.322  25.174  0.00  0.00    +0.000 A 
ATOM     23  C   UNL     1      -3.642  -2.857  24.677  0.00  0.00    +0.000 A 
ATOM     24  C   UNL     1      -4.082  -2.583  24.035  0.00  0.00    +0.000 A 
ATOM     25  C   UNL     1      -4.138  -1.773  23.890  0.00  0.00    +0.003 A 
ENDBRANCH  17  20
ENDBRANCH  14  15
TORSDOF 3
ENDMDL
MODEL 3
REMARK VINA RESULT:     -13.4      1.763      4.566
REMARK  Name = 
REMARK  3 active torsions:
REMARK  status: ('A' for Active; 'I' for Inactive)
REMARK    1  A    between atoms: C_5  and  N_6
REMARK    2  A    between atoms: C_14  and  C_15
REMARK    3  A    between atoms: C_17  and  C_20
REMARK                            x       y       z     vdW  Elec       q    Type
REMARK                         _______ _______ _______ _____ _____    ______ ____
ROOT
ATOM      6  N   UNL     1      -2.762   2.568  24.811  0.00  0.00    -0.162 NA
ATOM      7  C   UNL     1      -2.512   1.783  24.855  0.00  0.00    +0.328 C 
ATOM      8  O   UNL     1      -3.045   1.192  25.072  0.00  0.00    -0.250 OA
ATOM      9  N   UNL     1      -1.730   1.589  24.680  0.00  0.00    -0.249 N 
ATOM     10  C   UNL     1      -1.197   2.180  24.463  0.00  0.00    +0.143 C 
ATOM     11  C   UNL     1      -0.414   1.987  24.288  0.00  0.00    +0.094 A 
ATOM     12  C   UNL     1      -0.164   1.202  24.331  0.00  0.00    +0.078 A 
ATOM     13  C   UNL     1      -0.697   0.610  24.549  0.00  0.00    +0.077 C 
ATOM     14  C   UNL     1      -1.480   0.804  24.723  0.00  0.00    +0.162 C 
ATOM     26  N   UNL     1       0.635   1.177  24.130  0.00  0.00    -0.227 NA
ATOM     27  C   UNL     1       0.879   1.946  23.962  0.00  0.00    +0.198 A 
ATOM     28  N   UNL     1       0.231   2.446  24.060  0.00  0.00    -0.225 NA
ENDROOT
BRANCH   6   5
ATOM      1 CL   UNL     1      -5.892   3.344  25.510  0.00  0.00    -0.082 Cl
ATOM      2  C   UNL     1      -5.110   3.150  25.335  0.00  0.00    +0.058 A 
ATOM      3  C   UNL     1      -4.922   2.805  24.610  0.00  0.00    +0.013 A 
ATOM      4  C   UNL     1      -4.140   2.611  24.435  0.00  0.00    +0.018 A 
ATOM      5  C   UNL     1      -3.545   2.762  24.986  0.00  0.00    +0.075 A 
ATOM     29  C   UNL     1      -3.732   3.107  25.711  0.00  0.00    +0.018 A 
ATOM     30  C   UNL     1      -4.515   3.301  25.886  0.00  0.00    +0.013 A 
ENDBRANCH   6   5
BRANCH  14  15
ATOM     15  C   UNL     1      -2.012   0.213  24.941  0.00  0.00    +0.255 A 
ATOM     16  N   UNL     1      -2.357  -0.340  24.435  0.00  0.00    -0.189 NA
ATOM     17  C   UNL     1      -2.851  -0.824  24.885  0.00  0.00    +0.203 A 
ATOM     18  N   UNL     1      -2.811  -0.571  25.668  0.00  0.00    -0.056 NA
ATOM     19  O   UNL     1      -2.292   0.070  25.704  0.00  0.00    -0.335 OA
BRANCH  17  20
ATOM     20  C   UNL     1      -3.305  -1.452  24.600  0.00  0.00    +0.039 A 
ATOM     21  C   UNL     1      -3.120  -2.226  24.814  0.00  0.00    +0.003 A 
ATOM     22  C   UNL     1      -3.574  -2.853  24.529  0.00  0.00    +0.000 A 
ATOM     23  C   UNL     1      -4.213  -2.705  24.029  0.00  0.00    +0.000 A 
ATOM     24  C   UNL     1      -4.399  -1.930  23.815  0.00  0.00    +0.000 A 
ATOM     25  C   UNL     1      -3.945  -1.303  24.100  0.00  0.00    +0.003 A 
ENDBRANCH  17  20
ENDBRANCH  14  15
TORSDOF 3
ENDMDL
MODEL 4
REMARK VINA RESULT:     -12.9      2.264      5.096
REMARK  Name = 
REMARK  3 active torsions:
REMARK  status: ('A' for Active; 'I' for Inactive)
REMARK    1  A    between atoms: C_5  and  N_6
REMARK    2  A    between atoms: C_14  and  C_15
REMARK    3  A    between atoms: C_17  and  C_20
REMARK                            x       y       z     vdW  Elec       q    Type
REMARK                         _______ _______ _______ _____ _____    ______ ____
ROOT
ATOM      6  N   UNL     1      -0.881   1.861  24.972  0.00  0.00    -0.162 NA
ATOM      7  C   UNL     1      -1.592   1.478  24.802  0.00  0.00    +0.328 C 
ATOM      8  O   UNL     1      -2.264   1.921  24.620  0.00  0.00    -0.250 OA
ATOM      9  N   UNL     1      -1.630   0.655  24.813  0.00  0.00    -0.249 N 
ATOM     10  C   UNL     1      -0.958   0.213  24.995  0.00  0.00    +0.143 C 
ATOM     11  C   UNL     1      -0.996  -0.611  25.007  0.00  0.00    +0.094 A 
ATOM     12  C   UNL     1      -1.707  -0.993  24.836  0.00  0.00    +0.078 A 
ATOM     13  C   UNL     1      -2.380  -0.551  24.654  0.00  0.00    +0.077 C 
ATOM     14  C   UNL     1      -2.341   0.273  24.643  0.00  0.00    +0.162 C 
ATOM     26  N   UNL     1      -1.578  -1.806  24.890  0.00  0.00    -0.227 NA
ATOM     27  C   UNL     1      -0.788  -1.926  25.093  0.00  0.00    +0.198 A 
ATOM     28  N   UNL     1      -0.429  -1.188  25.166  0.00  0.00    -0.225 NA
ENDROOT
BRANCH   6   5
ATOM      1 CL   UNL     1      -0.727   5.157  24.926  0.00  0.00    -0.082 Cl
ATOM      2  C   UNL     1      -0.765   4.333  24.937  0.00  0.00    +0.058 A 
ATOM      3  C   UNL     1      -1.010   3.941  25.621  0.00  0.00    +0.013 A 
ATOM      4  C   UNL     1      -1.049   3.118  25.633  0.00  0.00    +0.018 A 
ATOM      5  C   UNL     1      -0.843   2.685  24.961  0.00  0.00    +0.075 A 
ATOM     29  C   UNL     1      -0.598   3.077  24.277  0.00  0.00    +0.018 A 
ATOM     30  C   UNL     1      -0.559   3.901  24.266  0.00  0.00    +0.013 A 
ENDBRANCH   6   5
BRANCH  14  15
ATOM     15  C   UNL     1      -3.014   0.714  24.461  0.00  0.00    +0.255 A 
ATOM     16  N   UNL     1      -3.605   0.939  24.990  0.00  0.00    -0.189 NA
ATOM     17  C   UNL     1      -4.170   1.372  24.573  0.00  0.00    +0.203 A 
ATOM     18  N   UNL     1      -3.928   1.414  23.786  0.00  0.00    -0.056 NA
ATOM     19  O   UNL     1      -3.213   1.008  23.716  0.00  0.00    -0.335 OA
BRANCH  17  20
ATOM     20  C   UNL     1      -4.857   1.703  24.888  0.00  0.00    +0.039 A 
ATOM     21  C   UNL     1      -5.552   1.261  24.919  0.00  0.00    +0.003 A 
ATOM     22  C   UNL     1      -6.239   1.593  25.234  0.00  0.00    +0.000 A 
ATOM     23  C   UNL     1      -6.229   2.367  25.520  0.00  0.00    +0.000 A 
ATOM     24  C   UNL     1      -5.533   2.809  25.489  0.00  0.00    +0.000 A 
ATOM     25  C   UNL     1      -4.847   2.477  25.174  0.00  0.00    +0.003 A 
ENDBRANCH  17  20
ENDBRANCH  14  15
TORSDOF 3
ENDMDL
MODEL 5
REMARK VINA RESULT:     -12.6      1.161      3.785
REMARK  Name = 
REMARK  3 active torsions:
REMARK  status: ('A' for Active; 'I' for Inactive)
REMARK    1  A    between atoms: C_5  and  N_6
REMARK    2  A    between atoms: C_14  and  C_15
REMARK    3  A    between atoms: C_17  and  C_20
REMARK                            x       y       z     vdW  Elec       q    Type
REMARK                         _______ _______ _______ _____ _____    ______ ____
ROOT
ATOM      6  N   UNL     1      -1.820  -0.495  24.723  0.00  0.00    -0.162 NA
ATOM      7  C   UNL     1      -2.142   0.247  24.562  0.00  0.00    +0.328 C 
ATOM      8  O   UNL     1      -2.959   0.334  24.488  0.00  0.00    -0.250 OA
ATOM      9  N   UNL     1      -1.647   0.901  24.475  0.00  0.00    -0.249 N 
ATOM     10  C   UNL     1      -0.831   0.813  24.548  0.00  0.00    +0.143 C 
ATOM     11  C   UNL     1      -0.335   1.467  24.461  0.00  0.00    +0.094 A 
ATOM     12  C   UNL     1      -0.657   2.209  24.300  0.00  0.00    +0.078 A 
ATOM     13  C   UNL     1      -1.475   2.297  24.226  0.00  0.00    +0.077 C 
ATOM     14  C   UNL     1      -1.969   1.643  24.313  0.00  0.00    +0.162 C 
ATOM     26  N   UNL     1      -0.037   2.749  24.243  0.00  0.00    -0.227 NA
ATOM     27  C   UNL     1       0.669   2.342  24.369  0.00  0.00    +0.198 A 
ATOM     28  N   UNL     1       0.484   1.549  24.504  0.00  0.00    -0.225 NA
ENDROOT
BRANCH   6   5
ATOM      1 CL   UNL     1      -3.799  -3.113  25.072  0.00  0.00    -0.082 Cl
ATOM      2  C   UNL     1      -3.304  -2.459  24.985  0.00  0.00    +0.058 A 
ATOM      3  C   UNL     1      -3.233  -1.910  25.597  0.00  0.00    +0.013 A 
ATOM      4  C   UNL     1      -2.739  -1.256  25.510  0.00  0.00    +0.018 A 
ATOM      5  C   UNL     1      -2.315  -1.150  24.811  0.00  0.00    +0.075 A 
ATOM     29  C   UNL     1      -2.385  -1.698  24.198  0.00  0.00    +0.018 A 
ATOM     30  C   UNL     1      -2.880  -2.353  24.285  0.00  0.00    +0.013 A 
ENDBRANCH   6   5
BRANCH  14  15
ATOM     15  C   UNL     1      -2.786   1.731  24.239  0.00  0.00    +0.255 A 
ATOM     16  N   UNL     1      -3.298   2.017  24.819  0.00  0.00    -0.189 NA
ATOM     17  C   UNL     1      -4.063   2.012  24.509  0.00  0.00    +0.203 A 
ATOM     18  N   UNL     1      -4.024   1.723  23.738  0.00  0.00    -0.056 NA
ATOM     19  O   UNL     1      -3.234   1.549  23.570  0.00  0.00    -0.335 OA
BRANCH  17  20
ATOM     20  C   UNL     1      -4.747   2.254  24.903  0.00  0.00    +0.039 A 
ATOM     21  C   UNL     1      -5.384   1.735  24.979  0.00  0.00    +0.003 A 
ATOM     22  C   UNL     1      -6.068   1.978  25.373  0.00  0.00    +0.000 A 
ATOM     23  C   UNL     1      -6.113   2.738  25.690  0.00  0.00    +0.000 A 
ATOM     24  C   UNL     1      -5.476   3.256  25.614  0.00  0.00    +0.000 A 
ATOM     25  C   UNL     1      -4.792   3.014  25.220  0.00  0.00    +0.003 A 
ENDBRANCH  17  20
ENDBRANCH  14  15
TORSDOF 3
ENDMDL
MODEL 6
REMARK VINA RESULT:     -12.4      2.381      4.313
REMARK  Name = 
REMARK  3 active torsions:
REMARK  status: ('A' for Active; 'I' for Inactive)
REMARK    1  A    between atoms: C_5  and  N_6
REMARK    2  A    between atoms: C_14  and  C_15
REMARK    3  A    between atoms: C_17  and  C_20
REMARK                            x       y       z     vdW  Elec       q    Type
REMARK                         _______ _______ _______ _____ _____    ______ ____
ROOT
ATOM      6  N   UNL     1      -1.376  -0.238  24.280  0.00  0.00    -0.162 NA
ATOM      7  C   UNL     1      -0.945   0.447  24.440  0.00  0.00    +0.328 C 
ATOM      8  O   UNL     1      -1.254   1.019  24.947  0.00  0.00    -0.250 OA
ATOM      9  N   UNL     1      -0.205   0.559  24.093  0.00  0.00    -0.249 N 
ATOM     10  C   UNL     1       0.104  -0.013  23.587  0.00  0.00    +0.143 C 
ATOM     11  C   UNL     1       0.844   0.098  23.240  0.00  0.00    +0.094 A 
ATOM     12  C   UNL     1       1.275   0.783  23.400  0.00  0.00    +0.078 A 
ATOM     13  C   UNL     1       0.966   1.356  23.908  0.00  0.00    +0.077 C 
ATOM     14  C   UNL     1       0.226   1.244  24.254  0.00  0.00    +0.162 C 
ATOM     26  N   UNL     1       1.984   0.742  22.981  0.00  0.00    -0.227 NA
ATOM     27  C   UNL     1       1.992   0.032  22.562  0.00  0.00    +0.198 A 
ATOM     28  N   UNL     1       1.287  -0.365  22.722  0.00  0.00    -0.225 NA
ENDROOT
BRANCH   6   5
ATOM      1 CL   UNL     1      -4.336  -0.688  25.666  0.00  0.00    -0.082 Cl
ATOM      2  C   UNL     1      -3.597  -0.575  25.320  0.00  0.00    +0.058 A 
ATOM      3  C   UNL     1      -3.530  -0.143  24.620  0.00  0.00    +0.013 A 
ATOM      4  C   UNL     1      -2.790  -0.030  24.274  0.00  0.00    +0.018 A 
ATOM      5  C   UNL     1      -2.116  -0.350  24.626  0.00  0.00    +0.075 A 
ATOM     29  C   UNL     1      -2.182  -0.783  25.326  0.00  0.00    +0.018 A 
ATOM     30  C   UNL     1      -2.923  -0.895  25.673  0.00  0.00    +0.013 A 
ENDBRANCH   6   5
BRANCH  14  15
ATOM     15  C   UNL     1      -0.082   1.817  24.761  0.00  0.00    +0.255 A 
ATOM     16  N   UNL     1      -0.457   2.515  24.533  0.00  0.00    -0.189 NA
ATOM     17  C   UNL     1      -0.677   2.922  25.217  0.00  0.00    +0.203 A 
ATOM     18  N   UNL     1      -0.437   2.475  25.867  0.00  0.00    -0.056 NA
ATOM     19  O   UNL     1      -0.070   1.791  25.586  0.00  0.00    -0.335 OA
BRANCH  17  20
ATOM     20  C   UNL     1      -1.067   3.648  25.244  0.00  0.00    +0.039 A 
ATOM     21  C   UNL     1      -0.707   4.322  24.934  0.00  0.00    +0.003 A 
ATOM     22  C   UNL     1      -1.099   5.049  24.962  0.00  0.00    +0.000 A 
ATOM     23  C   UNL     1      -1.849   5.100  25.300  0.00  0.00    +0.000 A 
ATOM     24  C   UNL     1      -2.209   4.426  25.611  0.00  0.00    +0.000 A 
ATOM     25  C   UNL     1      -1.818   3.700  25.583  0.00  0.00    +0.003 A 
ENDBRANCH  17  20
ENDBRANCH  14  15
TORSDOF 3
ENDMDL
MODEL 7
REMARK VINA RESULT:     -12.2      2.496      5.280
REMARK  Name = 
REMARK  3 active torsions:
REMARK  status: ('A' for Active; 'I' for Inactive)
REMARK    1  A    between atoms: C_5  and  N_6
REMARK    2  A    between atoms: C_14  and  C_15
REMARK    3  A    between atoms: C_17  and  C_20
REMARK                            x       y       z     vdW  Elec       q    Type
REMARK                         _______ _______ _______ _____ _____    ______ ____
ROOT
ATOM      6  N   UNL     1      -0.683   2.162  24.573  0.00  0.00    -0.162 NA
ATOM      7  C   UNL     1      -0.806   1.347  24.544  0.00  0.00    +0.328 C 
ATOM      8  O   UNL     1      -1.478   1.019  24.894  0.00  0.00    -0.250 OA
ATOM      9  N   UNL     1      -0.258   0.861  24.166  0.00  0.00    -0.249 N 
ATOM     10  C   UNL     1       0.413   1.189  23.817  0.00  0.00    +0.143 C 
ATOM     11  C   UNL     1       0.962   0.703  23.438  0.00  0.00    +0.094 A 
ATOM     12  C   UNL     1       0.839  -0.112  23.409  0.00  0.00    +0.078 A 
ATOM     13  C   UNL     1       0.167  -0.441  23.758  0.00  0.00    +0.077 C 
ATOM     14  C   UNL     1      -0.381   0.046  24.137  0.00  0.00    +0.162 C 
ATOM     26  N   UNL     1       1.470  -0.450  23.001  0.00  0.00    -0.227 NA
ATOM     27  C   UNL     1       1.983   0.155  22.777  0.00  0.00    +0.198 A 
ATOM     28  N   UNL     1       1.668   0.868  23.048  0.00  0.00    -0.225 NA
ENDROOT
BRANCH   6   5
ATOM      1 CL   UNL     1      -2.876   4.109  26.088  0.00  0.00    -0.082 Cl
ATOM      2  C   UNL     1      -2.328   3.623  25.710  0.00  0.00    +0.058 A 
ATOM      3  C   UNL     1      -2.460   3.378  24.932  0.00  0.00    +0.013 A 
ATOM      4  C   UNL     1      -1.913   2.892  24.554  0.00  0.00    +0.018 A 
ATOM      5  C   UNL     1      -1.232   2.649  24.952  0.00  0.00    +0.075 A 
ATOM     29  C   UNL     1      -1.099   2.893  25.729  0.00  0.00    +0.018 A 
ATOM     30  C   UNL     1      -1.648   3.380  26.108  0.00  0.00    +0.013 A 
ENDBRANCH   6   5
BRANCH  14  15
ATOM     15  C   UNL     1      -1.052  -0.284  24.486  0.00  0.00    +0.255 A 
ATOM     16  N   UNL     1      -1.691  -0.620  24.088  0.00  0.00    -0.189 NA
ATOM     17  C   UNL     1      -2.236  -0.879  24.651  0.00  0.00    +0.203 A 
ATOM     18  N   UNL     1      -1.933  -0.702  25.397  0.00  0.00    -0.056 NA
ATOM     19  O   UNL     1      -1.201  -0.334  25.296  0.00  0.00    -0.335 OA
BRANCH  17  20
ATOM     20  C   UNL     1      -2.956  -1.249  24.494  0.00  0.00    +0.039 A 
ATOM     21  C   UNL     1      -3.618  -0.798  24.300  0.00  0.00    +0.003 A 
ATOM     22  C   UNL     1      -4.339  -1.169  24.143  0.00  0.00    +0.000 A 
ATOM     23  C   UNL     1      -4.396  -1.991  24.181  0.00  0.00    +0.000 A 
ATOM     24  C   UNL     1      -3.734  -2.442  24.376  0.00  0.00    +0.000 A 
ATOM     25  C   UNL     1      -3.013  -2.072  24.532  0.00  0.00    +0.003 A 
ENDBRANCH  17  20
ENDBRANCH  14  15
TORSDOF 3
ENDMDL
MODEL 8
REMARK VINA RESULT:     -11.8      1.722      2.167
REMARK  Name = 
REMARK  3 active torsions:
REMARK  status: ('A' for Active; 'I' for Inactive)
REMARK    1  A    between atoms: C_5  and  N_6
REMARK    2  A    between atoms: C_14  and  C_15
REMARK    3  A    between atoms: C_17  and  C_20
REMARK                            x       y       z     vdW  Elec       q    Type
REMARK                         _______ _______ _______ _____ _____    ______ ____
ROOT
ATOM      6  N   UNL     1      -3.170  -0.004  25.154  0.00  0.00    -0.162 NA
ATOM      7  C   UNL     1      -3.185   0.784  24.908  0.00  0.00    +0.328 C 
ATOM      8  O   UNL     1      -2.485   1.159  24.684  0.00  0.00    -0.250 OA
ATOM      9  N   UNL     1      -3.899   1.195  24.886  0.00  0.00    -0.249 N 
ATOM     10  C   UNL     1      -4.598   0.820  25.109  0.00  0.00    +0.143 C 
ATOM     11  C   UNL     1      -5.313   1.231  25.087  0.00  0.00    +0.094 A 
ATOM     12  C   UNL     1      -5.328   2.018  24.842  0.00  0.00    +0.078 A 
ATOM     13  C   UNL     1      -4.628   2.395  24.618  0.00  0.00    +0.077 C 
ATOM     14  C   UNL     1      -3.914   1.982  24.640  0.00  0.00    +0.162 C 
ATOM     26  N   UNL     1      -6.109   2.282  24.876  0.00  0.00    -0.227 NA
ATOM     27  C   UNL     1      -6.577   1.657  25.143  0.00  0.00    +0.198 A 
ATOM     28  N   UNL     1      -6.085   1.008  25.273  0.00  0.00    -0.225 NA
ENDROOT
BRANCH   6   5
ATOM      1 CL   UNL     1      -0.312  -1.652  25.242  0.00  0.00    -0.082 Cl
ATOM      2  C   UNL     1      -1.026  -1.240  25.220  0.00  0.00    +0.058 A 
ATOM      3  C   UNL     1      -1.234  -0.741  25.843  0.00  0.00    +0.013 A 
ATOM      4  C   UNL     1      -1.948  -0.329  25.821  0.00  0.00    +0.018 A 
ATOM      5  C   UNL     1      -2.455  -0.416  25.176  0.00  0.00    +0.075 A 
ATOM     29  C   UNL     1      -2.248  -0.915  24.552  0.00  0.00    +0.018 A 
ATOM     30  C   UNL     1      -1.533  -1.327  24.575  0.00  0.00    +0.013 A 
ENDBRANCH   6   5
BRANCH  14  15
ATOM     15  C   UNL     1      -3.215   2.358  24.417  0.00  0.00    +0.255 A 
ATOM     16  N   UNL     1      -2.834   2.962  24.829  0.00  0.00    -0.189 NA
ATOM     17  C   UNL     1      -2.157   3.174  24.408  0.00  0.00    +0.203 A 
ATOM     18  N   UNL     1      -2.119   2.700  23.735  0.00  0.00    -0.056 NA
ATOM     19  O   UNL     1      -2.772   2.196  23.739  0.00  0.00    -0.335 OA
BRANCH  17  20
ATOM     20  C   UNL     1      -1.614   3.757  24.624  0.00  0.00    +0.039 A 
ATOM     21  C   UNL     1      -0.805   3.613  24.553  0.00  0.00    +0.003 A 
ATOM     22  C   UNL     1      -0.263   4.197  24.769  0.00  0.00    +0.000 A 
ATOM     23  C   UNL     1      -0.530   4.923  25.055  0.00  0.00    +0.000 A 
ATOM     24  C   UNL     1      -1.339   5.066  25.125  0.00  0.00    +0.000 A 
ATOM     25  C   UNL     1      -1.882   4.483  24.909  0.00  0.00    +0.003 A 
ENDBRANCH  17  20
ENDBRANCH  14  15
TORSDOF 3
ENDMDL
MODEL 9
REMARK VINA RESULT:     -11.7      2.063      3.507
REMARK  Name = 
REMARK  3 active torsions:
REMARK  status: ('A' for Active; 'I' for Inactive)
REMARK    1  A    between atoms: C_5  and  N_6
REMARK    2  A    between atoms: C_14  and  C_15
REMARK    3  A    between atoms: C_17  and  C_20
REMARK                            x       y       z     vdW  Elec       q    Type
REMARK                         _______ _______ _______ _____ _____    ______ ____
ROOT
ATOM      6  N   UNL     1      -3.812   3.248  25.088  0.00  0.00    -0.162 NA
ATOM      7  C   UNL     1      -3.105   2.874  24.888  0.00  0.00    +0.328 C 
ATOM      8  O   UNL     1      -3.100   2.067  24.715  0.00  0.00    -0.250 OA
ATOM      9  N   UNL     1      -2.404   3.307  24.860  0.00  0.00    -0.249 N 
ATOM     10  C   UNL     1      -2.409   4.113  25.033  0.00  0.00    +0.143 C 
ATOM     11  C   UNL     1      -1.707   4.546  25.005  0.00  0.00    +0.094 A 
ATOM     12  C   UNL     1      -1.000   4.172  24.805  0.00  0.00    +0.078 A 
ATOM     13  C   UNL     1      -0.994   3.364  24.632  0.00  0.00    +0.077 C 
ATOM     14  C   UNL     1      -1.696   2.932  24.660  0.00  0.00    +0.162 C 
ATOM     26  N   UNL     1      -0.399   4.736  24.822  0.00  0.00    -0.227 NA
ATOM     27  C   UNL     1      -0.734   5.459  25.034  0.00  0.00    +0.198 A 
ATOM     28  N   UNL     1      -1.543   5.341  25.147  0.00  0.00    -0.225 NA
ENDROOT
BRANCH   6   5
ATOM      1 CL   UNL     1      -6.621   1.519  25.199  0.00  0.00    -0.082 Cl
ATOM      2  C   UNL     1      -5.919   1.951  25.171  0.00  0.00    +0.058 A 
ATOM      3  C   UNL     1      -5.536   2.162  25.871  0.00  0.00    +0.013 A 
ATOM      4  C   UNL     1      -4.835   2.594  25.844  0.00  0.00    +0.018 A 
ATOM      5  C   UNL     1      -4.515   2.816  25.116  0.00  0.00    +0.075 A 
ATOM     29  C   UNL     1      -4.897   2.605  24.416  0.00  0.00    +0.018 A 
ATOM     30  C   UNL     1      -5.600   2.172  24.444  0.00  0.00    +0.013 A 
ENDBRANCH   6   5
BRANCH  14  15
ATOM     15  C   UNL     1      -1.690   2.126  24.487  0.00  0.00    +0.255 A 
ATOM     16  N   UNL     1      -1.426   1.524  24.985  0.00  0.00    -0.189 NA
ATOM     17  C   UNL     1      -1.520   0.805  24.591  0.00  0.00    +0.203 A 
ATOM     18  N   UNL     1      -1.843   0.963  23.848  0.00  0.00    -0.056 NA
ATOM     19  O   UNL     1      -1.948   1.779  23.783  0.00  0.00    -0.335 OA
BRANCH  17  20
ATOM     20  C   UNL     1      -1.326   0.061  24.887  0.00  0.00    +0.039 A 
ATOM     21  C   UNL     1      -0.676  -0.348  24.584  0.00  0.00    +0.003 A 
ATOM     22  C   UNL     1      -0.483  -1.093  24.882  0.00  0.00    +0.000 A 
ATOM     23  C   UNL     1      -0.938  -1.429  25.482  0.00  0.00    +0.000 A 
ATOM     24  C   UNL     1      -1.587  -1.020  25.785  0.00  0.00    +0.000 A 
ATOM     25  C   UNL     1      -1.782  -0.275  25.488  0.00  0.00    +0.003 A 
ENDBRANCH  17  20
ENDBRANCH  14  15
TORSDOF 3
ENDMDL
MODEL 10
REMARK VINA RESULT:     -11.4      1.386      1.979
REMARK  Name = 
REMARK  3 active torsions:
REMARK  status: ('A' for Active; 'I' for Inactive)
REMARK    1  A    between atoms: C_5  and  N_6
REMARK    2  A    between atoms: C_14  and  C_15
REMARK    3  A    between atoms: C_17  and  C_20
REMARK                            x       y       z     vdW  Elec       q    Type
REMARK                         _______ _______ _______ _____ _____    ______ ____
ROOT
ATOM      6  N   UNL     1      -3.623   0.884  24.828  0.00  0.00    -0.162 NA
ATOM      7  C   UNL     1      -2.841   1.137  24.905  0.00  0.00    +0.328 C 
ATOM      8  O   UNL     1      -2.222   0.605  24.788  0.00  0.00    -0.250 OA
ATOM      9  N   UNL     1      -2.680   1.922  25.098  0.00  0.00    -0.249 N 
ATOM     10  C   UNL     1      -3.299   2.454  25.214  0.00  0.00    +0.143 C 
ATOM     11  C   UNL     1      -3.138   3.240  25.408  0.00  0.00    +0.094 A 
ATOM     12  C   UNL     1      -2.356   3.494  25.485  0.00  0.00    +0.078 A 
ATOM     13  C   UNL     1      -1.736   2.961  25.368  0.00  0.00    +0.077 C 
ATOM     14  C   UNL     1      -1.899   2.176  25.175  0.00  0.00    +0.162 C 
ATOM     26  N   UNL     1      -2.366   4.295  25.678  0.00  0.00    -0.227 NA
ATOM     27  C   UNL     1      -3.153   4.537  25.721  0.00  0.00    +0.198 A 
ATOM     28  N   UNL     1      -3.630   3.885  25.554  0.00  0.00    -0.225 NA
ENDROOT
BRANCH   6   5
ATOM      1 CL   UNL     1      -4.271  -2.258  24.054  0.00  0.00    -0.082 Cl
ATOM      2  C   UNL     1      -4.109  -1.473  24.247  0.00  0.00    +0.058 A 
ATOM      3  C   UNL     1      -4.017  -1.253  25.037  0.00  0.00    +0.013 A 
ATOM      4  C   UNL     1      -3.855  -0.468  25.231  0.00  0.00    +0.018 A 
ATOM      5  C   UNL     1      -3.785   0.098  24.634  0.00  0.00    +0.075 A 
ATOM     29  C   UNL     1      -3.877  -0.121  23.844  0.00  0.00    +0.018 A 
ATOM     30  C   UNL     1      -4.039  -0.907  23.651  0.00  0.00    +0.013 A 
ENDBRANCH   6   5
BRANCH  14  15
ATOM     15  C   UNL     1      -1.279   1.644  25.059  0.00  0.00    +0.255 A 
ATOM     16  N   UNL     1      -0.843   1.550  24.365  0.00  0.00    -0.189 NA
ATOM     17  C   UNL     1      -0.280   0.961  24.494  0.00  0.00    +0.203 A 
ATOM     18  N   UNL     1      -0.369   0.690  25.267  0.00  0.00    -0.056 NA
ATOM     19  O   UNL     1      -0.986   1.112  25.617  0.00  0.00    -0.335 OA
BRANCH  17  20
ATOM     20  C   UNL     1       0.273   0.690  23.945  0.00  0.00    +0.039 A 
ATOM     21  C   UNL     1       0.183  -0.054  23.601  0.00  0.00    +0.003 A 
ATOM     22  C   UNL     1       0.737  -0.324  23.051  0.00  0.00    +0.000 A 
ATOM     23  C   UNL     1       1.380   0.150  22.847  0.00  0.00    +0.000 A 
ATOM     24  C   UNL     1       1.470   0.894  23.191  0.00  0.00    +0.000 A 
ATOM     25  C   UNL     1       0.917   1.165  23.740  0.00  0.00    +0.003 A 
ENDBRANCH  17  20
ENDBRANCH  14  15
TORSDOF 3
ENDMDL
