MODEL 1
REMARK VINA RESULT:      -9.8      0.000      0.000
REMARK  Name = 
REMARK  5 active torsions:
REMARK  status: ('A' for Active; 'I' for Inactive)
REMARK    1  A    between atoms: C_2  and  C_4
REMARK    2  A    between atoms: C_7  and  N_8
REMARK    3  A    between atoms: N_11  and  C_12
REMARK    4  A    between atoms: C_16  and  N_20
REMARK    5  A    between atoms: C_23  and  C_27
REMARK                            x       y       z     vdW  Elec       q    Type
REMARK                         _______ _______ _______ _____ _____    ______ ____
ROOT
ATOM     12  C   UNL     1      -0.072   0.273  23.457  0.00  0.00    +0.156 C 
ATOM     13  C   UNL     1      -0.205  -0.179  24.133  0.00  0.00    +0.166 C 
ATOM     14  O   UNL     1      -0.849   0.145  24.533  0.00  0.00    -0.350 OA
ATOM     15  C   UNL     1      -1.114   0.797  24.104  0.00  0.00    +0.166 C 
ATOM     16  C   UNL     1      -1.676   1.402  24.085  0.00  0.00    +0.154 C 
ATOM     17  C   UNL     1      -1.542   1.854  23.409  0.00  0.00    +0.166 C 
ATOM     18  O   UNL     1      -0.898   1.529  23.009  0.00  0.00    -0.350 OA
ATOM     19  C   UNL     1      -0.633   0.876  23.439  0.00  0.00    +0.166 C 
ENDROOT
BRANCH  16  20
ATOM     20  N   UNL     1      -2.267   1.531  24.646  0.00  0.00    -0.200 NA
ATOM     21  C   UNL     1      -2.958   1.930  24.433  0.00  0.00    +0.236 A 
ATOM     22  N   UNL     1      -3.549   2.059  24.993  0.00  0.00    -0.217 NA
ATOM     23  C   UNL     1      -4.239   2.457  24.781  0.00  0.00    +0.063 A 
ATOM     24  C   UNL     1      -4.338   2.727  24.007  0.00  0.00    +0.035 A 
ATOM     25  C   UNL     1      -3.746   2.598  23.446  0.00  0.00    +0.103 A 
ATOM     26  N   UNL     1      -3.056   2.199  23.660  0.00  0.00    -0.211 NA
BRANCH  23  27
ATOM     27  C   UNL     1      -4.831   2.587  25.340  0.00  0.00    +0.036 C 
ATOM     28  C   UNL     1      -5.423   2.716  25.901  0.00  0.00    +0.006 C 
ATOM     29  C   UNL     1      -4.499   3.319  25.522  0.00  0.00    +0.006 C 
ATOM     30  C   UNL     1      -5.163   1.853  25.158  0.00  0.00    +0.006 C 
ENDBRANCH  23  27
ENDBRANCH  16  20
BRANCH  12  11
ATOM      8  N   UNL     1       1.905   0.080  22.551  0.00  0.00    -0.161 NA
ATOM      9  C   UNL     1       1.314   0.209  23.111  0.00  0.00    +0.344 C 
ATOM     10  O   UNL     1       1.515   0.403  23.888  0.00  0.00    -0.249 OA
ATOM     11  N   UNL     1       0.520   0.144  22.896  0.00  0.00    -0.184 NA
BRANCH   8   7
ATOM      4  C   UNL     1       4.287   0.274  23.197  0.00  0.00    +0.035 A 
ATOM      5  C   UNL     1       3.890  -0.444  23.292  0.00  0.00    +0.004 A 
ATOM      6  C   UNL     1       3.097  -0.508  23.077  0.00  0.00    +0.017 A 
ATOM      7  C   UNL     1       2.699   0.145  22.766  0.00  0.00    +0.075 A 
ATOM     31  C   UNL     1       3.095   0.861  22.671  0.00  0.00    +0.017 A 
ATOM     32  C   UNL     1       3.889   0.926  22.886  0.00  0.00    +0.004 A 
BRANCH   4   2
ATOM      1  C   UNL     1       5.640  -0.168  23.078  0.00  0.00    +0.077 C 
ATOM      2  C   UNL     1       5.080   0.338  23.412  0.00  0.00    +0.173 C 
ATOM      3  O   UNL     1       5.315   0.907  23.961  0.00  0.00    -0.291 OA
ENDBRANCH   4   2
ENDBRANCH   8   7
ENDBRANCH  12  11
TORSDOF 5
ENDMDL
MODEL 2
REMARK VINA RESULT:      -9.3      1.389      7.201
REMARK  Name = 
REMARK  5 active torsions:
REMARK  status: ('A' for Active; 'I' for Inactive)
REMARK    1  A    between atoms: C_2  and  C_4
REMARK    2  A    between atoms: C_7  and  N_8
REMARK    3  A    between atoms: N_11  and  C_12
REMARK    4  A    between atoms: C_16  and  N_20
REMARK    5  A    between atoms: C_23  and  C_27
REMARK                            x       y       z     vdW  Elec       q    Type
REMARK                         _______ _______ _______ _____ _____    ______ ____
ROOT
ATOM     12  C   UNL     1      -1.211   1.370  23.615  0.00  0.00    +0.156 C 
ATOM     13  C   UNL     1      -0.877   2.045  23.952  0.00  0.00    +0.166 C 
ATOM     14  O   UNL     1      -0.066   1.916  24.030  0.00  0.00    -0.350 OA
ATOM     15  C   UNL     1       0.101   1.163  23.741  0.00  0.00    +0.166 C 
ATOM     16  C   UNL     1       0.706   0.616  23.609  0.00  0.00    +0.154 C 
ATOM     17  C   UNL     1       0.372  -0.058  23.271  0.00  0.00    +0.166 C 
ATOM     18  O   UNL     1      -0.439   0.071  23.194  0.00  0.00    -0.350 OA
ATOM     19  C   UNL     1      -0.606   0.825  23.484  0.00  0.00    +0.166 C 
ENDROOT
BRANCH  16  20
ATOM     20  N   UNL     1       1.505   0.726  23.785  0.00  0.00    -0.200 NA
ATOM     21  C   UNL     1       2.082   0.506  23.238  0.00  0.00    +0.236 A 
ATOM     22  N   UNL     1       2.880   0.615  23.414  0.00  0.00    -0.217 NA
ATOM     23  C   UNL     1       3.457   0.395  22.867  0.00  0.00    +0.063 A 
ATOM     24  C   UNL     1       3.236   0.064  22.144  0.00  0.00    +0.035 A 
ATOM     25  C   UNL     1       2.437  -0.045  21.968  0.00  0.00    +0.103 A 
ATOM     26  N   UNL     1       1.860   0.175  22.516  0.00  0.00    -0.211 NA
BRANCH  23  27
ATOM     27  C   UNL     1       4.255   0.505  23.042  0.00  0.00    +0.036 C 
ATOM     28  C   UNL     1       5.054   0.615  23.218  0.00  0.00    +0.006 C 
ATOM     29  C   UNL     1       4.275  -0.232  23.412  0.00  0.00    +0.006 C 
ATOM     30  C   UNL     1       4.235   1.242  22.672  0.00  0.00    +0.006 C 
ENDBRANCH  23  27
ENDBRANCH  16  20
BRANCH  12  11
ATOM      8  N   UNL     1      -3.387   1.448  23.770  0.00  0.00    -0.161 NA
ATOM      9  C   UNL     1      -2.589   1.558  23.946  0.00  0.00    +0.344 C 
ATOM     10  O   UNL     1      -2.368   1.966  24.629  0.00  0.00    -0.249 OA
ATOM     11  N   UNL     1      -2.010   1.260  23.439  0.00  0.00    -0.184 NA
BRANCH   8   7
ATOM      4  C   UNL     1      -5.124   2.341  25.291  0.00  0.00    +0.035 A 
ATOM      5  C   UNL     1      -4.914   1.544  25.327  0.00  0.00    +0.004 A 
ATOM      6  C   UNL     1      -4.335   1.247  24.820  0.00  0.00    +0.017 A 
ATOM      7  C   UNL     1      -3.966   1.746  24.277  0.00  0.00    +0.075 A 
ATOM     31  C   UNL     1      -4.176   2.543  24.241  0.00  0.00    +0.017 A 
ATOM     32  C   UNL     1      -4.755   2.841  24.748  0.00  0.00    +0.004 A 
BRANCH   4   2
ATOM      1  C   UNL     1      -6.211   2.120  26.192  0.00  0.00    +0.077 C 
ATOM      2  C   UNL     1      -5.703   2.638  25.797  0.00  0.00    +0.173 C 
ATOM      3  O   UNL     1      -5.775   3.452  25.911  0.00  0.00    -0.291 OA
ENDBRANCH   4   2
ENDBRANCH   8   7
ENDBRANCH  12  11
TORSDOF 5
ENDMDL
MODEL 3
REMARK VINA RESULT:      -7.5     17.447     18.069
REMARK  Name = 
REMARK  5 active torsions:
REMARK  status: ('A' for Active; 'I' for Inactive)
REMARK    1  A    between atoms: C_2  and  C_4
REMARK    2  A    between atoms: C_7  and  N_8
REMARK    3  A    between atoms: N_11  and  C_12
REMARK    4  A    between atoms: C_16  and  N_20
REMARK    5  A    between atoms: C_23  and  C_27
REMARK                            x       y       z     vdW  Elec       q    Type
REMARK                         _______ _______ _______ _____ _____    ______ ____
ROOT
ATOM     12  C   UNL     1      -6.492  -9.741  10.355  0.00  0.00    +0.156 C 
ATOM     13  C   UNL     1      -6.802  -9.394  11.036  0.00  0.00    +0.166 C 
ATOM     14  O   UNL     1      -7.432  -8.911  10.811  0.00  0.00    -0.350 OA
ATOM     15  C   UNL     1      -7.511  -8.960   9.992  0.00  0.00    +0.166 C 
ATOM     16  C   UNL     1      -7.949  -8.693   9.346  0.00  0.00    +0.154 C 
ATOM     17  C   UNL     1      -7.639  -9.040   8.665  0.00  0.00    +0.166 C 
ATOM     18  O   UNL     1      -7.010  -9.523   8.890  0.00  0.00    -0.350 OA
ATOM     19  C   UNL     1      -6.930  -9.473   9.710  0.00  0.00    +0.166 C 
ENDROOT
BRANCH  16  20
ATOM     20  N   UNL     1      -8.586  -8.169   9.376  0.00  0.00    -0.200 NA
ATOM     21  C   UNL     1      -8.549  -7.450   8.973  0.00  0.00    +0.236 A 
ATOM     22  N   UNL     1      -9.185  -6.926   9.003  0.00  0.00    -0.217 NA
ATOM     23  C   UNL     1      -9.148  -6.207   8.601  0.00  0.00    +0.063 A 
ATOM     24  C   UNL     1      -8.473  -6.011   8.168  0.00  0.00    +0.035 A 
ATOM     25  C   UNL     1      -7.836  -6.535   8.138  0.00  0.00    +0.103 A 
ATOM     26  N   UNL     1      -7.874  -7.254   8.541  0.00  0.00    -0.211 NA
BRANCH  23  27
ATOM     27  C   UNL     1      -9.784  -5.683   8.631  0.00  0.00    +0.036 C 
ATOM     28  C   UNL     1     -10.421  -5.159   8.661  0.00  0.00    +0.006 C 
ATOM     29  C   UNL     1      -9.266  -5.064   8.802  0.00  0.00    +0.006 C 
ATOM     30  C   UNL     1     -10.301  -6.303   8.459  0.00  0.00    +0.006 C 
ENDBRANCH  23  27
ENDBRANCH  16  20
BRANCH  12  11
ATOM      8  N   UNL     1      -4.477 -10.553  10.569  0.00  0.00    -0.161 NA
ATOM      9  C   UNL     1      -5.113 -10.030  10.599  0.00  0.00    +0.344 C 
ATOM     10  O   UNL     1      -5.009  -9.269  10.903  0.00  0.00    -0.249 OA
ATOM     11  N   UNL     1      -5.855 -10.265  10.325  0.00  0.00    -0.184 NA
BRANCH   8   7
ATOM      4  C   UNL     1      -2.252  -9.846  11.392  0.00  0.00    +0.035 A 
ATOM      5  C   UNL     1      -2.752 -10.286  11.880  0.00  0.00    +0.004 A 
ATOM      6  C   UNL     1      -3.493 -10.521  11.605  0.00  0.00    +0.017 A 
ATOM      7  C   UNL     1      -3.735 -10.317  10.843  0.00  0.00    +0.075 A 
ATOM     31  C   UNL     1      -3.235  -9.878  10.356  0.00  0.00    +0.017 A 
ATOM     32  C   UNL     1      -2.493  -9.642  10.630  0.00  0.00    +0.004 A 
BRANCH   4   2
ATOM      1  C   UNL     1      -1.027  -9.137  11.195  0.00  0.00    +0.077 C 
ATOM      2  C   UNL     1      -1.510  -9.611  11.667  0.00  0.00    +0.173 C 
ATOM      3  O   UNL     1      -1.252  -9.850  12.413  0.00  0.00    -0.291 OA
ENDBRANCH   4   2
ENDBRANCH   8   7
ENDBRANCH  12  11
TORSDOF 5
ENDMDL
MODEL 4
REMARK VINA RESULT:      -7.4     17.517     19.216
REMARK  Name = 
REMARK  5 active torsions:
REMARK  status: ('A' for Active; 'I' for Inactive)
REMARK    1  A    between atoms: C_2  and  C_4
REMARK    2  A    between atoms: C_7  and  N_8
REMARK    3  A    between atoms: N_11  and  C_12
REMARK    4  A    between atoms: C_16  and  N_20
REMARK    5  A    between atoms: C_23  and  C_27
REMARK                            x       y       z     vdW  Elec       q    Type
REMARK                         _______ _______ _______ _____ _____    ______ ____
ROOT
ATOM     12  C   UNL     1      -7.025  -9.321   9.530  0.00  0.00    +0.156 C 
ATOM     13  C   UNL     1      -7.209  -9.290  10.333  0.00  0.00    +0.166 C 
ATOM     14  O   UNL     1      -6.581  -9.624  10.751  0.00  0.00    -0.350 OA
ATOM     15  C   UNL     1      -6.009  -9.861  10.206  0.00  0.00    +0.166 C 
ATOM     16  C   UNL     1      -5.268 -10.214  10.126  0.00  0.00    +0.154 C 
ATOM     17  C   UNL     1      -5.084 -10.245   9.323  0.00  0.00    +0.166 C 
ATOM     18  O   UNL     1      -5.712  -9.910   8.905  0.00  0.00    -0.350 OA
ATOM     19  C   UNL     1      -6.284  -9.673   9.451  0.00  0.00    +0.166 C 
ENDROOT
BRANCH  16  20
ATOM     20  N   UNL     1      -4.793 -10.489  10.743  0.00  0.00    -0.200 NA
ATOM     21  C   UNL     1      -4.022 -10.208  10.826  0.00  0.00    +0.236 A 
ATOM     22  N   UNL     1      -3.547 -10.482  11.442  0.00  0.00    -0.217 NA
ATOM     23  C   UNL     1      -2.776 -10.202  11.526  0.00  0.00    +0.063 A 
ATOM     24  C   UNL     1      -2.479  -9.647  10.992  0.00  0.00    +0.035 A 
ATOM     25  C   UNL     1      -2.954  -9.372  10.376  0.00  0.00    +0.103 A 
ATOM     26  N   UNL     1      -3.725  -9.653  10.293  0.00  0.00    -0.211 NA
BRANCH  23  27
ATOM     27  C   UNL     1      -2.301 -10.476  12.142  0.00  0.00    +0.036 C 
ATOM     28  C   UNL     1      -1.826 -10.750  12.758  0.00  0.00    +0.006 C 
ATOM     29  C   UNL     1      -2.965 -10.536  12.626  0.00  0.00    +0.006 C 
ATOM     30  C   UNL     1      -1.636 -10.415  11.656  0.00  0.00    +0.006 C 
ENDBRANCH  23  27
ENDBRANCH  16  20
BRANCH  12  11
ATOM      8  N   UNL     1      -8.344  -8.036   8.356  0.00  0.00    -0.161 NA
ATOM      9  C   UNL     1      -7.869  -8.311   8.972  0.00  0.00    +0.344 C 
ATOM     10  O   UNL     1      -7.764  -7.850   9.649  0.00  0.00    -0.249 OA
ATOM     11  N   UNL     1      -7.500  -9.046   8.913  0.00  0.00    -0.184 NA
BRANCH   8   7
ATOM      4  C   UNL     1      -9.451  -5.830   8.533  0.00  0.00    +0.035 A 
ATOM      5  C   UNL     1      -8.707  -5.891   8.182  0.00  0.00    +0.004 A 
ATOM      6  C   UNL     1      -8.338  -6.627   8.124  0.00  0.00    +0.017 A 
ATOM      7  C   UNL     1      -8.713  -7.301   8.416  0.00  0.00    +0.075 A 
ATOM     31  C   UNL     1      -9.457  -7.239   8.766  0.00  0.00    +0.017 A 
ATOM     32  C   UNL     1      -9.826  -6.504   8.825  0.00  0.00    +0.004 A 
BRANCH   4   2
ATOM      1  C   UNL     1     -10.629  -5.026   8.445  0.00  0.00    +0.077 C 
ATOM      2  C   UNL     1      -9.820  -5.094   8.592  0.00  0.00    +0.173 C 
ATOM      3  O   UNL     1      -9.380  -4.427   8.797  0.00  0.00    -0.291 OA
ENDBRANCH   4   2
ENDBRANCH   8   7
ENDBRANCH  12  11
TORSDOF 5
ENDMDL
MODEL 5
REMARK VINA RESULT:      -7.1      3.351      5.220
REMARK  Name = 
REMARK  5 active torsions:
REMARK  status: ('A' for Active; 'I' for Inactive)
REMARK    1  A    between atoms: C_2  and  C_4
REMARK    2  A    between atoms: C_7  and  N_8
REMARK    3  A    between atoms: N_11  and  C_12
REMARK    4  A    between atoms: C_16  and  N_20
REMARK    5  A    between atoms: C_23  and  C_27
REMARK                            x       y       z     vdW  Elec       q    Type
REMARK                         _______ _______ _______ _____ _____    ______ ____
ROOT
ATOM     12  C   UNL     1      -0.254   0.895  24.644  0.00  0.00    +0.156 C 
ATOM     13  C   UNL     1      -0.248   0.643  23.859  0.00  0.00    +0.166 C 
ATOM     14  O   UNL     1      -0.638  -0.082  23.821  0.00  0.00    -0.350 OA
ATOM     15  C   UNL     1      -0.886  -0.278  24.582  0.00  0.00    +0.166 C 
ATOM     16  C   UNL     1      -1.281  -0.847  25.031  0.00  0.00    +0.154 C 
ATOM     17  C   UNL     1      -1.287  -0.595  25.816  0.00  0.00    +0.166 C 
ATOM     18  O   UNL     1      -0.897   0.130  25.853  0.00  0.00    -0.350 OA
ATOM     19  C   UNL     1      -0.649   0.326  25.091  0.00  0.00    +0.166 C 
ENDROOT
BRANCH  16  20
ATOM     20  N   UNL     1      -1.612  -1.547  24.743  0.00  0.00    -0.200 NA
ATOM     21  C   UNL     1      -2.431  -1.624  24.689  0.00  0.00    +0.236 A 
ATOM     22  N   UNL     1      -2.762  -2.323  24.402  0.00  0.00    -0.217 NA
ATOM     23  C   UNL     1      -3.582  -2.401  24.348  0.00  0.00    +0.063 A 
ATOM     24  C   UNL     1      -4.071  -1.779  24.581  0.00  0.00    +0.035 A 
ATOM     25  C   UNL     1      -3.740  -1.079  24.869  0.00  0.00    +0.103 A 
ATOM     26  N   UNL     1      -2.920  -1.002  24.923  0.00  0.00    -0.211 NA
BRANCH  23  27
ATOM     27  C   UNL     1      -3.912  -3.099  24.061  0.00  0.00    +0.036 C 
ATOM     28  C   UNL     1      -4.243  -3.798  23.773  0.00  0.00    +0.006 C 
ATOM     29  C   UNL     1      -3.519  -3.526  24.647  0.00  0.00    +0.006 C 
ATOM     30  C   UNL     1      -4.305  -2.672  23.474  0.00  0.00    +0.006 C 
ENDBRANCH  23  27
ENDBRANCH  16  20
BRANCH  12  11
ATOM      8  N   UNL     1      -0.021   2.998  25.181  0.00  0.00    -0.161 NA
ATOM      9  C   UNL     1      -0.351   2.299  24.894  0.00  0.00    +0.344 C 
ATOM     10  O   UNL     1      -1.110   2.304  24.569  0.00  0.00    -0.249 OA
ATOM     11  N   UNL     1       0.077   1.595  24.931  0.00  0.00    -0.184 NA
BRANCH   8   7
ATOM      4  C   UNL     1      -1.305   5.112  25.070  0.00  0.00    +0.035 A 
ATOM      5  C   UNL     1      -1.537   4.515  25.590  0.00  0.00    +0.004 A 
ATOM      6  C   UNL     1      -1.109   3.810  25.627  0.00  0.00    +0.017 A 
ATOM      7  C   UNL     1      -0.449   3.703  25.144  0.00  0.00    +0.075 A 
ATOM     31  C   UNL     1      -0.217   4.300  24.624  0.00  0.00    +0.017 A 
ATOM     32  C   UNL     1      -0.645   5.004  24.587  0.00  0.00    +0.004 A 
BRANCH   4   2
ATOM      1  C   UNL     1      -2.551   5.807  25.141  0.00  0.00    +0.077 C 
ATOM      2  C   UNL     1      -1.733   5.816  25.034  0.00  0.00    +0.173 C 
ATOM      3  O   UNL     1      -1.344   6.529  24.889  0.00  0.00    -0.291 OA
ENDBRANCH   4   2
ENDBRANCH   8   7
ENDBRANCH  12  11
TORSDOF 5
ENDMDL
MODEL 6
REMARK VINA RESULT:      -7.1      3.093      5.209
REMARK  Name = 
REMARK  5 active torsions:
REMARK  status: ('A' for Active; 'I' for Inactive)
REMARK    1  A    between atoms: C_2  and  C_4
REMARK    2  A    between atoms: C_7  and  N_8
REMARK    3  A    between atoms: N_11  and  C_12
REMARK    4  A    between atoms: C_16  and  N_20
REMARK    5  A    between atoms: C_23  and  C_27
REMARK                            x       y       z     vdW  Elec       q    Type
REMARK                         _______ _______ _______ _____ _____    ______ ____
ROOT
ATOM     12  C   UNL     1      -0.388   0.279  24.757  0.00  0.00    +0.156 C 
ATOM     13  C   UNL     1      -0.222   0.590  24.011  0.00  0.00    +0.166 C 
ATOM     14  O   UNL     1      -0.172   1.410  24.083  0.00  0.00    -0.350 OA
ATOM     15  C   UNL     1      -0.307   1.606  24.872  0.00  0.00    +0.166 C 
ATOM     16  C   UNL     1      -0.360   2.234  25.405  0.00  0.00    +0.154 C 
ATOM     17  C   UNL     1      -0.526   1.923  26.150  0.00  0.00    +0.166 C 
ATOM     18  O   UNL     1      -0.576   1.103  26.079  0.00  0.00    -0.350 OA
ATOM     19  C   UNL     1      -0.440   0.907  25.289  0.00  0.00    +0.166 C 
ENDROOT
BRANCH  16  20
ATOM     20  N   UNL     1      -0.264   3.033  25.223  0.00  0.00    -0.200 NA
ATOM     21  C   UNL     1      -0.907   3.548  25.272  0.00  0.00    +0.236 A 
ATOM     22  N   UNL     1      -0.811   4.346  25.090  0.00  0.00    -0.217 NA
ATOM     23  C   UNL     1      -1.454   4.861  25.139  0.00  0.00    +0.063 A 
ATOM     24  C   UNL     1      -2.193   4.577  25.370  0.00  0.00    +0.035 A 
ATOM     25  C   UNL     1      -2.289   3.778  25.552  0.00  0.00    +0.103 A 
ATOM     26  N   UNL     1      -1.646   3.264  25.502  0.00  0.00    -0.211 NA
BRANCH  23  27
ATOM     27  C   UNL     1      -1.358   5.660  24.957  0.00  0.00    +0.036 C 
ATOM     28  C   UNL     1      -1.262   6.459  24.775  0.00  0.00    +0.006 C 
ATOM     29  C   UNL     1      -2.114   5.816  25.245  0.00  0.00    +0.006 C 
ATOM     30  C   UNL     1      -0.601   5.503  24.669  0.00  0.00    +0.006 C 
ENDBRANCH  23  27
ENDBRANCH  16  20
BRANCH  12  11
ATOM      8  N   UNL     1      -1.281  -1.706  24.920  0.00  0.00    -0.161 NA
ATOM      9  C   UNL     1      -1.184  -0.908  24.739  0.00  0.00    +0.344 C 
ATOM     10  O   UNL     1      -1.789  -0.495  24.356  0.00  0.00    -0.249 OA
ATOM     11  N   UNL     1      -0.484  -0.520  24.939  0.00  0.00    -0.184 NA
BRANCH   8   7
ATOM      4  C   UNL     1      -3.381  -2.869  24.319  0.00  0.00    +0.035 A 
ATOM      5  C   UNL     1      -2.694  -3.008  23.883  0.00  0.00    +0.004 A 
ATOM      6  C   UNL     1      -1.994  -2.620  24.084  0.00  0.00    +0.017 A 
ATOM      7  C   UNL     1      -1.981  -2.094  24.720  0.00  0.00    +0.075 A 
ATOM     31  C   UNL     1      -2.668  -1.956  25.154  0.00  0.00    +0.017 A 
ATOM     32  C   UNL     1      -3.368  -2.344  24.954  0.00  0.00    +0.004 A 
BRANCH   4   2
ATOM      1  C   UNL     1      -4.672  -2.855  23.705  0.00  0.00    +0.077 C 
ATOM      2  C   UNL     1      -4.081  -3.257  24.118  0.00  0.00    +0.173 C 
ATOM      3  O   UNL     1      -4.191  -4.047  24.329  0.00  0.00    -0.291 OA
ENDBRANCH   4   2
ENDBRANCH   8   7
ENDBRANCH  12  11
TORSDOF 5
ENDMDL
MODEL 7
REMARK VINA RESULT:      -7.0     15.420     16.899
REMARK  Name = 
REMARK  5 active torsions:
REMARK  status: ('A' for Active; 'I' for Inactive)
REMARK    1  A    between atoms: C_2  and  C_4
REMARK    2  A    between atoms: C_7  and  N_8
REMARK    3  A    between atoms: N_11  and  C_12
REMARK    4  A    between atoms: C_16  and  N_20
REMARK    5  A    between atoms: C_23  and  C_27
REMARK                            x       y       z     vdW  Elec       q    Type
REMARK                         _______ _______ _______ _____ _____    ______ ____
ROOT
ATOM     12  C   UNL     1      -4.730 -10.478  14.475  0.00  0.00    +0.156 C 
ATOM     13  C   UNL     1      -5.532 -10.448  14.286  0.00  0.00    +0.166 C 
ATOM     14  O   UNL     1      -5.599 -10.462  13.464  0.00  0.00    -0.350 OA
ATOM     15  C   UNL     1      -4.840 -10.500  13.146  0.00  0.00    +0.166 C 
ATOM     16  C   UNL     1      -4.411 -10.533  12.442  0.00  0.00    +0.154 C 
ATOM     17  C   UNL     1      -3.609 -10.563  12.632  0.00  0.00    +0.166 C 
ATOM     18  O   UNL     1      -3.542 -10.549  13.453  0.00  0.00    -0.350 OA
ATOM     19  C   UNL     1      -4.302 -10.510  13.771  0.00  0.00    +0.166 C 
ENDROOT
BRANCH  16  20
ATOM     20  N   UNL     1      -4.729 -10.535  11.680  0.00  0.00    -0.200 NA
ATOM     21  C   UNL     1      -4.324 -10.167  11.062  0.00  0.00    +0.236 A 
ATOM     22  N   UNL     1      -4.642 -10.169  10.302  0.00  0.00    -0.217 NA
ATOM     23  C   UNL     1      -4.237  -9.802   9.684  0.00  0.00    +0.063 A 
ATOM     24  C   UNL     1      -3.514  -9.432   9.827  0.00  0.00    +0.035 A 
ATOM     25  C   UNL     1      -3.196  -9.430  10.589  0.00  0.00    +0.103 A 
ATOM     26  N   UNL     1      -3.601  -9.798  11.206  0.00  0.00    -0.211 NA
BRANCH  23  27
ATOM     27  C   UNL     1      -4.555  -9.804   8.923  0.00  0.00    +0.036 C 
ATOM     28  C   UNL     1      -4.873  -9.805   8.161  0.00  0.00    +0.006 C 
ATOM     29  C   UNL     1      -4.397 -10.610   8.859  0.00  0.00    +0.006 C 
ATOM     30  C   UNL     1      -4.713  -8.996   8.987  0.00  0.00    +0.006 C 
ENDBRANCH  23  27
ENDBRANCH  16  20
BRANCH  12  11
ATOM      8  N   UNL     1      -4.593 -10.503  16.654  0.00  0.00    -0.161 NA
ATOM      9  C   UNL     1      -4.911 -10.505  15.893  0.00  0.00    +0.344 C 
ATOM     10  O   UNL     1      -5.729 -10.536  15.787  0.00  0.00    -0.249 OA
ATOM     11  N   UNL     1      -4.411 -10.476  15.237  0.00  0.00    -0.184 NA
BRANCH   8   7
ATOM      4  C   UNL     1      -6.091 -10.590  18.622  0.00  0.00    +0.035 A 
ATOM      5  C   UNL     1      -6.391 -10.375  17.884  0.00  0.00    +0.004 A 
ATOM      6  C   UNL     1      -5.891 -10.346  17.229  0.00  0.00    +0.017 A 
ATOM      7  C   UNL     1      -5.092 -10.532  17.310  0.00  0.00    +0.075 A 
ATOM     31  C   UNL     1      -4.792 -10.747  18.048  0.00  0.00    +0.017 A 
ATOM     32  C   UNL     1      -5.291 -10.776  18.704  0.00  0.00    +0.004 A 
BRANCH   4   2
ATOM      1  C   UNL     1      -7.409 -10.591  19.174  0.00  0.00    +0.077 C 
ATOM      2  C   UNL     1      -6.591 -10.619  19.278  0.00  0.00    +0.173 C 
ATOM      3  O   UNL     1      -6.273 -10.676  20.037  0.00  0.00    -0.291 OA
ENDBRANCH   4   2
ENDBRANCH   8   7
ENDBRANCH  12  11
TORSDOF 5
ENDMDL
MODEL 8
REMARK VINA RESULT:      -6.6     17.340     18.021
REMARK  Name = 
REMARK  5 active torsions:
REMARK  status: ('A' for Active; 'I' for Inactive)
REMARK    1  A    between atoms: C_2  and  C_4
REMARK    2  A    between atoms: C_7  and  N_8
REMARK    3  A    between atoms: N_11  and  C_12
REMARK    4  A    between atoms: C_16  and  N_20
REMARK    5  A    between atoms: C_23  and  C_27
REMARK                            x       y       z     vdW  Elec       q    Type
REMARK                         _______ _______ _______ _____ _____    ______ ____
ROOT
ATOM     12  C   UNL     1      -4.332  -9.229   9.588  0.00  0.00    +0.156 C 
ATOM     13  C   UNL     1      -4.286  -8.413   9.692  0.00  0.00    +0.166 C 
ATOM     14  O   UNL     1      -4.972  -8.078   9.381  0.00  0.00    -0.350 OA
ATOM     15  C   UNL     1      -5.443  -8.687   9.086  0.00  0.00    +0.166 C 
ATOM     16  C   UNL     1      -6.158  -8.857   8.711  0.00  0.00    +0.154 C 
ATOM     17  C   UNL     1      -6.204  -9.674   8.607  0.00  0.00    +0.166 C 
ATOM     18  O   UNL     1      -5.517 -10.009   8.917  0.00  0.00    -0.350 OA
ATOM     19  C   UNL     1      -5.046  -9.399   9.213  0.00  0.00    +0.166 C 
ENDROOT
BRANCH  16  20
ATOM     20  N   UNL     1      -6.727  -8.306   8.480  0.00  0.00    -0.200 NA
ATOM     21  C   UNL     1      -7.514  -8.405   8.709  0.00  0.00    +0.236 A 
ATOM     22  N   UNL     1      -8.083  -7.855   8.479  0.00  0.00    -0.217 NA
ATOM     23  C   UNL     1      -8.870  -7.954   8.707  0.00  0.00    +0.063 A 
ATOM     24  C   UNL     1      -9.087  -8.604   9.167  0.00  0.00    +0.035 A 
ATOM     25  C   UNL     1      -8.517  -9.155   9.397  0.00  0.00    +0.103 A 
ATOM     26  N   UNL     1      -7.731  -9.055   9.168  0.00  0.00    -0.211 NA
BRANCH  23  27
ATOM     27  C   UNL     1      -9.439  -7.404   8.477  0.00  0.00    +0.036 C 
ATOM     28  C   UNL     1     -10.009  -6.853   8.247  0.00  0.00    +0.006 C 
ATOM     29  C   UNL     1      -8.999  -6.802   8.829  0.00  0.00    +0.006 C 
ATOM     30  C   UNL     1      -9.879  -8.007   8.125  0.00  0.00    +0.006 C 
ENDBRANCH  23  27
ENDBRANCH  16  20
BRANCH  12  11
ATOM      8  N   UNL     1      -2.956 -10.374  10.838  0.00  0.00    -0.161 NA
ATOM      9  C   UNL     1      -3.525  -9.824  10.608  0.00  0.00    +0.344 C 
ATOM     10  O   UNL     1      -3.859  -9.315  11.166  0.00  0.00    -0.249 OA
ATOM     11  N   UNL     1      -3.762  -9.780   9.818  0.00  0.00    -0.184 NA
BRANCH   8   7
ATOM      4  C   UNL     1      -2.245 -10.504  13.205  0.00  0.00    +0.035 A 
ATOM      5  C   UNL     1      -1.737 -10.183  12.639  0.00  0.00    +0.004 A 
ATOM      6  C   UNL     1      -1.975 -10.140  11.850  0.00  0.00    +0.017 A 
ATOM      7  C   UNL     1      -2.719 -10.417  11.627  0.00  0.00    +0.075 A 
ATOM     31  C   UNL     1      -3.226 -10.738  12.194  0.00  0.00    +0.017 A 
ATOM     32  C   UNL     1      -2.989 -10.781  12.983  0.00  0.00    +0.004 A 
BRANCH   4   2
ATOM      1  C   UNL     1      -2.566 -10.683  14.586  0.00  0.00    +0.077 C 
ATOM      2  C   UNL     1      -2.007 -10.547  13.994  0.00  0.00    +0.173 C 
ATOM      3  O   UNL     1      -1.211 -10.454  14.191  0.00  0.00    -0.291 OA
ENDBRANCH   4   2
ENDBRANCH   8   7
ENDBRANCH  12  11
TORSDOF 5
ENDMDL
MODEL 9
REMARK VINA RESULT:      -6.5     15.920     17.535
REMARK  Name = 
REMARK  5 active torsions:
REMARK  status: ('A' for Active; 'I' for Inactive)
REMARK    1  A    between atoms: C_2  and  C_4
REMARK    2  A    between atoms: C_7  and  N_8
REMARK    3  A    between atoms: N_11  and  C_12
REMARK    4  A    between atoms: C_16  and  N_20
REMARK    5  A    between atoms: C_23  and  C_27
REMARK                            x       y       z     vdW  Elec       q    Type
REMARK                         _______ _______ _______ _____ _____    ______ ____
ROOT
ATOM     12  C   UNL     1      -6.637 -10.346  14.191  0.00  0.00    +0.156 C 
ATOM     13  C   UNL     1      -7.281 -10.599  13.742  0.00  0.00    +0.166 C 
ATOM     14  O   UNL     1      -7.039 -10.645  12.955  0.00  0.00    -0.350 OA
ATOM     15  C   UNL     1      -6.247 -10.421  12.917  0.00  0.00    +0.166 C 
ATOM     16  C   UNL     1      -5.607 -10.310  12.408  0.00  0.00    +0.154 C 
ATOM     17  C   UNL     1      -4.964 -10.057  12.857  0.00  0.00    +0.166 C 
ATOM     18  O   UNL     1      -5.205 -10.011  13.645  0.00  0.00    -0.350 OA
ATOM     19  C   UNL     1      -5.999 -10.236  13.682  0.00  0.00    +0.166 C 
ENDROOT
BRANCH  16  20
ATOM     20  N   UNL     1      -5.611 -10.432  11.592  0.00  0.00    -0.200 NA
ATOM     21  C   UNL     1      -5.410  -9.816  11.082  0.00  0.00    +0.236 A 
ATOM     22  N   UNL     1      -5.414  -9.937  10.266  0.00  0.00    -0.217 NA
ATOM     23  C   UNL     1      -5.213  -9.320   9.756  0.00  0.00    +0.063 A 
ATOM     24  C   UNL     1      -5.008  -8.582  10.062  0.00  0.00    +0.035 A 
ATOM     25  C   UNL     1      -5.004  -8.461  10.878  0.00  0.00    +0.103 A 
ATOM     26  N   UNL     1      -5.205  -9.077  11.388  0.00  0.00    -0.211 NA
BRANCH  23  27
ATOM     27  C   UNL     1      -5.216  -9.442   8.940  0.00  0.00    +0.036 C 
ATOM     28  C   UNL     1      -5.220  -9.563   8.124  0.00  0.00    +0.006 C 
ATOM     29  C   UNL     1      -6.015  -9.237   8.914  0.00  0.00    +0.006 C 
ATOM     30  C   UNL     1      -4.417  -9.646   8.968  0.00  0.00    +0.006 C 
ENDBRANCH  23  27
ENDBRANCH  16  20
BRANCH  12  11
ATOM      8  N   UNL     1      -7.329  -9.905  16.214  0.00  0.00    -0.161 NA
ATOM      9  C   UNL     1      -7.333 -10.026  15.399  0.00  0.00    +0.344 C 
ATOM     10  O   UNL     1      -8.036  -9.950  14.973  0.00  0.00    -0.249 OA
ATOM     11  N   UNL     1      -6.634 -10.224  15.008  0.00  0.00    -0.184 NA
BRANCH   8   7
ATOM      4  C   UNL     1      -9.426  -9.312  17.388  0.00  0.00    +0.035 A 
ATOM      5  C   UNL     1      -9.229 -10.105  17.270  0.00  0.00    +0.004 A 
ATOM      6  C   UNL     1      -8.530 -10.302  16.879  0.00  0.00    +0.017 A 
ATOM      7  C   UNL     1      -8.028  -9.707  16.605  0.00  0.00    +0.075 A 
ATOM     31  C   UNL     1      -8.226  -8.915  16.723  0.00  0.00    +0.017 A 
ATOM     32  C   UNL     1      -8.925  -8.717  17.114  0.00  0.00    +0.004 A 
BRANCH   4   2
ATOM      1  C   UNL     1     -10.644  -8.566  17.446  0.00  0.00    +0.077 C 
ATOM      2  C   UNL     1     -10.125  -9.116  17.779  0.00  0.00    +0.173 C 
ATOM      3  O   UNL     1     -10.306  -9.467  18.503  0.00  0.00    -0.291 OA
ENDBRANCH   4   2
ENDBRANCH   8   7
ENDBRANCH  12  11
TORSDOF 5
ENDMDL
MODEL 10
REMARK VINA RESULT:      -6.5     15.368     15.879
REMARK  Name = 
REMARK  5 active torsions:
REMARK  status: ('A' for Active; 'I' for Inactive)
REMARK    1  A    between atoms: C_2  and  C_4
REMARK    2  A    between atoms: C_7  and  N_8
REMARK    3  A    between atoms: N_11  and  C_12
REMARK    4  A    between atoms: C_16  and  N_20
REMARK    5  A    between atoms: C_23  and  C_27
REMARK                            x       y       z     vdW  Elec       q    Type
REMARK                         _______ _______ _______ _____ _____    ______ ____
ROOT
ATOM     12  C   UNL     1      -5.807 -10.458  13.912  0.00  0.00    +0.156 C 
ATOM     13  C   UNL     1      -5.431 -10.046  14.520  0.00  0.00    +0.166 C 
ATOM     14  O   UNL     1      -6.005  -9.823  15.069  0.00  0.00    -0.350 OA
ATOM     15  C   UNL     1      -6.735 -10.097  14.801  0.00  0.00    +0.166 C 
ATOM     16  C   UNL     1      -7.541 -10.129  14.974  0.00  0.00    +0.154 C 
ATOM     17  C   UNL     1      -7.917 -10.540  14.366  0.00  0.00    +0.166 C 
ATOM     18  O   UNL     1      -7.343 -10.763  13.817  0.00  0.00    -0.350 OA
ATOM     19  C   UNL     1      -6.613 -10.489  14.086  0.00  0.00    +0.166 C 
ENDROOT
BRANCH  16  20
ATOM     20  N   UNL     1      -7.907  -9.805  15.639  0.00  0.00    -0.200 NA
ATOM     21  C   UNL     1      -8.623  -9.404  15.562  0.00  0.00    +0.236 A 
ATOM     22  N   UNL     1      -8.989  -9.080  16.226  0.00  0.00    -0.217 NA
ATOM     23  C   UNL     1      -9.706  -8.678  16.149  0.00  0.00    +0.063 A 
ATOM     24  C   UNL     1     -10.057  -8.601  15.406  0.00  0.00    +0.035 A 
ATOM     25  C   UNL     1      -9.691  -8.924  14.741  0.00  0.00    +0.103 A 
ATOM     26  N   UNL     1      -8.974  -9.326  14.819  0.00  0.00    -0.211 NA
BRANCH  23  27
ATOM     27  C   UNL     1     -10.072  -8.355  16.813  0.00  0.00    +0.036 C 
ATOM     28  C   UNL     1     -10.438  -8.031  17.478  0.00  0.00    +0.006 C 
ATOM     29  C   UNL     1     -10.424  -9.083  16.974  0.00  0.00    +0.006 C 
ATOM     30  C   UNL     1      -9.719  -7.626  16.652  0.00  0.00    +0.006 C 
ENDBRANCH  23  27
ENDBRANCH  16  20
BRANCH  12  11
ATOM      8  N   UNL     1      -4.395 -10.754  12.273  0.00  0.00    -0.161 NA
ATOM      9  C   UNL     1      -4.761 -10.431  12.938  0.00  0.00    +0.344 C 
ATOM     10  O   UNL     1      -4.447  -9.756  13.295  0.00  0.00    -0.249 OA
ATOM     11  N   UNL     1      -5.441 -10.781  13.247  0.00  0.00    -0.184 NA
BRANCH   8   7
ATOM      4  C   UNL     1      -2.355  -9.702  11.348  0.00  0.00    +0.035 A 
ATOM      5  C   UNL     1      -2.292 -10.277  11.936  0.00  0.00    +0.004 A 
ATOM      6  C   UNL     1      -2.973 -10.627  12.245  0.00  0.00    +0.017 A 
ATOM      7  C   UNL     1      -3.715 -10.403  11.965  0.00  0.00    +0.075 A 
ATOM     31  C   UNL     1      -3.778  -9.828  11.376  0.00  0.00    +0.017 A 
ATOM     32  C   UNL     1      -3.098  -9.478  11.068  0.00  0.00    +0.004 A 
BRANCH   4   2
ATOM      1  C   UNL     1      -0.950  -9.450  11.423  0.00  0.00    +0.077 C 
ATOM      2  C   UNL     1      -1.675  -9.352  11.039  0.00  0.00    +0.173 C 
ATOM      3  O   UNL     1      -1.718  -8.904  10.348  0.00  0.00    -0.291 OA
ENDBRANCH   4   2
ENDBRANCH   8   7
ENDBRANCH  12  11
TORSDOF 5
ENDMDL
