MODEL 1
REMARK VINA RESULT:     -10.1      0.000      0.000
REMARK  Name = 
REMARK  5 active torsions:
REMARK  status: ('A' for Active; 'I' for Inactive)
REMARK    1  A    between atoms: C_4  and  C_8
REMARK    2  A    between atoms: N_13  and  C_14
REMARK    3  A    between atoms: C_18  and  N_22
REMARK    4  A    between atoms: N_22  and  C_23
REMARK    5  A    between atoms: C_23  and  C_24
REMARK                            x       y       z     vdW  Elec       q    Type
REMARK                         _______ _______ _______ _____ _____    ______ ____
ROOT
ATOM     14  C   UNL     1       0.138   0.833  23.603  0.00  0.00    +0.154 C 
ATOM     15  C   UNL     1       0.481   1.383  24.113  0.00  0.00    +0.166 C 
ATOM     16  O   UNL     1       1.298   1.354  24.006  0.00  0.00    -0.350 OA
ATOM     17  C   UNL     1       1.461   0.787  23.430  0.00  0.00    +0.162 C 
ATOM     18  C   UNL     1       2.065   0.417  23.007  0.00  0.00    +0.132 C 
ATOM     19  C   UNL     1       1.722  -0.132  22.497  0.00  0.00    +0.162 C 
ATOM     20  O   UNL     1       0.905  -0.103  22.604  0.00  0.00    -0.350 OA
ATOM     21  C   UNL     1       0.743   0.465  23.181  0.00  0.00    +0.166 C 
ENDROOT
BRANCH  14  13
ATOM      8  C   UNL     1      -2.330  -0.047  24.745  0.00  0.00    +0.086 A 
ATOM      9  C   UNL     1      -1.950  -0.178  25.465  0.00  0.00    +0.040 A 
ATOM     10  C   UNL     1      -1.143  -0.024  25.540  0.00  0.00    +0.103 A 
ATOM     11  N   UNL     1      -0.715   0.262  24.895  0.00  0.00    -0.211 NA
ATOM     12  C   UNL     1      -1.097   0.393  24.174  0.00  0.00    +0.237 A 
ATOM     13  N   UNL     1      -0.669   0.679  23.529  0.00  0.00    -0.200 NA
ATOM     30  N   UNL     1      -1.903   0.239  24.100  0.00  0.00    -0.212 NA
BRANCH   8   4
ATOM      1  F   UNL     1      -4.455  -1.793  23.971  0.00  0.00    -0.204 F 
ATOM      2  C   UNL     1      -4.199  -1.074  24.284  0.00  0.00    +0.140 A 
ATOM      3  C   UNL     1      -3.393  -0.920  24.358  0.00  0.00    +0.031 A 
ATOM      4  C   UNL     1      -3.137  -0.201  24.671  0.00  0.00    +0.020 A 
ATOM      5  C   UNL     1      -3.688   0.364  24.910  0.00  0.00    +0.002 A 
ATOM      6  C   UNL     1      -4.496   0.210  24.836  0.00  0.00    +0.002 A 
ATOM      7  C   UNL     1      -4.752  -0.509  24.523  0.00  0.00    +0.030 A 
ENDBRANCH   8   4
ENDBRANCH  14  13
BRANCH  18  22
ATOM     22  N   UNL     1       2.872   0.572  23.082  0.00  0.00    -0.210 NA
BRANCH  22  23
ATOM     23  C   UNL     1       3.424   0.006  22.845  0.00  0.00    +0.115 C 
BRANCH  23  24
ATOM     24  C   UNL     1       4.177  -0.003  23.182  0.00  0.00    -0.005 A 
ATOM     25  C   UNL     1       4.446  -0.677  23.574  0.00  0.00    -0.003 A 
ATOM     26  C   UNL     1       5.198  -0.687  23.912  0.00  0.00    -0.000 A 
ATOM     27  C   UNL     1       5.683  -0.020  23.857  0.00  0.00    -0.000 A 
ATOM     28  C   UNL     1       5.414   0.653  23.465  0.00  0.00    -0.000 A 
ATOM     29  C   UNL     1       4.661   0.663  23.127  0.00  0.00    -0.003 A 
ENDBRANCH  23  24
ENDBRANCH  22  23
ENDBRANCH  18  22
TORSDOF 5
ENDMDL
MODEL 2
REMARK VINA RESULT:     -10.0      1.886      2.346
REMARK  Name = 
REMARK  5 active torsions:
REMARK  status: ('A' for Active; 'I' for Inactive)
REMARK    1  A    between atoms: C_4  and  C_8
REMARK    2  A    between atoms: N_13  and  C_14
REMARK    3  A    between atoms: C_18  and  N_22
REMARK    4  A    between atoms: N_22  and  C_23
REMARK    5  A    between atoms: C_23  and  C_24
REMARK                            x       y       z     vdW  Elec       q    Type
REMARK                         _______ _______ _______ _____ _____    ______ ____
ROOT
ATOM     14  C   UNL     1      -0.736   1.402  24.589  0.00  0.00    +0.154 C 
ATOM     15  C   UNL     1      -0.266   2.027  24.848  0.00  0.00    +0.166 C 
ATOM     16  O   UNL     1       0.486   1.931  24.523  0.00  0.00    -0.350 OA
ATOM     17  C   UNL     1       0.480   1.248  24.063  0.00  0.00    +0.162 C 
ATOM     18  C   UNL     1       0.940   0.765  23.577  0.00  0.00    +0.132 C 
ATOM     19  C   UNL     1       0.469   0.140  23.317  0.00  0.00    +0.162 C 
ATOM     20  O   UNL     1      -0.282   0.236  23.643  0.00  0.00    -0.350 OA
ATOM     21  C   UNL     1      -0.276   0.920  24.104  0.00  0.00    +0.166 C 
ENDROOT
BRANCH  14  13
ATOM      8  C   UNL     1      -3.421   2.370  24.755  0.00  0.00    +0.086 A 
ATOM      9  C   UNL     1      -3.177   3.098  24.453  0.00  0.00    +0.040 A 
ATOM     10  C   UNL     1      -2.383   3.220  24.261  0.00  0.00    +0.103 A 
ATOM     11  N   UNL     1      -1.834   2.614  24.370  0.00  0.00    -0.211 NA
ATOM     12  C   UNL     1      -2.079   1.886  24.672  0.00  0.00    +0.237 A 
ATOM     13  N   UNL     1      -1.530   1.280  24.781  0.00  0.00    -0.200 NA
ATOM     30  N   UNL     1      -2.872   1.764  24.864  0.00  0.00    -0.212 NA
BRANCH   8   4
ATOM      1  F   UNL     1      -5.762   3.137  26.203  0.00  0.00    -0.204 F 
ATOM      2  C   UNL     1      -5.384   2.632  25.671  0.00  0.00    +0.140 A 
ATOM      3  C   UNL     1      -4.592   2.754  25.479  0.00  0.00    +0.031 A 
ATOM      4  C   UNL     1      -4.213   2.249  24.947  0.00  0.00    +0.020 A 
ATOM      5  C   UNL     1      -4.628   1.622  24.607  0.00  0.00    +0.002 A 
ATOM      6  C   UNL     1      -5.422   1.500  24.799  0.00  0.00    +0.002 A 
ATOM      7  C   UNL     1      -5.800   2.005  25.331  0.00  0.00    +0.030 A 
ENDBRANCH   8   4
ENDBRANCH  14  13
BRANCH  18  22
ATOM     22  N   UNL     1       1.734   0.887  23.385  0.00  0.00    -0.210 NA
BRANCH  22  23
ATOM     23  C   UNL     1       2.150   0.311  22.965  0.00  0.00    +0.115 C 
BRANCH  23  24
ATOM     24  C   UNL     1       2.974   0.333  22.942  0.00  0.00    -0.005 A 
ATOM     25  C   UNL     1       3.412  -0.305  23.228  0.00  0.00    -0.003 A 
ATOM     26  C   UNL     1       4.237  -0.284  23.205  0.00  0.00    -0.000 A 
ATOM     27  C   UNL     1       4.623   0.376  22.894  0.00  0.00    -0.000 A 
ATOM     28  C   UNL     1       4.185   1.013  22.608  0.00  0.00    -0.000 A 
ATOM     29  C   UNL     1       3.360   0.993  22.632  0.00  0.00    -0.003 A 
ENDBRANCH  23  24
ENDBRANCH  22  23
ENDBRANCH  18  22
TORSDOF 5
ENDMDL
MODEL 3
REMARK VINA RESULT:      -9.3      2.536      6.817
REMARK  Name = 
REMARK  5 active torsions:
REMARK  status: ('A' for Active; 'I' for Inactive)
REMARK    1  A    between atoms: C_4  and  C_8
REMARK    2  A    between atoms: N_13  and  C_14
REMARK    3  A    between atoms: C_18  and  N_22
REMARK    4  A    between atoms: N_22  and  C_23
REMARK    5  A    between atoms: C_23  and  C_24
REMARK                            x       y       z     vdW  Elec       q    Type
REMARK                         _______ _______ _______ _____ _____    ______ ____
ROOT
ATOM     14  C   UNL     1      -0.542   1.675  24.618  0.00  0.00    +0.154 C 
ATOM     15  C   UNL     1      -0.770   1.186  25.242  0.00  0.00    +0.166 C 
ATOM     16  O   UNL     1      -1.559   1.350  25.417  0.00  0.00    -0.350 OA
ATOM     17  C   UNL     1      -1.818   1.940  24.903  0.00  0.00    +0.162 C 
ATOM     18  C   UNL     1      -2.465   2.407  24.693  0.00  0.00    +0.132 C 
ATOM     19  C   UNL     1      -2.237   2.896  24.069  0.00  0.00    +0.162 C 
ATOM     20  O   UNL     1      -1.448   2.732  23.894  0.00  0.00    -0.350 OA
ATOM     21  C   UNL     1      -1.189   2.141  24.409  0.00  0.00    +0.166 C 
ENDROOT
BRANCH  14  13
ATOM      8  C   UNL     1       1.537   0.375  23.149  0.00  0.00    +0.086 A 
ATOM      9  C   UNL     1       1.085  -0.314  23.119  0.00  0.00    +0.040 A 
ATOM     10  C   UNL     1       0.339  -0.334  23.472  0.00  0.00    +0.103 A 
ATOM     11  N   UNL     1       0.045   0.336  23.854  0.00  0.00    -0.211 NA
ATOM     12  C   UNL     1       0.498   1.025  23.883  0.00  0.00    +0.237 A 
ATOM     13  N   UNL     1       0.204   1.695  24.266  0.00  0.00    -0.200 NA
ATOM     30  N   UNL     1       1.243   1.044  23.531  0.00  0.00    -0.212 NA
BRANCH   8   4
ATOM      1  F   UNL     1       4.293   1.125  23.228  0.00  0.00    -0.204 F 
ATOM      2  C   UNL     1       3.660   0.769  22.836  0.00  0.00    +0.140 A 
ATOM      3  C   UNL     1       2.915   0.750  23.188  0.00  0.00    +0.031 A 
ATOM      4  C   UNL     1       2.282   0.394  22.797  0.00  0.00    +0.020 A 
ATOM      5  C   UNL     1       2.395   0.057  22.052  0.00  0.00    +0.002 A 
ATOM      6  C   UNL     1       3.141   0.076  21.700  0.00  0.00    +0.002 A 
ATOM      7  C   UNL     1       3.774   0.432  22.091  0.00  0.00    +0.030 A 
ENDBRANCH   8   4
ENDBRANCH  14  13
BRANCH  18  22
ATOM     22  N   UNL     1      -3.212   2.387  25.045  0.00  0.00    -0.210 NA
BRANCH  22  23
ATOM     23  C   UNL     1      -3.877   2.616  24.615  0.00  0.00    +0.115 C 
BRANCH  23  24
ATOM     24  C   UNL     1      -4.631   2.511  24.934  0.00  0.00    -0.005 A 
ATOM     25  C   UNL     1      -5.074   1.844  24.735  0.00  0.00    -0.003 A 
ATOM     26  C   UNL     1      -5.828   1.739  25.054  0.00  0.00    -0.000 A 
ATOM     27  C   UNL     1      -6.138   2.302  25.572  0.00  0.00    -0.000 A 
ATOM     28  C   UNL     1      -5.694   2.968  25.771  0.00  0.00    -0.000 A 
ATOM     29  C   UNL     1      -4.941   3.073  25.452  0.00  0.00    -0.003 A 
ENDBRANCH  23  24
ENDBRANCH  22  23
ENDBRANCH  18  22
TORSDOF 5
ENDMDL
