REMARK  Name = 
REMARK  4 active torsions:
REMARK  status: ('A' for Active; 'I' for Inactive)
REMARK    1  A    between atoms: O_2  and  C_3
REMARK    2  A    between atoms: C_6  and  C_7
REMARK    3  A    between atoms: C_7  and  N_8
REMARK    4  A    between atoms: C_18  and  C_20
REMARK                            x       y       z     vdW  Elec       q    Type
REMARK                         _______ _______ _______ _____ _____    ______ ____
ROOT
ATOM      8  N   UNL     1       0.715  -0.412   0.000  0.00  0.00    -0.271 N 
ATOM      9  C   UNL     1       0.000   0.000   0.000  0.00  0.00    +0.124 C 
ATOM     10  C   UNL     1      -0.785  -0.255   0.000  0.00  0.00    +0.116 C 
ATOM     11  N   UNL     1      -1.270   0.412   0.000  0.00  0.00    -0.275 N 
ATOM     12  C   UNL     1      -0.785   1.080   0.000  0.00  0.00    +0.125 C 
ATOM     13  C   UNL     1       0.000   0.825   0.000  0.00  0.00    +0.155 C 
ATOM     14  O   UNL     1       0.715   1.238   0.000  0.00  0.00    -0.343 OA
ATOM     15  C   UNL     1       1.429   0.825   0.000  0.00  0.00    +0.227 C 
ATOM     16  C   UNL     1       1.429   0.000   0.000  0.00  0.00    +0.256 C 
ATOM     17  O   UNL     1       2.143  -0.412   0.000  0.00  0.00    -0.272 OA
ATOM     18  C   UNL     1      -2.095   0.412   0.000  0.00  0.00    +0.225 C 
ATOM     19  O   UNL     1      -2.507  -0.302   0.000  0.00  0.00    -0.275 OA
ENDROOT
BRANCH  18  20
ATOM     20  C   UNL     1      -2.507   1.127   0.000  0.00  0.00    +0.077 C 
ATOM     21  C   UNL     1      -3.221   1.540   0.000  0.00  0.00    +0.010 C 
ATOM     22  C   UNL     1      -2.507   1.952   0.000  0.00  0.00    +0.010 C 
ENDBRANCH  18  20
BRANCH   8   7
ATOM      7  C   UNL     1       0.715  -1.238   0.000  0.00  0.00    +0.120 C 
BRANCH   7   6
ATOM      3  C   UNL     1       2.858  -2.475   0.000  0.00  0.00    +0.139 A 
ATOM      4  C   UNL     1       2.143  -2.888   0.000  0.00  0.00    +0.037 A 
ATOM      5  C   UNL     1       1.429  -2.475   0.000  0.00  0.00    +0.001 A 
ATOM      6  C   UNL     1       1.429  -1.650   0.000  0.00  0.00    -0.002 A 
ATOM     23  C   UNL     1       2.143  -1.238   0.000  0.00  0.00    +0.001 A 
ATOM     24  C   UNL     1       2.858  -1.650   0.000  0.00  0.00    +0.037 A 
BRANCH   3   2
ATOM      1  C   UNL     1       4.287  -2.475   0.000  0.00  0.00    +0.252 C 
ATOM      2  O   UNL     1       3.572  -2.888   0.000  0.00  0.00    -0.471 OA
ENDBRANCH   3   2
ENDBRANCH   7   6
ENDBRANCH   8   7
TORSDOF 4
