MODEL 1
REMARK VINA RESULT:      -9.4      0.000      0.000
REMARK  Name = 
REMARK  6 active torsions:
REMARK  status: ('A' for Active; 'I' for Inactive)
REMARK    1  A    between atoms: C_9  and  C_10
REMARK    2  A    between atoms: N_12  and  C_13
REMARK    3  A    between atoms: C_20  and  C_22
REMARK    4  A    between atoms: C_22  and  S_23
REMARK    5  A    between atoms: S_23  and  C_24
REMARK    6  A    between atoms: C_24  and  C_25
REMARK                            x       y       z     vdW  Elec       q    Type
REMARK                         _______ _______ _______ _____ _____    ______ ____
ROOT
ATOM      1  C   UNL     1      -5.601   0.639  24.877  0.00  0.00    +0.095 C 
ATOM      2  C   UNL     1      -5.504   1.447  25.009  0.00  0.00    +0.227 C 
ATOM      3  O   UNL     1      -6.162   1.926  25.142  0.00  0.00    -0.275 OA
ATOM      4  N   UNL     1      -4.747   1.776  25.007  0.00  0.00    -0.270 N 
ATOM      5  C   UNL     1      -4.649   2.585  25.138  0.00  0.00    +0.115 C 
ATOM      6  C   UNL     1      -3.892   2.914  25.137  0.00  0.00    +0.115 C 
ATOM      7  N   UNL     1      -3.234   2.436  25.004  0.00  0.00    -0.275 N 
ATOM      8  C   UNL     1      -3.333   1.626  24.872  0.00  0.00    +0.123 C 
ATOM      9  C   UNL     1      -4.089   1.298  24.874  0.00  0.00    +0.174 C 
ATOM     20  C   UNL     1      -2.478   2.764  25.002  0.00  0.00    +0.237 C 
ATOM     21  O   UNL     1      -1.820   2.285  24.869  0.00  0.00    -0.274 OA
ENDROOT
BRANCH   9  10
ATOM     10  C   UNL     1      -4.187   0.489  24.742  0.00  0.00    +0.262 C 
ATOM     11  O   UNL     1      -4.895   0.205  24.428  0.00  0.00    -0.271 OA
ATOM     12  N   UNL     1      -3.577  -0.035  24.925  0.00  0.00    -0.196 NA
BRANCH  12  13
ATOM     13  C   UNL     1      -3.675  -0.844  24.793  0.00  0.00    +0.173 C 
ATOM     14  C   UNL     1      -3.959  -1.113  24.066  0.00  0.00    +0.033 C 
ATOM     15  C   UNL     1      -4.056  -1.921  23.935  0.00  0.00    +0.026 C 
ATOM     16  C   UNL     1      -3.871  -2.462  24.530  0.00  0.00    +0.115 C 
ATOM     17  N   UNL     1      -3.587  -2.193  25.257  0.00  0.00    -0.204 NA
ATOM     18  C   UNL     1      -3.489  -1.384  25.389  0.00  0.00    +0.261 C 
ATOM     19  O   UNL     1      -3.206  -1.116  26.115  0.00  0.00    -0.271 OA
ENDBRANCH  12  13
ENDBRANCH   9  10
BRANCH  20  22
ATOM     22  C   UNL     1      -2.380   3.573  25.134  0.00  0.00    +0.143 C 
BRANCH  22  23
ATOM     23  S   UNL     1      -1.641   3.922  25.021  0.00  0.00    -0.119 S 
BRANCH  23  24
ATOM     24  C   UNL     1      -1.456   4.629  25.406  0.00  0.00    +0.172 C 
BRANCH  24  25
ATOM     25  C   UNL     1      -1.045   5.221  25.005  0.00  0.00    +0.376 C 
ATOM     26  O   UNL     1      -1.364   5.980  24.953  0.00  0.00    -0.245 OA
ATOM     27  O   UNL     1      -0.316   5.055  24.656  0.00  0.00    -0.245 OA
ENDBRANCH  24  25
ENDBRANCH  23  24
ENDBRANCH  22  23
ENDBRANCH  20  22
TORSDOF 6
ENDMDL
MODEL 2
REMARK VINA RESULT:      -9.3      1.694      5.054
REMARK  Name = 
REMARK  6 active torsions:
REMARK  status: ('A' for Active; 'I' for Inactive)
REMARK    1  A    between atoms: C_9  and  C_10
REMARK    2  A    between atoms: N_12  and  C_13
REMARK    3  A    between atoms: C_20  and  C_22
REMARK    4  A    between atoms: C_22  and  S_23
REMARK    5  A    between atoms: S_23  and  C_24
REMARK    6  A    between atoms: C_24  and  C_25
REMARK                            x       y       z     vdW  Elec       q    Type
REMARK                         _______ _______ _______ _____ _____    ______ ____
ROOT
ATOM      1  C   UNL     1      -4.311   3.808  25.209  0.00  0.00    +0.095 C 
ATOM      2  C   UNL     1      -4.779   3.128  25.221  0.00  0.00    +0.227 C 
ATOM      3  O   UNL     1      -5.580   3.181  25.411  0.00  0.00    -0.275 OA
ATOM      4  N   UNL     1      -4.444   2.395  25.041  0.00  0.00    -0.270 N 
ATOM      5  C   UNL     1      -4.912   1.716  25.052  0.00  0.00    +0.115 C 
ATOM      6  C   UNL     1      -4.577   0.982  24.873  0.00  0.00    +0.115 C 
ATOM      7  N   UNL     1      -3.777   0.930  24.683  0.00  0.00    -0.275 N 
ATOM      8  C   UNL     1      -3.310   1.610  24.672  0.00  0.00    +0.123 C 
ATOM      9  C   UNL     1      -3.644   2.342  24.851  0.00  0.00    +0.174 C 
ATOM     20  C   UNL     1      -3.443   0.197  24.503  0.00  0.00    +0.237 C 
ATOM     21  O   UNL     1      -2.642   0.144  24.313  0.00  0.00    -0.274 OA
ENDROOT
BRANCH   9  10
ATOM     10  C   UNL     1      -3.176   3.023  24.840  0.00  0.00    +0.262 C 
ATOM     11  O   UNL     1      -3.511   3.751  24.643  0.00  0.00    -0.271 OA
ATOM     12  N   UNL     1      -2.374   2.974  25.026  0.00  0.00    -0.196 NA
BRANCH  12  13
ATOM     13  C   UNL     1      -1.907   3.654  25.015  0.00  0.00    +0.173 C 
ATOM     14  C   UNL     1      -2.154   4.332  25.415  0.00  0.00    +0.033 C 
ATOM     15  C   UNL     1      -1.687   5.011  25.404  0.00  0.00    +0.026 C 
ATOM     16  C   UNL     1      -0.972   5.014  24.993  0.00  0.00    +0.115 C 
ATOM     17  N   UNL     1      -0.724   4.337  24.592  0.00  0.00    -0.204 NA
ATOM     18  C   UNL     1      -1.192   3.656  24.603  0.00  0.00    +0.261 C 
ATOM     19  O   UNL     1      -0.945   2.980  24.203  0.00  0.00    -0.271 OA
ENDBRANCH  12  13
ENDBRANCH   9  10
BRANCH  20  22
ATOM     22  C   UNL     1      -3.911  -0.482  24.514  0.00  0.00    +0.143 C 
BRANCH  22  23
ATOM     23  S   UNL     1      -3.558  -1.226  24.453  0.00  0.00    -0.119 S 
BRANCH  23  24
ATOM     24  C   UNL     1      -4.027  -1.906  24.440  0.00  0.00    +0.172 C 
BRANCH  24  25
ATOM     25  C   UNL     1      -3.679  -2.648  24.530  0.00  0.00    +0.376 C 
ATOM     26  O   UNL     1      -3.482  -2.921  25.283  0.00  0.00    -0.245 OA
ATOM     27  O   UNL     1      -3.529  -3.117  23.868  0.00  0.00    -0.245 OA
ENDBRANCH  24  25
ENDBRANCH  23  24
ENDBRANCH  22  23
ENDBRANCH  20  22
TORSDOF 6
ENDMDL
MODEL 3
REMARK VINA RESULT:      -8.9      1.907      2.959
REMARK  Name = 
REMARK  6 active torsions:
REMARK  status: ('A' for Active; 'I' for Inactive)
REMARK    1  A    between atoms: C_9  and  C_10
REMARK    2  A    between atoms: N_12  and  C_13
REMARK    3  A    between atoms: C_20  and  C_22
REMARK    4  A    between atoms: C_22  and  S_23
REMARK    5  A    between atoms: S_23  and  C_24
REMARK    6  A    between atoms: C_24  and  C_25
REMARK                            x       y       z     vdW  Elec       q    Type
REMARK                         _______ _______ _______ _____ _____    ______ ____
ROOT
ATOM      1  C   UNL     1      -0.730  -1.394  24.109  0.00  0.00    +0.095 C 
ATOM      2  C   UNL     1      -0.284  -0.700  24.121  0.00  0.00    +0.227 C 
ATOM      3  O   UNL     1       0.508  -0.715  23.893  0.00  0.00    -0.275 OA
ATOM      4  N   UNL     1      -0.632   0.009  24.363  0.00  0.00    -0.270 N 
ATOM      5  C   UNL     1      -0.186   0.702  24.375  0.00  0.00    +0.115 C 
ATOM      6  C   UNL     1      -0.534   1.412  24.616  0.00  0.00    +0.115 C 
ATOM      7  N   UNL     1      -1.325   1.426  24.844  0.00  0.00    -0.275 N 
ATOM      8  C   UNL     1      -1.771   0.731  24.831  0.00  0.00    +0.123 C 
ATOM      9  C   UNL     1      -1.424   0.023  24.590  0.00  0.00    +0.174 C 
ATOM     20  C   UNL     1      -1.673   2.134  25.085  0.00  0.00    +0.237 C 
ATOM     21  O   UNL     1      -2.466   2.148  25.313  0.00  0.00    -0.274 OA
ENDROOT
BRANCH   9  10
ATOM     10  C   UNL     1      -1.870  -0.672  24.577  0.00  0.00    +0.262 C 
ATOM     11  O   UNL     1      -1.494  -1.404  24.628  0.00  0.00    -0.271 OA
ATOM     12  N   UNL     1      -2.691  -0.632  24.514  0.00  0.00    -0.196 NA
BRANCH  12  13
ATOM     13  C   UNL     1      -3.137  -1.327  24.501  0.00  0.00    +0.173 C 
ATOM     14  C   UNL     1      -2.976  -1.931  25.039  0.00  0.00    +0.033 C 
ATOM     15  C   UNL     1      -3.421  -2.625  25.026  0.00  0.00    +0.026 C 
ATOM     16  C   UNL     1      -4.029  -2.715  24.475  0.00  0.00    +0.115 C 
ATOM     17  N   UNL     1      -4.191  -2.111  23.938  0.00  0.00    -0.204 NA
ATOM     18  C   UNL     1      -3.745  -1.416  23.950  0.00  0.00    +0.261 C 
ATOM     19  O   UNL     1      -3.907  -0.813  23.413  0.00  0.00    -0.271 OA
ENDBRANCH  12  13
ENDBRANCH   9  10
BRANCH  20  22
ATOM     22  C   UNL     1      -1.227   2.828  25.098  0.00  0.00    +0.143 C 
BRANCH  22  23
ATOM     23  S   UNL     1      -1.597   3.553  25.232  0.00  0.00    -0.119 S 
BRANCH  23  24
ATOM     24  C   UNL     1      -1.148   4.245  25.272  0.00  0.00    +0.172 C 
BRANCH  24  25
ATOM     25  C   UNL     1      -1.522   4.980  25.267  0.00  0.00    +0.376 C 
ATOM     26  O   UNL     1      -2.246   5.075  25.650  0.00  0.00    -0.245 OA
ATOM     27  O   UNL     1      -1.172   5.619  24.880  0.00  0.00    -0.245 OA
ENDBRANCH  24  25
ENDBRANCH  23  24
ENDBRANCH  22  23
ENDBRANCH  20  22
TORSDOF 6
ENDMDL
MODEL 4
REMARK VINA RESULT:      -8.8      2.664      4.117
REMARK  Name = 
REMARK  6 active torsions:
REMARK  status: ('A' for Active; 'I' for Inactive)
REMARK    1  A    between atoms: C_9  and  C_10
REMARK    2  A    between atoms: N_12  and  C_13
REMARK    3  A    between atoms: C_20  and  C_22
REMARK    4  A    between atoms: C_22  and  S_23
REMARK    5  A    between atoms: S_23  and  C_24
REMARK    6  A    between atoms: C_24  and  C_25
REMARK                            x       y       z     vdW  Elec       q    Type
REMARK                         _______ _______ _______ _____ _____    ______ ____
ROOT
ATOM      1  C   UNL     1      -4.027  -0.397  25.566  0.00  0.00    +0.095 C 
ATOM      2  C   UNL     1      -3.349  -0.854  25.454  0.00  0.00    +0.227 C 
ATOM      3  O   UNL     1      -3.324  -1.631  25.731  0.00  0.00    -0.275 OA
ATOM      4  N   UNL     1      -2.696  -0.533  25.064  0.00  0.00    -0.270 N 
ATOM      5  C   UNL     1      -2.018  -0.990  24.952  0.00  0.00    +0.115 C 
ATOM      6  C   UNL     1      -1.365  -0.669  24.562  0.00  0.00    +0.115 C 
ATOM      7  N   UNL     1      -1.390   0.106  24.285  0.00  0.00    -0.275 N 
ATOM      8  C   UNL     1      -2.069   0.563  24.397  0.00  0.00    +0.123 C 
ATOM      9  C   UNL     1      -2.721   0.242  24.786  0.00  0.00    +0.174 C 
ATOM     20  C   UNL     1      -0.738   0.427  23.895  0.00  0.00    +0.237 C 
ATOM     21  O   UNL     1      -0.763   1.203  23.617  0.00  0.00    -0.274 OA
ENDROOT
BRANCH   9  10
ATOM     10  C   UNL     1      -3.400   0.699  24.899  0.00  0.00    +0.262 C 
ATOM     11  O   UNL     1      -4.115   0.335  25.088  0.00  0.00    -0.271 OA
ATOM     12  N   UNL     1      -3.361   1.519  24.821  0.00  0.00    -0.196 NA
BRANCH  12  13
ATOM     13  C   UNL     1      -4.040   1.976  24.933  0.00  0.00    +0.173 C 
ATOM     14  C   UNL     1      -4.766   1.715  24.641  0.00  0.00    +0.033 C 
ATOM     15  C   UNL     1      -5.443   2.171  24.754  0.00  0.00    +0.026 C 
ATOM     16  C   UNL     1      -5.396   2.889  25.158  0.00  0.00    +0.115 C 
ATOM     17  N   UNL     1      -4.669   3.150  25.450  0.00  0.00    -0.204 NA
ATOM     18  C   UNL     1      -3.991   2.693  25.338  0.00  0.00    +0.261 C 
ATOM     19  O   UNL     1      -3.266   2.954  25.629  0.00  0.00    -0.271 OA
ENDBRANCH  12  13
ENDBRANCH   9  10
BRANCH  20  22
ATOM     22  C   UNL     1      -0.060  -0.030  23.783  0.00  0.00    +0.143 C 
BRANCH  22  23
ATOM     23  S   UNL     1       0.531   0.229  23.267  0.00  0.00    -0.119 S 
BRANCH  23  24
ATOM     24  C   UNL     1       1.184  -0.253  23.113  0.00  0.00    +0.172 C 
BRANCH  24  25
ATOM     25  C   UNL     1       1.740  -0.024  22.549  0.00  0.00    +0.376 C 
ATOM     26  O   UNL     1       1.633  -0.230  21.758  0.00  0.00    -0.245 OA
ATOM     27  O   UNL     1       2.404   0.411  22.776  0.00  0.00    -0.245 OA
ENDBRANCH  24  25
ENDBRANCH  23  24
ENDBRANCH  22  23
ENDBRANCH  20  22
TORSDOF 6
ENDMDL
MODEL 5
REMARK VINA RESULT:      -8.1      2.421      5.778
REMARK  Name = 
REMARK  6 active torsions:
REMARK  status: ('A' for Active; 'I' for Inactive)
REMARK    1  A    between atoms: C_9  and  C_10
REMARK    2  A    between atoms: N_12  and  C_13
REMARK    3  A    between atoms: C_20  and  C_22
REMARK    4  A    between atoms: C_22  and  S_23
REMARK    5  A    between atoms: S_23  and  C_24
REMARK    6  A    between atoms: C_24  and  C_25
REMARK                            x       y       z     vdW  Elec       q    Type
REMARK                         _______ _______ _______ _____ _____    ______ ____
ROOT
ATOM      1  C   UNL     1       0.416   2.515  24.430  0.00  0.00    +0.095 C 
ATOM      2  C   UNL     1       0.434   1.711  24.245  0.00  0.00    +0.227 C 
ATOM      3  O   UNL     1       1.111   1.379  23.910  0.00  0.00    -0.275 OA
ATOM      4  N   UNL     1      -0.227   1.239  24.396  0.00  0.00    -0.270 N 
ATOM      5  C   UNL     1      -0.209   0.435  24.211  0.00  0.00    +0.115 C 
ATOM      6  C   UNL     1      -0.870  -0.037  24.361  0.00  0.00    +0.115 C 
ATOM      7  N   UNL     1      -1.546   0.295  24.695  0.00  0.00    -0.275 N 
ATOM      8  C   UNL     1      -1.563   1.099  24.880  0.00  0.00    +0.123 C 
ATOM      9  C   UNL     1      -0.903   1.571  24.730  0.00  0.00    +0.174 C 
ATOM     20  C   UNL     1      -2.206  -0.176  24.846  0.00  0.00    +0.237 C 
ATOM     21  O   UNL     1      -2.883   0.156  25.181  0.00  0.00    -0.274 OA
ENDROOT
BRANCH   9  10
ATOM     10  C   UNL     1      -0.920   2.375  24.915  0.00  0.00    +0.262 C 
ATOM     11  O   UNL     1      -0.249   2.742  25.224  0.00  0.00    -0.271 OA
ATOM     12  N   UNL     1      -1.609   2.812  24.791  0.00  0.00    -0.196 NA
BRANCH  12  13
ATOM     13  C   UNL     1      -1.626   3.616  24.976  0.00  0.00    +0.173 C 
ATOM     14  C   UNL     1      -1.024   4.113  24.711  0.00  0.00    +0.033 C 
ATOM     15  C   UNL     1      -1.041   4.916  24.896  0.00  0.00    +0.026 C 
ATOM     16  C   UNL     1      -1.661   5.224  25.346  0.00  0.00    +0.115 C 
ATOM     17  N   UNL     1      -2.264   4.726  25.610  0.00  0.00    -0.204 NA
ATOM     18  C   UNL     1      -2.247   3.922  25.425  0.00  0.00    +0.261 C 
ATOM     19  O   UNL     1      -2.849   3.425  25.689  0.00  0.00    -0.271 OA
ENDBRANCH  12  13
ENDBRANCH   9  10
BRANCH  20  22
ATOM     22  C   UNL     1      -2.188  -0.980  24.661  0.00  0.00    +0.143 C 
BRANCH  22  23
ATOM     23  S   UNL     1      -2.878  -1.431  24.715  0.00  0.00    -0.119 S 
BRANCH  23  24
ATOM     24  C   UNL     1      -2.897  -2.195  24.403  0.00  0.00    +0.172 C 
BRANCH  24  25
ATOM     25  C   UNL     1      -3.559  -2.672  24.524  0.00  0.00    +0.376 C 
ATOM     26  O   UNL     1      -3.618  -3.127  25.209  0.00  0.00    -0.245 OA
ATOM     27  O   UNL     1      -4.160  -2.695  23.959  0.00  0.00    -0.245 OA
ENDBRANCH  24  25
ENDBRANCH  23  24
ENDBRANCH  22  23
ENDBRANCH  20  22
TORSDOF 6
ENDMDL
MODEL 6
REMARK VINA RESULT:      -8.0      2.662      4.088
REMARK  Name = 
REMARK  6 active torsions:
REMARK  status: ('A' for Active; 'I' for Inactive)
REMARK    1  A    between atoms: C_9  and  C_10
REMARK    2  A    between atoms: N_12  and  C_13
REMARK    3  A    between atoms: C_20  and  C_22
REMARK    4  A    between atoms: C_22  and  S_23
REMARK    5  A    between atoms: S_23  and  C_24
REMARK    6  A    between atoms: C_24  and  C_25
REMARK                            x       y       z     vdW  Elec       q    Type
REMARK                         _______ _______ _______ _____ _____    ______ ____
ROOT
ATOM      1  C   UNL     1      -2.670   3.594  25.497  0.00  0.00    +0.095 C 
ATOM      2  C   UNL     1      -1.857   3.537  25.373  0.00  0.00    +0.227 C 
ATOM      3  O   UNL     1      -1.357   4.144  25.622  0.00  0.00    -0.275 OA
ATOM      4  N   UNL     1      -1.543   2.871  24.998  0.00  0.00    -0.270 N 
ATOM      5  C   UNL     1      -0.730   2.814  24.874  0.00  0.00    +0.115 C 
ATOM      6  C   UNL     1      -0.416   2.148  24.499  0.00  0.00    +0.115 C 
ATOM      7  N   UNL     1      -0.915   1.542  24.250  0.00  0.00    -0.275 N 
ATOM      8  C   UNL     1      -1.729   1.600  24.375  0.00  0.00    +0.123 C 
ATOM      9  C   UNL     1      -2.042   2.265  24.749  0.00  0.00    +0.174 C 
ATOM     20  C   UNL     1      -0.602   0.877  23.876  0.00  0.00    +0.237 C 
ATOM     21  O   UNL     1      -1.102   0.270  23.627  0.00  0.00    -0.274 OA
ENDROOT
BRANCH   9  10
ATOM     10  C   UNL     1      -2.856   2.322  24.874  0.00  0.00    +0.262 C 
ATOM     11  O   UNL     1      -3.170   2.989  25.246  0.00  0.00    -0.271 OA
ATOM     12  N   UNL     1      -3.355   1.714  24.627  0.00  0.00    -0.196 NA
BRANCH  12  13
ATOM     13  C   UNL     1      -4.169   1.771  24.752  0.00  0.00    +0.173 C 
ATOM     14  C   UNL     1      -4.571   2.460  24.541  0.00  0.00    +0.033 C 
ATOM     15  C   UNL     1      -5.384   2.517  24.666  0.00  0.00    +0.026 C 
ATOM     16  C   UNL     1      -5.796   1.886  25.002  0.00  0.00    +0.115 C 
ATOM     17  N   UNL     1      -5.394   1.198  25.213  0.00  0.00    -0.204 NA
ATOM     18  C   UNL     1      -4.580   1.140  25.088  0.00  0.00    +0.261 C 
ATOM     19  O   UNL     1      -4.178   0.452  25.300  0.00  0.00    -0.271 OA
ENDBRANCH  12  13
ENDBRANCH   9  10
BRANCH  20  22
ATOM     22  C   UNL     1       0.211   0.820  23.751  0.00  0.00    +0.143 C 
BRANCH  22  23
ATOM     23  S   UNL     1       0.505   0.307  23.174  0.00  0.00    -0.119 S 
BRANCH  23  24
ATOM     24  C   UNL     1       1.282   0.033  23.223  0.00  0.00    +0.172 C 
BRANCH  24  25
ATOM     25  C   UNL     1       1.733  -0.049  22.537  0.00  0.00    +0.376 C 
ATOM     26  O   UNL     1       2.508   0.234  22.517  0.00  0.00    -0.245 OA
ATOM     27  O   UNL     1       1.410  -0.413  21.871  0.00  0.00    -0.245 OA
ENDBRANCH  24  25
ENDBRANCH  23  24
ENDBRANCH  22  23
ENDBRANCH  20  22
TORSDOF 6
ENDMDL
MODEL 7
REMARK VINA RESULT:      -7.7      2.678      4.224
REMARK  Name = 
REMARK  6 active torsions:
REMARK  status: ('A' for Active; 'I' for Inactive)
REMARK    1  A    between atoms: C_9  and  C_10
REMARK    2  A    between atoms: N_12  and  C_13
REMARK    3  A    between atoms: C_20  and  C_22
REMARK    4  A    between atoms: C_22  and  S_23
REMARK    5  A    between atoms: S_23  and  C_24
REMARK    6  A    between atoms: C_24  and  C_25
REMARK                            x       y       z     vdW  Elec       q    Type
REMARK                         _______ _______ _______ _____ _____    ______ ____
ROOT
ATOM      1  C   UNL     1      -1.153  -1.429  24.656  0.00  0.00    +0.095 C 
ATOM      2  C   UNL     1      -1.934  -1.363  24.914  0.00  0.00    +0.227 C 
ATOM      3  O   UNL     1      -2.315  -2.014  25.248  0.00  0.00    -0.275 OA
ATOM      4  N   UNL     1      -2.333  -0.644  24.839  0.00  0.00    -0.270 N 
ATOM      5  C   UNL     1      -3.114  -0.578  25.097  0.00  0.00    +0.115 C 
ATOM      6  C   UNL     1      -3.513   0.140  25.022  0.00  0.00    +0.115 C 
ATOM      7  N   UNL     1      -3.133   0.791  24.689  0.00  0.00    -0.275 N 
ATOM      8  C   UNL     1      -2.351   0.724  24.430  0.00  0.00    +0.123 C 
ATOM      9  C   UNL     1      -1.952   0.006  24.506  0.00  0.00    +0.174 C 
ATOM     20  C   UNL     1      -3.531   1.509  24.613  0.00  0.00    +0.237 C 
ATOM     21  O   UNL     1      -3.150   2.160  24.279  0.00  0.00    -0.274 OA
ENDROOT
BRANCH   9  10
ATOM     10  C   UNL     1      -1.171  -0.061  24.247  0.00  0.00    +0.262 C 
ATOM     11  O   UNL     1      -0.778  -0.784  24.304  0.00  0.00    -0.271 OA
ATOM     12  N   UNL     1      -0.784   0.596  23.932  0.00  0.00    -0.196 NA
BRANCH  12  13
ATOM     13  C   UNL     1      -0.003   0.529  23.673  0.00  0.00    +0.173 C 
ATOM     14  C   UNL     1       0.210  -0.077  23.156  0.00  0.00    +0.033 C 
ATOM     15  C   UNL     1       0.990  -0.143  22.898  0.00  0.00    +0.026 C 
ATOM     16  C   UNL     1       1.558   0.396  23.156  0.00  0.00    +0.115 C 
ATOM     17  N   UNL     1       1.345   1.003  23.673  0.00  0.00    -0.204 NA
ATOM     18  C   UNL     1       0.564   1.070  23.932  0.00  0.00    +0.261 C 
ATOM     19  O   UNL     1       0.351   1.676  24.448  0.00  0.00    -0.271 OA
ENDBRANCH  12  13
ENDBRANCH   9  10
BRANCH  20  22
ATOM     22  C   UNL     1      -4.312   1.575  24.872  0.00  0.00    +0.143 C 
BRANCH  22  23
ATOM     23  S   UNL     1      -4.625   2.318  25.051  0.00  0.00    -0.119 S 
BRANCH  23  24
ATOM     24  C   UNL     1      -5.428   2.395  25.225  0.00  0.00    +0.172 C 
BRANCH  24  25
ATOM     25  C   UNL     1      -5.682   2.987  25.742  0.00  0.00    +0.376 C 
ATOM     26  O   UNL     1      -5.873   2.797  26.522  0.00  0.00    -0.245 OA
ATOM     27  O   UNL     1      -5.745   3.766  25.478  0.00  0.00    -0.245 OA
ENDBRANCH  24  25
ENDBRANCH  23  24
ENDBRANCH  22  23
ENDBRANCH  20  22
TORSDOF 6
ENDMDL
MODEL 8
REMARK VINA RESULT:      -7.5      2.573      4.255
REMARK  Name = 
REMARK  6 active torsions:
REMARK  status: ('A' for Active; 'I' for Inactive)
REMARK    1  A    between atoms: C_9  and  C_10
REMARK    2  A    between atoms: N_12  and  C_13
REMARK    3  A    between atoms: C_20  and  C_22
REMARK    4  A    between atoms: C_22  and  S_23
REMARK    5  A    between atoms: S_23  and  C_24
REMARK    6  A    between atoms: C_24  and  C_25
REMARK                            x       y       z     vdW  Elec       q    Type
REMARK                         _______ _______ _______ _____ _____    ______ ____
ROOT
ATOM      1  C   UNL     1       0.218   2.263  25.248  0.00  0.00    +0.095 C 
ATOM      2  C   UNL     1      -0.392   2.709  25.578  0.00  0.00    +0.227 C 
ATOM      3  O   UNL     1      -0.226   3.269  26.161  0.00  0.00    -0.275 OA
ATOM      4  N   UNL     1      -1.169   2.596  25.323  0.00  0.00    -0.270 N 
ATOM      5  C   UNL     1      -1.779   3.043  25.653  0.00  0.00    +0.115 C 
ATOM      6  C   UNL     1      -2.557   2.929  25.399  0.00  0.00    +0.115 C 
ATOM      7  N   UNL     1      -2.723   2.371  24.816  0.00  0.00    -0.275 N 
ATOM      8  C   UNL     1      -2.111   1.924  24.487  0.00  0.00    +0.123 C 
ATOM      9  C   UNL     1      -1.335   2.037  24.741  0.00  0.00    +0.174 C 
ATOM     20  C   UNL     1      -3.499   2.257  24.562  0.00  0.00    +0.237 C 
ATOM     21  O   UNL     1      -3.665   1.698  23.979  0.00  0.00    -0.274 OA
ENDROOT
BRANCH   9  10
ATOM     10  C   UNL     1      -0.724   1.590  24.411  0.00  0.00    +0.262 C 
ATOM     11  O   UNL     1       0.023   1.926  24.307  0.00  0.00    -0.271 OA
ATOM     12  N   UNL     1      -0.861   0.809  24.187  0.00  0.00    -0.196 NA
BRANCH  12  13
ATOM     13  C   UNL     1      -0.249   0.362  23.857  0.00  0.00    +0.173 C 
ATOM     14  C   UNL     1       0.240   0.693  23.281  0.00  0.00    +0.033 C 
ATOM     15  C   UNL     1       0.850   0.247  22.952  0.00  0.00    +0.026 C 
ATOM     16  C   UNL     1       0.972  -0.531  23.198  0.00  0.00    +0.115 C 
ATOM     17  N   UNL     1       0.482  -0.863  23.774  0.00  0.00    -0.204 NA
ATOM     18  C   UNL     1      -0.129  -0.416  24.104  0.00  0.00    +0.261 C 
ATOM     19  O   UNL     1      -0.617  -0.747  24.679  0.00  0.00    -0.271 OA
ENDBRANCH  12  13
ENDBRANCH   9  10
BRANCH  20  22
ATOM     22  C   UNL     1      -4.109   2.704  24.892  0.00  0.00    +0.143 C 
BRANCH  22  23
ATOM     23  S   UNL     1      -4.871   2.389  24.940  0.00  0.00    -0.119 S 
BRANCH  23  24
ATOM     24  C   UNL     1      -5.459   2.792  25.356  0.00  0.00    +0.172 C 
BRANCH  24  25
ATOM     25  C   UNL     1      -6.095   2.377  25.677  0.00  0.00    +0.376 C 
ATOM     26  O   UNL     1      -6.613   1.970  25.180  0.00  0.00    -0.245 OA
ATOM     27  O   UNL     1      -6.213   2.368  26.493  0.00  0.00    -0.245 OA
ENDBRANCH  24  25
ENDBRANCH  23  24
ENDBRANCH  22  23
ENDBRANCH  20  22
TORSDOF 6
ENDMDL
MODEL 9
REMARK VINA RESULT:      -7.4      3.476      4.084
REMARK  Name = 
REMARK  6 active torsions:
REMARK  status: ('A' for Active; 'I' for Inactive)
REMARK    1  A    between atoms: C_9  and  C_10
REMARK    2  A    between atoms: N_12  and  C_13
REMARK    3  A    between atoms: C_20  and  C_22
REMARK    4  A    between atoms: C_22  and  S_23
REMARK    5  A    between atoms: S_23  and  C_24
REMARK    6  A    between atoms: C_24  and  C_25
REMARK                            x       y       z     vdW  Elec       q    Type
REMARK                         _______ _______ _______ _____ _____    ______ ____
ROOT
ATOM      1  C   UNL     1      -2.396   1.721  25.002  0.00  0.00    +0.095 C 
ATOM      2  C   UNL     1      -1.661   2.090  24.942  0.00  0.00    +0.227 C 
ATOM      3  O   UNL     1      -1.553   2.849  25.245  0.00  0.00    -0.275 OA
ATOM      4  N   UNL     1      -1.033   1.698  24.576  0.00  0.00    -0.270 N 
ATOM      5  C   UNL     1      -0.297   2.066  24.515  0.00  0.00    +0.115 C 
ATOM      6  C   UNL     1       0.331   1.675  24.150  0.00  0.00    +0.115 C 
ATOM      7  N   UNL     1       0.223   0.916  23.847  0.00  0.00    -0.275 N 
ATOM      8  C   UNL     1      -0.513   0.548  23.908  0.00  0.00    +0.123 C 
ATOM      9  C   UNL     1      -1.140   0.939  24.273  0.00  0.00    +0.174 C 
ATOM     20  C   UNL     1       0.851   0.524  23.482  0.00  0.00    +0.237 C 
ATOM     21  O   UNL     1       0.743  -0.235  23.178  0.00  0.00    -0.274 OA
ENDROOT
BRANCH   9  10
ATOM     10  C   UNL     1      -1.877   0.571  24.334  0.00  0.00    +0.262 C 
ATOM     11  O   UNL     1      -2.568   1.010  24.229  0.00  0.00    -0.271 OA
ATOM     12  N   UNL     1      -1.921  -0.236  24.500  0.00  0.00    -0.196 NA
BRANCH  12  13
ATOM     13  C   UNL     1      -2.657  -0.604  24.561  0.00  0.00    +0.173 C 
ATOM     14  C   UNL     1      -3.243  -0.451  24.001  0.00  0.00    +0.033 C 
ATOM     15  C   UNL     1      -3.978  -0.819  24.062  0.00  0.00    +0.026 C 
ATOM     16  C   UNL     1      -4.129  -1.341  24.683  0.00  0.00    +0.115 C 
ATOM     17  N   UNL     1      -3.543  -1.494  25.243  0.00  0.00    -0.204 NA
ATOM     18  C   UNL     1      -2.807  -1.126  25.182  0.00  0.00    +0.261 C 
ATOM     19  O   UNL     1      -2.221  -1.279  25.742  0.00  0.00    -0.271 OA
ENDBRANCH  12  13
ENDBRANCH   9  10
BRANCH  20  22
ATOM     22  C   UNL     1       1.586   0.893  23.421  0.00  0.00    +0.143 C 
BRANCH  22  23
ATOM     23  S   UNL     1       2.210   0.507  23.041  0.00  0.00    -0.119 S 
BRANCH  23  24
ATOM     24  C   UNL     1       2.942   0.882  22.966  0.00  0.00    +0.172 C 
BRANCH  24  25
ATOM     25  C   UNL     1       3.570   0.490  22.603  0.00  0.00    +0.376 C 
ATOM     26  O   UNL     1       3.650   0.513  21.782  0.00  0.00    -0.245 OA
ATOM     27  O   UNL     1       4.117   0.075  23.060  0.00  0.00    -0.245 OA
ENDBRANCH  24  25
ENDBRANCH  23  24
ENDBRANCH  22  23
ENDBRANCH  20  22
TORSDOF 6
ENDMDL
