REMARK  Name = 
REMARK  9 active torsions:
REMARK  status: ('A' for Active; 'I' for Inactive)
REMARK    1  A    between atoms: S_2  and  C_3
REMARK    2  A    between atoms: C_7  and  N_8
REMARK    3  A    between atoms: N_11  and  C_12
REMARK    4  A    between atoms: C_16  and  C_17
REMARK    5  A    between atoms: N_19  and  C_20
REMARK    6  A    between atoms: C_20  and  C_21
REMARK    7  A    between atoms: C_20  and  C_28
REMARK    8  A    between atoms: C_21  and  C_22
REMARK    9  A    between atoms: C_31  and  C_33
REMARK                            x       y       z     vdW  Elec       q    Type
REMARK                         _______ _______ _______ _____ _____    ______ ____
ROOT
ATOM     12  C   UNL     1       2.143  -3.712   0.000  0.00  0.00    +0.126 C 
ATOM     13  C   UNL     1       2.811  -4.197   0.000  0.00  0.00    +0.045 C 
ATOM     14  C   UNL     1       2.556  -4.982   0.000  0.00  0.00    +0.096 C 
ATOM     15  N   UNL     1       1.731  -4.982   0.000  0.00  0.00    -0.267 N 
ATOM     16  C   UNL     1       1.476  -4.197   0.000  0.00  0.00    +0.174 C 
ATOM     31  C   UNL     1       1.246  -5.649   0.000  0.00  0.00    +0.265 C 
ATOM     32  O   UNL     1       0.425  -5.563   0.000  0.00  0.00    -0.268 OA
ENDROOT
BRANCH  31  33
ATOM     33  C   UNL     1       1.581  -6.403   0.000  0.00  0.00    +0.114 A 
ATOM     34  C   UNL     1       2.389  -6.575   0.000  0.00  0.00    +0.023 A 
ATOM     35  C   UNL     1       2.475  -7.395   0.000  0.00  0.00    +0.020 A 
ATOM     36  C   UNL     1       1.721  -7.731   0.000  0.00  0.00    +0.076 A 
ATOM     37  N   UNL     1       1.169  -7.118   0.000  0.00  0.00    -0.320 N 
ATOM     38  C   UNL     1       0.349  -7.204   0.000  0.00  0.00    +0.131 C 
ENDBRANCH  31  33
BRANCH  12  11
ATOM      8  N   UNL     1       2.858  -1.650   0.000  0.00  0.00    -0.161 NA
ATOM      9  C   UNL     1       2.858  -2.475   0.000  0.00  0.00    +0.344 C 
ATOM     10  O   UNL     1       3.572  -2.888   0.000  0.00  0.00    -0.249 OA
ATOM     11  N   UNL     1       2.143  -2.888   0.000  0.00  0.00    -0.186 NA
BRANCH   8   7
ATOM      3  C   UNL     1       4.287   0.000   0.000  0.00  0.00    +0.027 A 
ATOM      4  C   UNL     1       5.001  -0.412   0.000  0.00  0.00    +0.006 A 
ATOM      5  C   UNL     1       5.001  -1.238   0.000  0.00  0.00    +0.002 A 
ATOM      6  C   UNL     1       4.287  -1.650   0.000  0.00  0.00    +0.017 A 
ATOM      7  C   UNL     1       3.572  -1.238   0.000  0.00  0.00    +0.075 A 
ATOM     39  C   UNL     1       3.572  -0.412   0.000  0.00  0.00    +0.023 A 
BRANCH   3   2
ATOM      1  C   UNL     1       5.001   1.238   0.000  0.00  0.00    +0.074 C 
ATOM      2  S   UNL     1       4.287   0.825   0.000  0.00  0.00    -0.113 S 
ENDBRANCH   3   2
ENDBRANCH   8   7
ENDBRANCH  12  11
BRANCH  16  17
ATOM     17  C   UNL     1       0.691  -3.942   0.000  0.00  0.00    +0.262 C 
ATOM     18  O   UNL     1       0.520  -3.135   0.000  0.00  0.00    -0.271 OA
ATOM     19  N   UNL     1       0.078  -4.495   0.000  0.00  0.00    -0.196 NA
BRANCH  19  20
ATOM     20  C   UNL     1      -0.706  -4.240   0.000  0.00  0.00    +0.179 C 
BRANCH  20  28
ATOM     28  C   UNL     1      -0.878  -3.433   0.000  0.00  0.00    +0.281 C 
ATOM     29  N   UNL     1      -1.663  -3.178   0.000  0.00  0.00    -0.086 NA
ATOM     30  O   UNL     1      -0.265  -2.881   0.000  0.00  0.00    -0.270 OA
ENDBRANCH  20  28
BRANCH  20  21
ATOM     21  C   UNL     1      -1.319  -4.792   0.000  0.00  0.00    +0.057 C 
BRANCH  21  22
ATOM     22  C   UNL     1      -2.104  -4.537   0.000  0.00  0.00    -0.020 A 
ATOM     23  C   UNL     1      -2.717  -5.089   0.000  0.00  0.00    -0.004 A 
ATOM     24  C   UNL     1      -3.502  -4.834   0.000  0.00  0.00    -0.000 A 
ATOM     25  C   UNL     1      -3.673  -4.027   0.000  0.00  0.00    -0.000 A 
ATOM     26  C   UNL     1      -3.060  -3.475   0.000  0.00  0.00    -0.000 A 
ATOM     27  C   UNL     1      -2.276  -3.730   0.000  0.00  0.00    -0.004 A 
ENDBRANCH  21  22
ENDBRANCH  20  21
ENDBRANCH  19  20
ENDBRANCH  16  17
TORSDOF 9
