MODEL 1
REMARK VINA RESULT:     -11.0      0.000      0.000
REMARK  Name = 
REMARK  5 active torsions:
REMARK  status: ('A' for Active; 'I' for Inactive)
REMARK    1  A    between atoms: C_4  and  C_5
REMARK    2  A    between atoms: C_5  and  N_6
REMARK    3  A    between atoms: C_10  and  C_11
REMARK    4  A    between atoms: C_13  and  C_16
REMARK    5  A    between atoms: C_19  and  N_22
REMARK                            x       y       z     vdW  Elec       q    Type
REMARK                         _______ _______ _______ _____ _____    ______ ____
ROOT
ATOM      6  N   UNL     1      -3.682   0.128  24.660  0.00  0.00    -0.263 NA
ATOM      7  C   UNL     1      -4.413  -0.250  24.596  0.00  0.00    +0.073 C 
ATOM      8  C   UNL     1      -4.282  -1.064  24.625  0.00  0.00    +0.019 C 
ATOM      9  C   UNL     1      -3.471  -1.189  24.707  0.00  0.00    +0.027 C 
ATOM     10  C   UNL     1      -3.101  -0.453  24.729  0.00  0.00    +0.138 C 
ENDROOT
BRANCH  10  11
ATOM     11  C   UNL     1      -2.290  -0.319  24.807  0.00  0.00    +0.251 A 
ATOM     12  N   UNL     1      -1.744  -0.283  24.190  0.00  0.00    -0.190 NA
ATOM     13  C   UNL     1      -0.999  -0.139  24.516  0.00  0.00    +0.205 A 
ATOM     14  N   UNL     1      -1.085  -0.087  25.335  0.00  0.00    -0.056 NA
ATOM     15  O   UNL     1      -1.883  -0.198  25.514  0.00  0.00    -0.336 OA
BRANCH  13  16
ATOM     16  C   UNL     1      -0.293  -0.062  24.097  0.00  0.00    +0.058 A 
ATOM     17  C   UNL     1      -0.008   0.688  23.905  0.00  0.00    +0.008 A 
ATOM     18  C   UNL     1       0.699   0.766  23.486  0.00  0.00    +0.038 A 
ATOM     19  C   UNL     1       1.120   0.094  23.259  0.00  0.00    +0.149 A 
ATOM     20  N   UNL     1       0.834  -0.656  23.451  0.00  0.00    -0.226 NA
ATOM     21  C   UNL     1       0.128  -0.734  23.869  0.00  0.00    +0.104 A 
BRANCH  19  22
ATOM     22  N   UNL     1       1.827   0.172  22.840  0.00  0.00    -0.271 N 
ATOM     23  C   UNL     1       2.514   0.536  23.113  0.00  0.00    +0.104 A 
ATOM     24  C   UNL     1       3.082   0.489  22.516  0.00  0.00    +0.120 A 
ATOM     25  N   UNL     1       2.744   0.094  21.875  0.00  0.00    -0.222 NA
ATOM     26  C   UNL     1       1.968  -0.102  22.075  0.00  0.00    +0.184 A 
ENDBRANCH  19  22
ENDBRANCH  13  16
ENDBRANCH  10  11
BRANCH   6   5
ATOM      5  C   UNL     1      -3.557   0.944  24.657  0.00  0.00    +0.101 C 
BRANCH   5   4
ATOM      1  C   UNL     1      -6.155   1.958  25.466  0.00  0.00    +0.130 C 
ATOM      2  N   UNL     1      -5.361   1.922  25.245  0.00  0.00    -0.324 N 
ATOM      3  C   UNL     1      -4.939   1.236  25.063  0.00  0.00    +0.073 A 
ATOM      4  C   UNL     1      -4.167   1.455  24.873  0.00  0.00    +0.012 A 
ATOM     27  C   UNL     1      -4.112   2.275  24.938  0.00  0.00    +0.015 A 
ATOM     28  C   UNL     1      -4.850   2.564  25.168  0.00  0.00    +0.060 A 
ATOM     29  C   UNL     1      -4.960   3.374  25.277  0.00  0.00    +0.017 A 
ATOM     30  C   UNL     1      -4.333   3.896  25.156  0.00  0.00    +0.001 A 
ATOM     31  C   UNL     1      -3.595   3.608  24.927  0.00  0.00    +0.000 A 
ATOM     32  C   UNL     1      -3.484   2.798  24.817  0.00  0.00    +0.001 A 
ENDBRANCH   5   4
ENDBRANCH   6   5
TORSDOF 5
ENDMDL
MODEL 2
REMARK VINA RESULT:     -10.7      2.921      4.711
REMARK  Name = 
REMARK  5 active torsions:
REMARK  status: ('A' for Active; 'I' for Inactive)
REMARK    1  A    between atoms: C_4  and  C_5
REMARK    2  A    between atoms: C_5  and  N_6
REMARK    3  A    between atoms: C_10  and  C_11
REMARK    4  A    between atoms: C_13  and  C_16
REMARK    5  A    between atoms: C_19  and  N_22
REMARK                            x       y       z     vdW  Elec       q    Type
REMARK                         _______ _______ _______ _____ _____    ______ ____
ROOT
ATOM      6  N   UNL     1      -3.554   3.468  24.848  0.00  0.00    -0.263 NA
ATOM      7  C   UNL     1      -3.596   4.203  24.476  0.00  0.00    +0.073 C 
ATOM      8  C   UNL     1      -4.264   4.207  23.993  0.00  0.00    +0.019 C 
ATOM      9  C   UNL     1      -4.636   3.474  24.065  0.00  0.00    +0.027 C 
ATOM     10  C   UNL     1      -4.197   3.018  24.593  0.00  0.00    +0.138 C 
ENDROOT
BRANCH  10  11
ATOM     11  C   UNL     1      -4.370   2.245  24.828  0.00  0.00    +0.251 A 
ATOM     12  N   UNL     1      -4.001   1.561  24.551  0.00  0.00    -0.190 NA
ATOM     13  C   UNL     1      -4.345   0.914  24.931  0.00  0.00    +0.205 A 
ATOM     14  N   UNL     1      -4.926   1.199  25.443  0.00  0.00    -0.056 NA
ATOM     15  O   UNL     1      -4.941   2.021  25.379  0.00  0.00    -0.336 OA
BRANCH  13  16
ATOM     16  C   UNL     1      -4.143   0.123  24.819  0.00  0.00    +0.058 A 
ATOM     17  C   UNL     1      -4.199  -0.215  24.069  0.00  0.00    +0.008 A 
ATOM     18  C   UNL     1      -3.997  -1.008  23.957  0.00  0.00    +0.038 A 
ATOM     19  C   UNL     1      -3.739  -1.461  24.596  0.00  0.00    +0.149 A 
ATOM     20  N   UNL     1      -3.682  -1.123  25.346  0.00  0.00    -0.226 NA
ATOM     21  C   UNL     1      -3.884  -0.332  25.458  0.00  0.00    +0.104 A 
BRANCH  19  22
ATOM     22  N   UNL     1      -3.537  -2.254  24.483  0.00  0.00    -0.271 N 
ATOM     23  C   UNL     1      -2.793  -2.587  24.609  0.00  0.00    +0.104 A 
ATOM     24  C   UNL     1      -2.839  -3.391  24.430  0.00  0.00    +0.120 A 
ATOM     25  N   UNL     1      -3.613  -3.554  24.193  0.00  0.00    -0.222 NA
ATOM     26  C   UNL     1      -4.044  -2.851  24.226  0.00  0.00    +0.184 A 
ENDBRANCH  19  22
ENDBRANCH  13  16
ENDBRANCH  10  11
BRANCH   6   5
ATOM      5  C   UNL     1      -2.972   3.226  25.380  0.00  0.00    +0.101 C 
BRANCH   5   4
ATOM      1  C   UNL     1      -0.794   5.102  24.969  0.00  0.00    +0.130 C 
ATOM      2  N   UNL     1      -1.215   4.418  25.153  0.00  0.00    -0.324 N 
ATOM      3  C   UNL     1      -2.034   4.325  25.109  0.00  0.00    +0.073 A 
ATOM      4  C   UNL     1      -2.216   3.555  25.342  0.00  0.00    +0.012 A 
ATOM     27  C   UNL     1      -1.510   3.172  25.528  0.00  0.00    +0.015 A 
ATOM     28  C   UNL     1      -0.892   3.705  25.411  0.00  0.00    +0.060 A 
ATOM     29  C   UNL     1      -0.114   3.471  25.556  0.00  0.00    +0.017 A 
ATOM     30  C   UNL     1       0.046   2.706  25.818  0.00  0.00    +0.001 A 
ATOM     31  C   UNL     1      -0.573   2.172  25.934  0.00  0.00    +0.000 A 
ATOM     32  C   UNL     1      -1.351   2.405  25.790  0.00  0.00    +0.001 A 
ENDBRANCH   5   4
ENDBRANCH   6   5
TORSDOF 5
ENDMDL
MODEL 3
REMARK VINA RESULT:     -10.3      1.522      2.711
REMARK  Name = 
REMARK  5 active torsions:
REMARK  status: ('A' for Active; 'I' for Inactive)
REMARK    1  A    between atoms: C_4  and  C_5
REMARK    2  A    between atoms: C_5  and  N_6
REMARK    3  A    between atoms: C_10  and  C_11
REMARK    4  A    between atoms: C_13  and  C_16
REMARK    5  A    between atoms: C_19  and  N_22
REMARK                            x       y       z     vdW  Elec       q    Type
REMARK                         _______ _______ _______ _____ _____    ______ ____
ROOT
ATOM      6  N   UNL     1      -2.649   3.642  25.233  0.00  0.00    -0.263 NA
ATOM      7  C   UNL     1      -2.954   4.405  25.314  0.00  0.00    +0.073 C 
ATOM      8  C   UNL     1      -2.331   4.910  25.506  0.00  0.00    +0.019 C 
ATOM      9  C   UNL     1      -1.640   4.460  25.545  0.00  0.00    +0.027 C 
ATOM     10  C   UNL     1      -1.837   3.677  25.376  0.00  0.00    +0.138 C 
ENDROOT
BRANCH  10  11
ATOM     11  C   UNL     1      -1.315   3.039  25.353  0.00  0.00    +0.251 A 
ATOM     12  N   UNL     1      -0.901   2.775  24.690  0.00  0.00    -0.190 NA
ATOM     13  C   UNL     1      -0.444   2.125  24.916  0.00  0.00    +0.205 A 
ATOM     14  N   UNL     1      -0.576   1.988  25.719  0.00  0.00    -0.056 NA
ATOM     15  O   UNL     1      -1.113   2.553  25.989  0.00  0.00    -0.336 OA
BRANCH  13  16
ATOM     16  C   UNL     1       0.055   1.690  24.426  0.00  0.00    +0.058 A 
ATOM     17  C   UNL     1      -0.221   1.005  24.058  0.00  0.00    +0.008 A 
ATOM     18  C   UNL     1       0.279   0.569  23.567  0.00  0.00    +0.038 A 
ATOM     19  C   UNL     1       1.056   0.818  23.444  0.00  0.00    +0.149 A 
ATOM     20  N   UNL     1       1.332   1.503  23.812  0.00  0.00    -0.226 NA
ATOM     21  C   UNL     1       0.833   1.939  24.302  0.00  0.00    +0.104 A 
BRANCH  19  22
ATOM     22  N   UNL     1       1.556   0.382  22.953  0.00  0.00    -0.271 N 
ATOM     23  C   UNL     1       2.376   0.454  22.910  0.00  0.00    +0.104 A 
ATOM     24  C   UNL     1       2.651  -0.086  22.350  0.00  0.00    +0.120 A 
ATOM     25  N   UNL     1       1.999  -0.491  22.047  0.00  0.00    -0.222 NA
ATOM     26  C   UNL     1       1.322  -0.202  22.421  0.00  0.00    +0.184 A 
ENDBRANCH  19  22
ENDBRANCH  13  16
ENDBRANCH  10  11
BRANCH   6   5
ATOM      5  C   UNL     1      -3.081   2.966  25.043  0.00  0.00    +0.101 C 
BRANCH   5   4
ATOM      1  C   UNL     1      -5.802   3.797  25.624  0.00  0.00    +0.130 C 
ATOM      2  N   UNL     1      -5.149   3.336  25.422  0.00  0.00    -0.324 N 
ATOM      3  C   UNL     1      -4.367   3.595  25.374  0.00  0.00    +0.073 A 
ATOM      4  C   UNL     1      -3.899   2.953  25.155  0.00  0.00    +0.012 A 
ATOM     27  C   UNL     1      -4.390   2.297  25.067  0.00  0.00    +0.015 A 
ATOM     28  C   UNL     1      -5.163   2.533  25.232  0.00  0.00    +0.060 A 
ATOM     29  C   UNL     1      -5.779   1.987  25.188  0.00  0.00    +0.017 A 
ATOM     30  C   UNL     1      -5.623   1.205  24.980  0.00  0.00    +0.001 A 
ATOM     31  C   UNL     1      -4.850   0.968  24.814  0.00  0.00    +0.000 A 
ATOM     32  C   UNL     1      -4.233   1.514  24.858  0.00  0.00    +0.001 A 
ENDBRANCH   5   4
ENDBRANCH   6   5
TORSDOF 5
ENDMDL
MODEL 4
REMARK VINA RESULT:      -9.6      2.292      4.225
REMARK  Name = 
REMARK  5 active torsions:
REMARK  status: ('A' for Active; 'I' for Inactive)
REMARK    1  A    between atoms: C_4  and  C_5
REMARK    2  A    between atoms: C_5  and  N_6
REMARK    3  A    between atoms: C_10  and  C_11
REMARK    4  A    between atoms: C_13  and  C_16
REMARK    5  A    between atoms: C_19  and  N_22
REMARK                            x       y       z     vdW  Elec       q    Type
REMARK                         _______ _______ _______ _____ _____    ______ ____
ROOT
ATOM      6  N   UNL     1      -1.196  -1.419  24.679  0.00  0.00    -0.263 NA
ATOM      7  C   UNL     1      -1.131  -2.159  25.040  0.00  0.00    +0.073 C 
ATOM      8  C   UNL     1      -0.411  -2.185  25.440  0.00  0.00    +0.019 C 
ATOM      9  C   UNL     1      -0.030  -1.462  25.328  0.00  0.00    +0.027 C 
ATOM     10  C   UNL     1      -0.515  -0.990  24.858  0.00  0.00    +0.138 C 
ENDROOT
BRANCH  10  11
ATOM     11  C   UNL     1      -0.349  -0.220  24.609  0.00  0.00    +0.251 A 
ATOM     12  N   UNL     1      -0.698   0.469  24.900  0.00  0.00    -0.190 NA
ATOM     13  C   UNL     1      -0.370   1.110  24.497  0.00  0.00    +0.205 A 
ATOM     14  N   UNL     1       0.181   0.818  23.957  0.00  0.00    -0.056 NA
ATOM     15  O   UNL     1       0.194  -0.004  24.027  0.00  0.00    -0.336 OA
BRANCH  13  16
ATOM     16  C   UNL     1      -0.560   1.904  24.613  0.00  0.00    +0.058 A 
ATOM     17  C   UNL     1      -0.359   2.277  25.321  0.00  0.00    +0.008 A 
ATOM     18  C   UNL     1      -0.549   3.072  25.438  0.00  0.00    +0.038 A 
ATOM     19  C   UNL     1      -0.940   3.493  24.846  0.00  0.00    +0.149 A 
ATOM     20  N   UNL     1      -1.142   3.120  24.138  0.00  0.00    -0.226 NA
ATOM     21  C   UNL     1      -0.952   2.326  24.022  0.00  0.00    +0.104 A 
BRANCH  19  22
ATOM     22  N   UNL     1      -1.131   4.288  24.963  0.00  0.00    -0.271 N 
ATOM     23  C   UNL     1      -1.822   4.575  25.307  0.00  0.00    +0.104 A 
ATOM     24  C   UNL     1      -1.782   5.399  25.312  0.00  0.00    +0.120 A 
ATOM     25  N   UNL     1      -1.064   5.620  24.971  0.00  0.00    -0.222 NA
ATOM     26  C   UNL     1      -0.661   4.933  24.755  0.00  0.00    +0.184 A 
ENDBRANCH  19  22
ENDBRANCH  13  16
ENDBRANCH  10  11
BRANCH   6   5
ATOM      5  C   UNL     1      -1.830  -1.157  24.221  0.00  0.00    +0.101 C 
BRANCH   5   4
ATOM      1  C   UNL     1      -3.822  -3.263  24.385  0.00  0.00    +0.130 C 
ATOM      2  N   UNL     1      -3.470  -2.520  24.330  0.00  0.00    -0.324 N 
ATOM      3  C   UNL     1      -2.659  -2.368  24.312  0.00  0.00    +0.073 A 
ATOM      4  C   UNL     1      -2.554  -1.552  24.255  0.00  0.00    +0.012 A 
ATOM     27  C   UNL     1      -3.299  -1.199  24.238  0.00  0.00    +0.015 A 
ATOM     28  C   UNL     1      -3.865  -1.798  24.284  0.00  0.00    +0.060 A 
ATOM     29  C   UNL     1      -4.668  -1.607  24.279  0.00  0.00    +0.017 A 
ATOM     30  C   UNL     1      -4.905  -0.819  24.227  0.00  0.00    +0.001 A 
ATOM     31  C   UNL     1      -4.339  -0.221  24.180  0.00  0.00    +0.000 A 
ATOM     32  C   UNL     1      -3.536  -0.410  24.186  0.00  0.00    +0.001 A 
ENDBRANCH   5   4
ENDBRANCH   6   5
TORSDOF 5
ENDMDL
MODEL 5
REMARK VINA RESULT:      -9.5      1.190      2.916
REMARK  Name = 
REMARK  5 active torsions:
REMARK  status: ('A' for Active; 'I' for Inactive)
REMARK    1  A    between atoms: C_4  and  C_5
REMARK    2  A    between atoms: C_5  and  N_6
REMARK    3  A    between atoms: C_10  and  C_11
REMARK    4  A    between atoms: C_13  and  C_16
REMARK    5  A    between atoms: C_19  and  N_22
REMARK                            x       y       z     vdW  Elec       q    Type
REMARK                         _______ _______ _______ _____ _____    ______ ____
ROOT
ATOM      6  N   UNL     1      -3.521   0.979  24.817  0.00  0.00    -0.263 NA
ATOM      7  C   UNL     1      -4.283   1.230  24.622  0.00  0.00    +0.073 C 
ATOM      8  C   UNL     1      -4.227   1.985  24.296  0.00  0.00    +0.019 C 
ATOM      9  C   UNL     1      -3.431   2.202  24.289  0.00  0.00    +0.027 C 
ATOM     10  C   UNL     1      -2.995   1.580  24.611  0.00  0.00    +0.138 C 
ENDROOT
BRANCH  10  11
ATOM     11  C   UNL     1      -2.176   1.561  24.711  0.00  0.00    +0.251 A 
ATOM     12  N   UNL     1      -1.626   1.301  24.153  0.00  0.00    -0.190 NA
ATOM     13  C   UNL     1      -0.873   1.378  24.482  0.00  0.00    +0.205 A 
ATOM     14  N   UNL     1      -0.958   1.685  25.243  0.00  0.00    -0.056 NA
ATOM     15  O   UNL     1      -1.763   1.798  25.384  0.00  0.00    -0.336 OA
BRANCH  13  16
ATOM     16  C   UNL     1      -0.162   1.181  24.115  0.00  0.00    +0.058 A 
ATOM     17  C   UNL     1      -0.099   0.480  23.685  0.00  0.00    +0.008 A 
ATOM     18  C   UNL     1       0.614   0.283  23.318  0.00  0.00    +0.038 A 
ATOM     19  C   UNL     1       1.263   0.789  23.381  0.00  0.00    +0.149 A 
ATOM     20  N   UNL     1       1.200   1.490  23.810  0.00  0.00    -0.226 NA
ATOM     21  C   UNL     1       0.488   1.686  24.177  0.00  0.00    +0.104 A 
BRANCH  19  22
ATOM     22  N   UNL     1       1.976   0.592  23.013  0.00  0.00    -0.271 N 
ATOM     23  C   UNL     1       2.696   0.979  23.115  0.00  0.00    +0.104 A 
ATOM     24  C   UNL     1       3.258   0.600  22.644  0.00  0.00    +0.120 A 
ATOM     25  N   UNL     1       2.883  -0.021  22.252  0.00  0.00    -0.222 NA
ATOM     26  C   UNL     1       2.091  -0.026  22.480  0.00  0.00    +0.184 A 
ENDBRANCH  19  22
ENDBRANCH  13  16
ENDBRANCH  10  11
BRANCH   6   5
ATOM      5  C   UNL     1      -3.322   0.254  25.158  0.00  0.00    +0.101 C 
BRANCH   5   4
ATOM      1  C   UNL     1      -4.646  -1.629  23.388  0.00  0.00    +0.130 C 
ATOM      2  N   UNL     1      -4.196  -1.314  24.003  0.00  0.00    -0.324 N 
ATOM      3  C   UNL     1      -4.068  -0.512  24.150  0.00  0.00    +0.073 A 
ATOM      4  C   UNL     1      -3.587  -0.449  24.817  0.00  0.00    +0.012 A 
ATOM     27  C   UNL     1      -3.418  -1.211  25.082  0.00  0.00    +0.015 A 
ATOM     28  C   UNL     1      -3.794  -1.746  24.579  0.00  0.00    +0.060 A 
ATOM     29  C   UNL     1      -3.721  -2.557  24.712  0.00  0.00    +0.017 A 
ATOM     30  C   UNL     1      -3.273  -2.833  25.346  0.00  0.00    +0.001 A 
ATOM     31  C   UNL     1      -2.897  -2.298  25.849  0.00  0.00    +0.000 A 
ATOM     32  C   UNL     1      -2.969  -1.487  25.718  0.00  0.00    +0.001 A 
ENDBRANCH   5   4
ENDBRANCH   6   5
TORSDOF 5
ENDMDL
MODEL 6
REMARK VINA RESULT:      -9.5      2.045      3.417
REMARK  Name = 
REMARK  5 active torsions:
REMARK  status: ('A' for Active; 'I' for Inactive)
REMARK    1  A    between atoms: C_4  and  C_5
REMARK    2  A    between atoms: C_5  and  N_6
REMARK    3  A    between atoms: C_10  and  C_11
REMARK    4  A    between atoms: C_13  and  C_16
REMARK    5  A    between atoms: C_19  and  N_22
REMARK                            x       y       z     vdW  Elec       q    Type
REMARK                         _______ _______ _______ _____ _____    ______ ____
ROOT
ATOM      6  N   UNL     1      -2.629   3.874  24.920  0.00  0.00    -0.263 NA
ATOM      7  C   UNL     1      -2.773   4.616  25.251  0.00  0.00    +0.073 C 
ATOM      8  C   UNL     1      -2.052   4.929  25.499  0.00  0.00    +0.019 C 
ATOM      9  C   UNL     1      -1.461   4.380  25.322  0.00  0.00    +0.027 C 
ATOM     10  C   UNL     1      -1.818   3.729  24.964  0.00  0.00    +0.138 C 
ENDROOT
BRANCH  10  11
ATOM     11  C   UNL     1      -1.433   3.050  24.697  0.00  0.00    +0.251 A 
ATOM     12  N   UNL     1      -1.559   2.282  24.970  0.00  0.00    -0.190 NA
ATOM     13  C   UNL     1      -1.059   1.776  24.552  0.00  0.00    +0.205 A 
ATOM     14  N   UNL     1      -0.623   2.232  24.019  0.00  0.00    -0.056 NA
ATOM     15  O   UNL     1      -0.854   3.019  24.109  0.00  0.00    -0.336 OA
BRANCH  13  16
ATOM     16  C   UNL     1      -1.003   0.959  24.648  0.00  0.00    +0.058 A 
ATOM     17  C   UNL     1      -1.185   0.617  25.377  0.00  0.00    +0.008 A 
ATOM     18  C   UNL     1      -1.130  -0.201  25.474  0.00  0.00    +0.038 A 
ATOM     19  C   UNL     1      -0.892  -0.675  24.842  0.00  0.00    +0.149 A 
ATOM     20  N   UNL     1      -0.710  -0.333  24.114  0.00  0.00    -0.226 NA
ATOM     21  C   UNL     1      -0.766   0.484  24.017  0.00  0.00    +0.104 A 
BRANCH  19  22
ATOM     22  N   UNL     1      -0.837  -1.494  24.939  0.00  0.00    -0.271 N 
ATOM     23  C   UNL     1      -1.394  -2.049  24.695  0.00  0.00    +0.104 A 
ATOM     24  C   UNL     1      -1.116  -2.798  24.902  0.00  0.00    +0.120 A 
ATOM     25  N   UNL     1      -0.386  -2.704  25.275  0.00  0.00    -0.222 NA
ATOM     26  C   UNL     1      -0.213  -1.897  25.298  0.00  0.00    +0.184 A 
ENDBRANCH  19  22
ENDBRANCH  13  16
ENDBRANCH  10  11
BRANCH   6   5
ATOM      5  C   UNL     1      -3.197   3.367  24.601  0.00  0.00    +0.101 C 
BRANCH   5   4
ATOM      1  C   UNL     1      -5.698   4.318  25.730  0.00  0.00    +0.130 C 
ATOM      2  N   UNL     1      -5.123   3.829  25.398  0.00  0.00    -0.324 N 
ATOM      3  C   UNL     1      -4.357   4.052  25.190  0.00  0.00    +0.073 A 
ATOM      4  C   UNL     1      -3.974   3.391  24.880  0.00  0.00    +0.012 A 
ATOM     27  C   UNL     1      -4.503   2.759  24.896  0.00  0.00    +0.015 A 
ATOM     28  C   UNL     1      -5.214   3.030  25.216  0.00  0.00    +0.060 A 
ATOM     29  C   UNL     1      -5.851   2.512  25.300  0.00  0.00    +0.017 A 
ATOM     30  C   UNL     1      -5.778   1.726  25.065  0.00  0.00    +0.001 A 
ATOM     31  C   UNL     1      -5.068   1.455  24.744  0.00  0.00    +0.000 A 
ATOM     32  C   UNL     1      -4.430   1.972  24.659  0.00  0.00    +0.001 A 
ENDBRANCH   5   4
ENDBRANCH   6   5
TORSDOF 5
ENDMDL
MODEL 7
REMARK VINA RESULT:      -9.5      2.175      4.048
REMARK  Name = 
REMARK  5 active torsions:
REMARK  status: ('A' for Active; 'I' for Inactive)
REMARK    1  A    between atoms: C_4  and  C_5
REMARK    2  A    between atoms: C_5  and  N_6
REMARK    3  A    between atoms: C_10  and  C_11
REMARK    4  A    between atoms: C_13  and  C_16
REMARK    5  A    between atoms: C_19  and  N_22
REMARK                            x       y       z     vdW  Elec       q    Type
REMARK                         _______ _______ _______ _____ _____    ______ ____
ROOT
ATOM      6  N   UNL     1      -0.848   2.856  25.278  0.00  0.00    -0.263 NA
ATOM      7  C   UNL     1      -0.489   3.399  25.786  0.00  0.00    +0.073 C 
ATOM      8  C   UNL     1       0.140   3.019  26.161  0.00  0.00    +0.019 C 
ATOM      9  C   UNL     1       0.170   2.242  25.886  0.00  0.00    +0.027 C 
ATOM     10  C   UNL     1      -0.440   2.142  25.341  0.00  0.00    +0.138 C 
ENDROOT
BRANCH  10  11
ATOM     11  C   UNL     1      -0.614   1.448  24.928  0.00  0.00    +0.251 A 
ATOM     12  N   UNL     1      -1.195   0.898  25.129  0.00  0.00    -0.190 NA
ATOM     13  C   UNL     1      -1.178   0.292  24.569  0.00  0.00    +0.205 A 
ATOM     14  N   UNL     1      -0.586   0.468  24.022  0.00  0.00    -0.056 NA
ATOM     15  O   UNL     1      -0.238   1.182  24.244  0.00  0.00    -0.336 OA
BRANCH  13  16
ATOM     16  C   UNL     1      -1.667  -0.372  24.558  0.00  0.00    +0.058 A 
ATOM     17  C   UNL     1      -2.486  -0.281  24.562  0.00  0.00    +0.008 A 
ATOM     18  C   UNL     1      -2.976  -0.946  24.551  0.00  0.00    +0.038 A 
ATOM     19  C   UNL     1      -2.644  -1.701  24.535  0.00  0.00    +0.149 A 
ATOM     20  N   UNL     1      -1.825  -1.792  24.531  0.00  0.00    -0.226 NA
ATOM     21  C   UNL     1      -1.336  -1.128  24.542  0.00  0.00    +0.104 A 
BRANCH  19  22
ATOM     22  N   UNL     1      -3.134  -2.366  24.524  0.00  0.00    -0.271 N 
ATOM     23  C   UNL     1      -3.643  -2.582  23.912  0.00  0.00    +0.104 A 
ATOM     24  C   UNL     1      -4.024  -3.280  24.132  0.00  0.00    +0.120 A 
ATOM     25  N   UNL     1      -3.749  -3.495  24.880  0.00  0.00    -0.222 NA
ATOM     26  C   UNL     1      -3.199  -2.929  25.122  0.00  0.00    +0.184 A 
ENDBRANCH  19  22
ENDBRANCH  13  16
ENDBRANCH  10  11
BRANCH   6   5
ATOM      5  C   UNL     1      -1.500   3.003  24.794  0.00  0.00    +0.101 C 
BRANCH   5   4
ATOM      1  C   UNL     1      -3.311   4.395  26.587  0.00  0.00    +0.130 C 
ATOM      2  N   UNL     1      -3.012   3.988  25.936  0.00  0.00    -0.324 N 
ATOM      3  C   UNL     1      -2.234   3.727  25.842  0.00  0.00    +0.073 A 
ATOM      4  C   UNL     1      -2.179   3.348  25.111  0.00  0.00    +0.012 A 
ATOM     27  C   UNL     1      -2.921   3.375  24.753  0.00  0.00    +0.015 A 
ATOM     28  C   UNL     1      -3.436   3.771  25.263  0.00  0.00    +0.060 A 
ATOM     29  C   UNL     1      -4.225   3.881  25.047  0.00  0.00    +0.017 A 
ATOM     30  C   UNL     1      -4.499   3.598  24.324  0.00  0.00    +0.001 A 
ATOM     31  C   UNL     1      -3.984   3.202  23.814  0.00  0.00    +0.000 A 
ATOM     32  C   UNL     1      -3.195   3.091  24.028  0.00  0.00    +0.001 A 
ENDBRANCH   5   4
ENDBRANCH   6   5
TORSDOF 5
ENDMDL
MODEL 8
REMARK VINA RESULT:      -9.3      1.673      5.559
REMARK  Name = 
REMARK  5 active torsions:
REMARK  status: ('A' for Active; 'I' for Inactive)
REMARK    1  A    between atoms: C_4  and  C_5
REMARK    2  A    between atoms: C_5  and  N_6
REMARK    3  A    between atoms: C_10  and  C_11
REMARK    4  A    between atoms: C_13  and  C_16
REMARK    5  A    between atoms: C_19  and  N_22
REMARK                            x       y       z     vdW  Elec       q    Type
REMARK                         _______ _______ _______ _____ _____    ______ ____
ROOT
ATOM      6  N   UNL     1      -0.542  -0.034  24.467  0.00  0.00    -0.263 NA
ATOM      7  C   UNL     1      -0.029  -0.434  23.959  0.00  0.00    +0.073 C 
ATOM      8  C   UNL     1       0.390   0.128  23.525  0.00  0.00    +0.019 C 
ATOM      9  C   UNL     1       0.137   0.876  23.765  0.00  0.00    +0.027 C 
ATOM     10  C   UNL     1      -0.438   0.776  24.347  0.00  0.00    +0.138 C 
ENDROOT
BRANCH  10  11
ATOM     11  C   UNL     1      -0.841   1.379  24.741  0.00  0.00    +0.251 A 
ATOM     12  N   UNL     1      -1.634   1.579  24.638  0.00  0.00    -0.190 NA
ATOM     13  C   UNL     1      -1.806   2.211  25.140  0.00  0.00    +0.205 A 
ATOM     14  N   UNL     1      -1.117   2.402  25.553  0.00  0.00    -0.056 NA
ATOM     15  O   UNL     1      -0.522   1.888  25.306  0.00  0.00    -0.336 OA
BRANCH  13  16
ATOM     16  C   UNL     1      -2.536   2.587  25.216  0.00  0.00    +0.058 A 
ATOM     17  C   UNL     1      -3.165   2.367  24.729  0.00  0.00    +0.008 A 
ATOM     18  C   UNL     1      -3.896   2.742  24.805  0.00  0.00    +0.038 A 
ATOM     19  C   UNL     1      -3.997   3.338  25.367  0.00  0.00    +0.149 A 
ATOM     20  N   UNL     1      -3.368   3.558  25.853  0.00  0.00    -0.226 NA
ATOM     21  C   UNL     1      -2.638   3.182  25.777  0.00  0.00    +0.104 A 
BRANCH  19  22
ATOM     22  N   UNL     1      -4.729   3.713  25.442  0.00  0.00    -0.271 N 
ATOM     23  C   UNL     1      -4.899   4.490  25.225  0.00  0.00    +0.104 A 
ATOM     24  C   UNL     1      -5.693   4.635  25.397  0.00  0.00    +0.120 A 
ATOM     25  N   UNL     1      -6.012   3.946  25.720  0.00  0.00    -0.222 NA
ATOM     26  C   UNL     1      -5.416   3.377  25.748  0.00  0.00    +0.184 A 
ENDBRANCH  19  22
ENDBRANCH  13  16
ENDBRANCH  10  11
BRANCH   6   5
ATOM      5  C   UNL     1      -1.065  -0.383  25.002  0.00  0.00    +0.101 C 
BRANCH   5   4
ATOM      1  C   UNL     1      -1.519  -3.035  23.909  0.00  0.00    +0.130 C 
ATOM      2  N   UNL     1      -1.624  -2.327  24.319  0.00  0.00    -0.324 N 
ATOM      3  C   UNL     1      -1.087  -1.701  24.351  0.00  0.00    +0.073 A 
ATOM      4  C   UNL     1      -1.415  -1.108  24.821  0.00  0.00    +0.012 A 
ATOM     27  C   UNL     1      -2.154  -1.367  25.080  0.00  0.00    +0.015 A 
ATOM     28  C   UNL     1      -2.283  -2.121  24.769  0.00  0.00    +0.060 A 
ATOM     29  C   UNL     1      -2.984  -2.521  24.937  0.00  0.00    +0.017 A 
ATOM     30  C   UNL     1      -3.556  -2.169  25.415  0.00  0.00    +0.001 A 
ATOM     31  C   UNL     1      -3.427  -1.415  25.725  0.00  0.00    +0.000 A 
ATOM     32  C   UNL     1      -2.726  -1.014  25.558  0.00  0.00    +0.001 A 
ENDBRANCH   5   4
ENDBRANCH   6   5
TORSDOF 5
ENDMDL
MODEL 9
REMARK VINA RESULT:      -8.2     14.760     18.550
REMARK  Name = 
REMARK  5 active torsions:
REMARK  status: ('A' for Active; 'I' for Inactive)
REMARK    1  A    between atoms: C_4  and  C_5
REMARK    2  A    between atoms: C_5  and  N_6
REMARK    3  A    between atoms: C_10  and  C_11
REMARK    4  A    between atoms: C_13  and  C_16
REMARK    5  A    between atoms: C_19  and  N_22
REMARK                            x       y       z     vdW  Elec       q    Type
REMARK                         _______ _______ _______ _____ _____    ______ ____
ROOT
ATOM      6  N   UNL     1      14.664   7.323  18.197  0.00  0.00    -0.263 NA
ATOM      7  C   UNL     1      15.165   7.466  17.557  0.00  0.00    +0.073 C 
ATOM      8  C   UNL     1      14.698   7.672  16.909  0.00  0.00    +0.019 C 
ATOM      9  C   UNL     1      13.909   7.657  17.148  0.00  0.00    +0.027 C 
ATOM     10  C   UNL     1      13.888   7.442  17.943  0.00  0.00    +0.138 C 
ENDROOT
BRANCH  10  11
ATOM     11  C   UNL     1      13.209   7.359  18.406  0.00  0.00    +0.251 A 
ATOM     12  N   UNL     1      13.068   7.731  19.129  0.00  0.00    -0.190 NA
ATOM     13  C   UNL     1      12.325   7.492  19.398  0.00  0.00    +0.205 A 
ATOM     14  N   UNL     1      12.008   6.972  18.841  0.00  0.00    -0.056 NA
ATOM     15  O   UNL     1      12.554   6.890  18.229  0.00  0.00    -0.336 OA
BRANCH  13  16
ATOM     16  C   UNL     1      11.964   7.731  20.099  0.00  0.00    +0.058 A 
ATOM     17  C   UNL     1      12.109   7.318  20.799  0.00  0.00    +0.008 A 
ATOM     18  C   UNL     1      11.747   7.557  21.502  0.00  0.00    +0.038 A 
ATOM     19  C   UNL     1      11.240   8.208  21.503  0.00  0.00    +0.149 A 
ATOM     20  N   UNL     1      11.095   8.620  20.803  0.00  0.00    -0.226 NA
ATOM     21  C   UNL     1      11.456   8.382  20.102  0.00  0.00    +0.104 A 
BRANCH  19  22
ATOM     22  N   UNL     1      10.878   8.446  22.206  0.00  0.00    -0.271 N 
ATOM     23  C   UNL     1      11.147   9.038  22.713  0.00  0.00    +0.104 A 
ATOM     24  C   UNL     1      10.619   9.092  23.345  0.00  0.00    +0.120 A 
ATOM     25  N   UNL     1      10.024   8.533  23.227  0.00  0.00    -0.222 NA
ATOM     26  C   UNL     1      10.184   8.134  22.523  0.00  0.00    +0.184 A 
ENDBRANCH  19  22
ENDBRANCH  13  16
ENDBRANCH  10  11
BRANCH   6   5
ATOM      5  C   UNL     1      14.899   7.102  18.956  0.00  0.00    +0.101 C 
BRANCH   5   4
ATOM      1  C   UNL     1      17.375   5.643  18.540  0.00  0.00    +0.130 C 
ATOM      2  N   UNL     1      16.785   6.103  18.886  0.00  0.00    -0.324 N 
ATOM      3  C   UNL     1      16.066   6.312  18.537  0.00  0.00    +0.073 A 
ATOM      4  C   UNL     1      15.646   6.773  19.077  0.00  0.00    +0.012 A 
ATOM     27  C   UNL     1      16.104   6.849  19.758  0.00  0.00    +0.015 A 
ATOM     28  C   UNL     1      16.808   6.434  19.640  0.00  0.00    +0.060 A 
ATOM     29  C   UNL     1      17.379   6.413  20.235  0.00  0.00    +0.017 A 
ATOM     30  C   UNL     1      17.247   6.805  20.948  0.00  0.00    +0.001 A 
ATOM     31  C   UNL     1      16.543   7.220  21.067  0.00  0.00    +0.000 A 
ATOM     32  C   UNL     1      15.972   7.242  20.472  0.00  0.00    +0.001 A 
ENDBRANCH   5   4
ENDBRANCH   6   5
TORSDOF 5
ENDMDL
