REMARK  Name = 
REMARK  5 active torsions:
REMARK  status: ('A' for Active; 'I' for Inactive)
REMARK    1  A    between atoms: N_4  and  C_5
REMARK    2  A    between atoms: C_8  and  C_11
REMARK    3  A    between atoms: N_16  and  C_17
REMARK    4  A    between atoms: C_17  and  C_18
REMARK    5  A    between atoms: C_24  and  C_25
REMARK                            x       y       z     vdW  Elec       q    Type
REMARK                         _______ _______ _______ _____ _____    ______ ____
ROOT
ATOM     11  C   UNL     1       4.287  -2.475   0.000  0.00  0.00    +0.159 C 
ATOM     12  O   UNL     1       5.001  -2.888   0.000  0.00  0.00    -0.341 OA
ATOM     13  C   UNL     1       5.001  -3.712   0.000  0.00  0.00    +0.227 C 
ATOM     14  C   UNL     1       4.287  -4.125   0.000  0.00  0.00    +0.256 C 
ATOM     15  O   UNL     1       4.287  -4.950   0.000  0.00  0.00    -0.272 OA
ATOM     16  N   UNL     1       3.572  -3.712   0.000  0.00  0.00    -0.270 N 
ATOM     24  C   UNL     1       3.572  -2.888   0.000  0.00  0.00    +0.140 C 
ENDROOT
BRANCH  11   8
ATOM      5  C   UNL     1       4.287   0.000   0.000  0.00  0.00    +0.073 A 
ATOM      6  C   UNL     1       5.001  -0.412   0.000  0.00  0.00    +0.016 A 
ATOM      7  C   UNL     1       5.001  -1.238   0.000  0.00  0.00    -0.001 A 
ATOM      8  C   UNL     1       4.287  -1.650   0.000  0.00  0.00    +0.006 A 
ATOM      9  C   UNL     1       3.572  -1.238   0.000  0.00  0.00    -0.001 A 
ATOM     10  C   UNL     1       3.572  -0.412   0.000  0.00  0.00    +0.016 A 
BRANCH   5   4
ATOM      1  C   UNL     1       3.572   2.062   0.000  0.00  0.00    +0.097 C 
ATOM      2  C   UNL     1       3.572   1.238   0.000  0.00  0.00    +0.246 C 
ATOM      3  O   UNL     1       2.858   0.825   0.000  0.00  0.00    -0.273 OA
ATOM      4  N   UNL     1       4.287   0.825   0.000  0.00  0.00    -0.179 NA
ENDBRANCH   5   4
ENDBRANCH  11   8
BRANCH  24  25
ATOM     25  C   UNL     1       2.858  -2.475   0.000  0.00  0.00    +0.205 C 
ATOM     26  O   UNL     1       2.858  -1.650   0.000  0.00  0.00    -0.218 OA
ENDBRANCH  24  25
BRANCH  16  17
ATOM     17  C   UNL     1       2.858  -4.125   0.000  0.00  0.00    +0.120 C 
BRANCH  17  18
ATOM     18  C   UNL     1       2.143  -3.712   0.000  0.00  0.00    -0.002 A 
ATOM     19  C   UNL     1       1.429  -4.125   0.000  0.00  0.00    -0.003 A 
ATOM     20  C   UNL     1       0.715  -3.712   0.000  0.00  0.00    -0.000 A 
ATOM     21  C   UNL     1       0.715  -2.888   0.000  0.00  0.00    -0.000 A 
ATOM     22  C   UNL     1       1.429  -2.475   0.000  0.00  0.00    -0.000 A 
ATOM     23  C   UNL     1       2.143  -2.888   0.000  0.00  0.00    -0.003 A 
ENDBRANCH  17  18
ENDBRANCH  16  17
TORSDOF 5
