MODEL 1
REMARK VINA RESULT:     -15.7      0.000      0.000
REMARK  Name = 
REMARK  4 active torsions:
REMARK  status: ('A' for Active; 'I' for Inactive)
REMARK    1  A    between atoms: C_2  and  C_3
REMARK    2  A    between atoms: C_11  and  C_12
REMARK    3  A    between atoms: C_12  and  C_13
REMARK    4  A    between atoms: C_23  and  C_25
REMARK                            x       y       z     vdW  Elec       q    Type
REMARK                         _______ _______ _______ _____ _____    ______ ____
ROOT
ATOM      1  C   UNL     1      -0.823   4.455  24.995  0.00  0.00    +0.005 C 
ATOM      2  C   UNL     1      -1.500   3.988  25.057  0.00  0.00    +0.059 C 
ATOM      5  C   UNL     1      -1.817   4.726  25.244  0.00  0.00    +0.154 C 
ATOM      6  O   UNL     1      -1.332   5.394  25.254  0.00  0.00    -0.223 OA
ATOM      7  C   UNL     1      -2.620   4.797  25.422  0.00  0.00    +0.033 C 
ATOM      8  C   UNL     1      -3.105   4.130  25.412  0.00  0.00    +0.003 C 
ATOM      9  C   UNL     1      -2.788   3.393  25.225  0.00  0.00    +0.006 C 
ATOM     10  C   UNL     1      -3.590   3.463  25.402  0.00  0.00    +0.000 C 
ATOM     11  C   UNL     1      -3.273   2.725  25.215  0.00  0.00    +0.052 C 
ATOM     16  C   UNL     1      -2.956   1.987  25.027  0.00  0.00    +0.063 A 
ATOM     17  C   UNL     1      -2.152   1.916  24.850  0.00  0.00    +0.023 A 
ATOM     18  C   UNL     1      -1.667   2.583  24.860  0.00  0.00    +0.034 C 
ATOM     19  C   UNL     1      -1.984   3.322  25.047  0.00  0.00    +0.010 C 
ATOM     20  S   UNL     1      -1.997   1.122  24.687  0.00  0.00    -0.054 S 
ATOM     21  C   UNL     1      -2.703   0.703  24.763  0.00  0.00    +0.185 A 
ATOM     22  N   UNL     1      -2.800  -0.109  24.650  0.00  0.00    -0.150 NA
ATOM     23  C   UNL     1      -3.543  -0.452  24.746  0.00  0.00    +0.275 C 
ATOM     24  O   UNL     1      -4.190   0.014  24.957  0.00  0.00    -0.268 OA
ATOM     33  N   UNL     1      -3.295   1.237  24.974  0.00  0.00    -0.227 NA
ENDROOT
BRANCH  23  25
ATOM     25  C   UNL     1      -3.640  -1.264  24.632  0.00  0.00    +0.110 A 
ATOM     26  C   UNL     1      -3.937  -1.548  23.916  0.00  0.00    +0.147 A 
ATOM     27  F   UNL     1      -4.137  -1.019  23.315  0.00  0.00    -0.204 F 
ATOM     28  C   UNL     1      -4.034  -2.359  23.802  0.00  0.00    +0.030 A 
ATOM     29  C   UNL     1      -3.834  -2.886  24.405  0.00  0.00    +0.005 A 
ATOM     30  C   UNL     1      -3.537  -2.603  25.120  0.00  0.00    +0.030 A 
ATOM     31  C   UNL     1      -3.440  -1.792  25.233  0.00  0.00    +0.147 A 
ATOM     32  F   UNL     1      -3.143  -1.508  25.950  0.00  0.00    -0.204 F 
ENDBRANCH  23  25
BRANCH   2   3
ATOM      3  C   UNL     1      -0.947   3.413  24.848  0.00  0.00    +0.184 C 
ATOM      4  O   UNL     1      -0.165   3.627  24.696  0.00  0.00    -0.220 OA
ENDBRANCH   2   3
BRANCH  11  12
ATOM     12  C   UNL     1      -4.075   2.796  25.392  0.00  0.00    +0.120 C 
BRANCH  12  13
ATOM     13  C   UNL     1      -4.639   2.713  24.794  0.00  0.00    +0.365 C 
ATOM     14  O   UNL     1      -5.372   2.375  24.964  0.00  0.00    -0.246 OA
ATOM     15  O   UNL     1      -4.469   2.968  24.029  0.00  0.00    -0.246 OA
ENDBRANCH  12  13
ENDBRANCH  11  12
TORSDOF 4
ENDMDL
MODEL 2
REMARK VINA RESULT:     -14.7      1.818      5.138
REMARK  Name = 
REMARK  4 active torsions:
REMARK  status: ('A' for Active; 'I' for Inactive)
REMARK    1  A    between atoms: C_2  and  C_3
REMARK    2  A    between atoms: C_11  and  C_12
REMARK    3  A    between atoms: C_12  and  C_13
REMARK    4  A    between atoms: C_23  and  C_25
REMARK                            x       y       z     vdW  Elec       q    Type
REMARK                         _______ _______ _______ _____ _____    ______ ____
ROOT
ATOM      1  C   UNL     1      -2.586  -2.770  24.648  0.00  0.00    +0.005 C 
ATOM      2  C   UNL     1      -2.876  -2.003  24.564  0.00  0.00    +0.059 C 
ATOM      5  C   UNL     1      -3.554  -2.434  24.379  0.00  0.00    +0.154 C 
ATOM      6  O   UNL     1      -3.535  -3.259  24.388  0.00  0.00    -0.223 OA
ATOM      7  C   UNL     1      -4.254  -2.039  24.185  0.00  0.00    +0.033 C 
ATOM      8  C   UNL     1      -4.273  -1.215  24.175  0.00  0.00    +0.003 C 
ATOM      9  C   UNL     1      -3.595  -0.785  24.360  0.00  0.00    +0.006 C 
ATOM     10  C   UNL     1      -4.292  -0.391  24.166  0.00  0.00    +0.000 C 
ATOM     11  C   UNL     1      -3.614   0.040  24.351  0.00  0.00    +0.052 C 
ATOM     16  C   UNL     1      -2.936   0.471  24.536  0.00  0.00    +0.063 A 
ATOM     17  C   UNL     1      -2.237   0.077  24.731  0.00  0.00    +0.023 A 
ATOM     18  C   UNL     1      -2.217  -0.747  24.740  0.00  0.00    +0.034 C 
ATOM     19  C   UNL     1      -2.896  -1.179  24.555  0.00  0.00    +0.010 C 
ATOM     20  S   UNL     1      -1.659   0.645  24.887  0.00  0.00    -0.054 S 
ATOM     21  C   UNL     1      -2.000   1.390  24.790  0.00  0.00    +0.185 A 
ATOM     22  N   UNL     1      -1.620   2.115  24.891  0.00  0.00    -0.150 NA
ATOM     23  C   UNL     1      -2.034   2.817  24.774  0.00  0.00    +0.275 C 
ATOM     24  O   UNL     1      -2.829   2.797  24.555  0.00  0.00    -0.268 OA
ATOM     33  N   UNL     1      -2.789   1.282  24.573  0.00  0.00    -0.227 NA
ENDROOT
BRANCH  23  25
ATOM     25  C   UNL     1      -1.654   3.542  24.875  0.00  0.00    +0.110 A 
ATOM     26  C   UNL     1      -1.907   4.063  25.464  0.00  0.00    +0.147 A 
ATOM     27  F   UNL     1      -2.540   3.857  25.951  0.00  0.00    -0.204 F 
ATOM     28  C   UNL     1      -1.526   4.788  25.566  0.00  0.00    +0.030 A 
ATOM     29  C   UNL     1      -0.892   4.992  25.078  0.00  0.00    +0.005 A 
ATOM     30  C   UNL     1      -0.639   4.473  24.490  0.00  0.00    +0.030 A 
ATOM     31  C   UNL     1      -1.020   3.748  24.389  0.00  0.00    +0.147 A 
ATOM     32  F   UNL     1      -0.767   3.227  23.800  0.00  0.00    -0.204 F 
ENDBRANCH  23  25
BRANCH   2   3
ATOM      3  C   UNL     1      -2.097  -1.839  24.778  0.00  0.00    +0.184 C 
ATOM      4  O   UNL     1      -1.561  -2.456  24.889  0.00  0.00    -0.220 OA
ENDBRANCH   2   3
BRANCH  11  12
ATOM     12  C   UNL     1      -4.312   0.434  24.157  0.00  0.00    +0.120 C 
BRANCH  12  13
ATOM     13  C   UNL     1      -4.729   0.847  24.738  0.00  0.00    +0.365 C 
ATOM     14  O   UNL     1      -5.099   1.560  24.551  0.00  0.00    -0.246 OA
ATOM     15  O   UNL     1      -4.775   0.547  25.504  0.00  0.00    -0.246 OA
ENDBRANCH  12  13
ENDBRANCH  11  12
TORSDOF 4
ENDMDL
MODEL 3
REMARK VINA RESULT:     -14.5      1.136      2.148
REMARK  Name = 
REMARK  4 active torsions:
REMARK  status: ('A' for Active; 'I' for Inactive)
REMARK    1  A    between atoms: C_2  and  C_3
REMARK    2  A    between atoms: C_11  and  C_12
REMARK    3  A    between atoms: C_12  and  C_13
REMARK    4  A    between atoms: C_23  and  C_25
REMARK                            x       y       z     vdW  Elec       q    Type
REMARK                         _______ _______ _______ _____ _____    ______ ____
ROOT
ATOM      1  C   UNL     1      -2.296   4.931  25.602  0.00  0.00    +0.005 C 
ATOM      2  C   UNL     1      -2.031   4.214  25.294  0.00  0.00    +0.059 C 
ATOM      5  C   UNL     1      -1.384   4.694  25.118  0.00  0.00    +0.154 C 
ATOM      6  O   UNL     1      -1.392   5.492  25.328  0.00  0.00    -0.223 OA
ATOM      7  C   UNL     1      -0.727   4.376  24.731  0.00  0.00    +0.033 C 
ATOM      8  C   UNL     1      -0.719   3.578  24.521  0.00  0.00    +0.003 C 
ATOM      9  C   UNL     1      -1.365   3.099  24.697  0.00  0.00    +0.006 C 
ATOM     10  C   UNL     1      -0.710   2.781  24.311  0.00  0.00    +0.000 C 
ATOM     11  C   UNL     1      -1.357   2.301  24.487  0.00  0.00    +0.052 C 
ATOM     16  C   UNL     1      -2.004   1.821  24.663  0.00  0.00    +0.063 A 
ATOM     17  C   UNL     1      -2.661   2.139  25.050  0.00  0.00    +0.023 A 
ATOM     18  C   UNL     1      -2.670   2.936  25.260  0.00  0.00    +0.034 C 
ATOM     19  C   UNL     1      -2.022   3.417  25.084  0.00  0.00    +0.010 C 
ATOM     20  S   UNL     1      -3.214   1.535  25.150  0.00  0.00    -0.054 S 
ATOM     21  C   UNL     1      -2.900   0.844  24.826  0.00  0.00    +0.185 A 
ATOM     22  N   UNL     1      -3.269   0.106  24.807  0.00  0.00    -0.150 NA
ATOM     23  C   UNL     1      -2.885  -0.537  24.463  0.00  0.00    +0.275 C 
ATOM     24  O   UNL     1      -2.133  -0.444  24.138  0.00  0.00    -0.268 OA
ATOM     33  N   UNL     1      -2.153   1.021  24.525  0.00  0.00    -0.227 NA
ENDROOT
BRANCH  23  25
ATOM     25  C   UNL     1      -3.254  -1.275  24.443  0.00  0.00    +0.110 A 
ATOM     26  C   UNL     1      -3.817  -1.440  23.862  0.00  0.00    +0.147 A 
ATOM     27  F   UNL     1      -4.010  -0.867  23.300  0.00  0.00    -0.204 F 
ATOM     28  C   UNL     1      -4.186  -2.178  23.842  0.00  0.00    +0.030 A 
ATOM     29  C   UNL     1      -3.992  -2.750  24.404  0.00  0.00    +0.005 A 
ATOM     30  C   UNL     1      -3.430  -2.586  24.984  0.00  0.00    +0.030 A 
ATOM     31  C   UNL     1      -3.062  -1.848  25.004  0.00  0.00    +0.147 A 
ATOM     32  F   UNL     1      -2.499  -1.683  25.585  0.00  0.00    -0.204 F 
ENDBRANCH  23  25
BRANCH   2   3
ATOM      3  C   UNL     1      -2.770   3.983  25.577  0.00  0.00    +0.184 C 
ATOM      4  O   UNL     1      -3.218   4.504  26.034  0.00  0.00    -0.220 OA
ENDBRANCH   2   3
BRANCH  11  12
ATOM     12  C   UNL     1      -0.701   1.983  24.101  0.00  0.00    +0.120 C 
BRANCH  12  13
ATOM     13  C   UNL     1      -0.196   1.467  24.501  0.00  0.00    +0.365 C 
ATOM     14  O   UNL     1       0.140   0.828  24.103  0.00  0.00    -0.246 OA
ATOM     15  O   UNL     1      -0.027   1.591  25.298  0.00  0.00    -0.246 OA
ENDBRANCH  12  13
ENDBRANCH  11  12
TORSDOF 4
ENDMDL
MODEL 4
REMARK VINA RESULT:     -14.1      2.017      5.510
REMARK  Name = 
REMARK  4 active torsions:
REMARK  status: ('A' for Active; 'I' for Inactive)
REMARK    1  A    between atoms: C_2  and  C_3
REMARK    2  A    between atoms: C_11  and  C_12
REMARK    3  A    between atoms: C_12  and  C_13
REMARK    4  A    between atoms: C_23  and  C_25
REMARK                            x       y       z     vdW  Elec       q    Type
REMARK                         _______ _______ _______ _____ _____    ______ ____
ROOT
ATOM      1  C   UNL     1      -4.311  -2.232  24.016  0.00  0.00    +0.005 C 
ATOM      2  C   UNL     1      -3.670  -1.784  24.279  0.00  0.00    +0.059 C 
ATOM      5  C   UNL     1      -3.374  -2.543  24.402  0.00  0.00    +0.154 C 
ATOM      6  O   UNL     1      -3.834  -3.202  24.215  0.00  0.00    -0.223 OA
ATOM      7  C   UNL     1      -2.616  -2.645  24.714  0.00  0.00    +0.033 C 
ATOM      8  C   UNL     1      -2.156  -1.987  24.902  0.00  0.00    +0.003 C 
ATOM      9  C   UNL     1      -2.452  -1.228  24.778  0.00  0.00    +0.006 C 
ATOM     10  C   UNL     1      -1.696  -1.329  25.089  0.00  0.00    +0.000 C 
ATOM     11  C   UNL     1      -1.992  -0.569  24.965  0.00  0.00    +0.052 C 
ATOM     16  C   UNL     1      -2.288   0.190  24.841  0.00  0.00    +0.063 A 
ATOM     17  C   UNL     1      -3.046   0.292  24.530  0.00  0.00    +0.023 A 
ATOM     18  C   UNL     1      -3.506  -0.366  24.342  0.00  0.00    +0.034 C 
ATOM     19  C   UNL     1      -3.210  -1.126  24.466  0.00  0.00    +0.010 C 
ATOM     20  S   UNL     1      -3.189   1.102  24.469  0.00  0.00    -0.054 S 
ATOM     21  C   UNL     1      -2.521   1.501  24.742  0.00  0.00    +0.185 A 
ATOM     22  N   UNL     1      -2.426   2.320  24.779  0.00  0.00    -0.150 NA
ATOM     23  C   UNL     1      -1.724   2.641  25.067  0.00  0.00    +0.275 C 
ATOM     24  O   UNL     1      -1.115   2.144  25.318  0.00  0.00    -0.268 OA
ATOM     33  N   UNL     1      -1.965   0.938  24.972  0.00  0.00    -0.227 NA
ENDROOT
BRANCH  23  25
ATOM     25  C   UNL     1      -1.629   3.460  25.103  0.00  0.00    +0.110 A 
ATOM     26  C   UNL     1      -1.092   3.836  24.602  0.00  0.00    +0.147 A 
ATOM     27  F   UNL     1      -0.649   3.393  24.065  0.00  0.00    -0.204 F 
ATOM     28  C   UNL     1      -0.997   4.655  24.639  0.00  0.00    +0.030 A 
ATOM     29  C   UNL     1      -1.440   5.097  25.177  0.00  0.00    +0.005 A 
ATOM     30  C   UNL     1      -1.976   4.722  25.677  0.00  0.00    +0.030 A 
ATOM     31  C   UNL     1      -2.071   3.903  25.641  0.00  0.00    +0.147 A 
ATOM     32  F   UNL     1      -2.609   3.527  26.142  0.00  0.00    -0.204 F 
ENDBRANCH  23  25
BRANCH   2   3
ATOM      3  C   UNL     1      -4.189  -1.180  24.063  0.00  0.00    +0.184 C 
ATOM      4  O   UNL     1      -4.956  -1.362  23.820  0.00  0.00    -0.220 OA
ENDBRANCH   2   3
BRANCH  11  12
ATOM     12  C   UNL     1      -1.235  -0.671  25.277  0.00  0.00    +0.120 C 
BRANCH  12  13
ATOM     13  C   UNL     1      -0.572  -0.498  24.816  0.00  0.00    +0.365 C 
ATOM     14  O   UNL     1       0.037  -0.036  25.126  0.00  0.00    -0.246 OA
ATOM     15  O   UNL     1      -0.518  -0.788  24.046  0.00  0.00    -0.246 OA
ENDBRANCH  12  13
ENDBRANCH  11  12
TORSDOF 4
ENDMDL
MODEL 5
REMARK VINA RESULT:     -12.8      1.697      2.676
REMARK  Name = 
REMARK  4 active torsions:
REMARK  status: ('A' for Active; 'I' for Inactive)
REMARK    1  A    between atoms: C_2  and  C_3
REMARK    2  A    between atoms: C_11  and  C_12
REMARK    3  A    between atoms: C_12  and  C_13
REMARK    4  A    between atoms: C_23  and  C_25
REMARK                            x       y       z     vdW  Elec       q    Type
REMARK                         _______ _______ _______ _____ _____    ______ ____
ROOT
ATOM      1  C   UNL     1      -5.510   3.954  25.706  0.00  0.00    +0.005 C 
ATOM      2  C   UNL     1      -5.020   3.449  25.277  0.00  0.00    +0.059 C 
ATOM      5  C   UNL     1      -4.775   4.176  24.976  0.00  0.00    +0.154 C 
ATOM      6  O   UNL     1      -5.121   4.874  25.249  0.00  0.00    -0.223 OA
ATOM      7  C   UNL     1      -4.182   4.207  24.401  0.00  0.00    +0.033 C 
ATOM      8  C   UNL     1      -3.836   3.511  24.128  0.00  0.00    +0.003 C 
ATOM      9  C   UNL     1      -4.081   2.783  24.429  0.00  0.00    +0.006 C 
ATOM     10  C   UNL     1      -3.490   2.814  23.855  0.00  0.00    +0.000 C 
ATOM     11  C   UNL     1      -3.735   2.086  24.156  0.00  0.00    +0.052 C 
ATOM     16  C   UNL     1      -3.980   1.358  24.456  0.00  0.00    +0.063 A 
ATOM     17  C   UNL     1      -4.572   1.327  25.031  0.00  0.00    +0.023 A 
ATOM     18  C   UNL     1      -4.918   2.024  25.304  0.00  0.00    +0.034 C 
ATOM     19  C   UNL     1      -4.673   2.752  25.004  0.00  0.00    +0.010 C 
ATOM     20  S   UNL     1      -4.699   0.535  25.223  0.00  0.00    -0.054 S 
ATOM     21  C   UNL     1      -4.186   0.076  24.768  0.00  0.00    +0.185 A 
ATOM     22  N   UNL     1      -4.127  -0.747  24.784  0.00  0.00    -0.150 NA
ATOM     23  C   UNL     1      -3.586  -1.131  24.295  0.00  0.00    +0.275 C 
ATOM     24  O   UNL     1      -3.103  -0.693  23.790  0.00  0.00    -0.268 OA
ATOM     33  N   UNL     1      -3.742   0.585  24.295  0.00  0.00    -0.227 NA
ENDROOT
BRANCH  23  25
ATOM     25  C   UNL     1      -3.528  -1.954  24.311  0.00  0.00    +0.110 A 
ATOM     26  C   UNL     1      -2.955  -2.318  24.781  0.00  0.00    +0.147 A 
ATOM     27  F   UNL     1      -2.442  -1.859  25.235  0.00  0.00    -0.204 F 
ATOM     28  C   UNL     1      -2.896  -3.141  24.797  0.00  0.00    +0.030 A 
ATOM     29  C   UNL     1      -3.411  -3.599  24.343  0.00  0.00    +0.005 A 
ATOM     30  C   UNL     1      -3.983  -3.236  23.874  0.00  0.00    +0.030 A 
ATOM     31  C   UNL     1      -4.041  -2.413  23.858  0.00  0.00    +0.147 A 
ATOM     32  F   UNL     1      -4.614  -2.049  23.388  0.00  0.00    -0.204 F 
ENDBRANCH  23  25
BRANCH   2   3
ATOM      3  C   UNL     1      -5.435   2.897  25.727  0.00  0.00    +0.184 C 
ATOM      4  O   UNL     1      -5.985   3.150  26.287  0.00  0.00    -0.220 OA
ENDBRANCH   2   3
BRANCH  11  12
ATOM     12  C   UNL     1      -3.143   2.117  23.582  0.00  0.00    +0.120 C 
BRANCH  12  13
ATOM     13  C   UNL     1      -2.360   1.953  23.786  0.00  0.00    +0.365 C 
ATOM     14  O   UNL     1      -1.865   1.573  23.247  0.00  0.00    -0.246 OA
ATOM     15  O   UNL     1      -2.075   2.168  24.528  0.00  0.00    -0.246 OA
ENDBRANCH  12  13
ENDBRANCH  11  12
TORSDOF 4
ENDMDL
