MODEL 1
REMARK VINA RESULT:     -13.7      0.000      0.000
REMARK  Name = 
REMARK  6 active torsions:
REMARK  status: ('A' for Active; 'I' for Inactive)
REMARK    1  A    between atoms: C_2  and  C_5
REMARK    2  A    between atoms: C_14  and  C_16
REMARK    3  A    between atoms: C_24  and  C_25
REMARK    4  A    between atoms: C_25  and  C_26
REMARK    5  A    between atoms: N_28  and  C_29
REMARK    6  A    between atoms: C_29  and  C_30
REMARK                            x       y       z     vdW  Elec       q    Type
REMARK                         _______ _______ _______ _____ _____    ______ ____
ROOT
ATOM      5  C   UNL     1      -3.887  -1.625  24.479  0.00  0.00    +0.246 C 
ATOM      6  O   UNL     1      -4.567  -1.386  24.881  0.00  0.00    -0.273 OA
ATOM      7  N   UNL     1      -3.355  -1.060  24.200  0.00  0.00    -0.154 NA
ATOM      8  C   UNL     1      -3.502  -0.258  24.322  0.00  0.00    +0.185 A 
ATOM      9  N   UNL     1      -3.022   0.366  24.075  0.00  0.00    -0.227 NA
ATOM     10  C   UNL     1      -3.378   1.071  24.313  0.00  0.00    +0.063 A 
ATOM     11  C   UNL     1      -4.079   0.883  24.706  0.00  0.00    +0.023 A 
ATOM     12  C   UNL     1      -4.556   1.484  25.008  0.00  0.00    +0.034 C 
ATOM     13  C   UNL     1      -4.334   2.273  24.918  0.00  0.00    +0.010 C 
ATOM     14  C   UNL     1      -4.811   2.873  25.220  0.00  0.00    +0.059 C 
ATOM     15  C   UNL     1      -5.253   2.213  25.443  0.00  0.00    +0.005 C 
ATOM     18  C   UNL     1      -4.589   3.663  25.129  0.00  0.00    +0.154 C 
ATOM     19  O   UNL     1      -5.067   4.264  25.431  0.00  0.00    -0.223 OA
ATOM     20  C   UNL     1      -3.889   3.851  24.736  0.00  0.00    +0.033 C 
ATOM     21  C   UNL     1      -3.411   3.250  24.433  0.00  0.00    +0.003 C 
ATOM     22  C   UNL     1      -3.634   2.461  24.524  0.00  0.00    +0.006 C 
ATOM     23  C   UNL     1      -2.933   2.650  24.131  0.00  0.00    +0.000 C 
ATOM     24  C   UNL     1      -3.156   1.861  24.222  0.00  0.00    +0.050 C 
ATOM     35  S   UNL     1      -4.155   0.061  24.712  0.00  0.00    -0.054 S 
ENDROOT
BRANCH   5   2
ATOM      1  C   UNL     1      -3.592  -3.230  24.235  0.00  0.00    +0.009 C 
ATOM      2  C   UNL     1      -3.740  -2.427  24.357  0.00  0.00    +0.071 C 
ATOM      3  C   UNL     1      -4.245  -2.421  23.705  0.00  0.00    +0.009 C 
ATOM      4  C   UNL     1      -3.235  -2.434  25.010  0.00  0.00    +0.009 C 
ENDBRANCH   5   2
BRANCH  14  16
ATOM     16  C   UNL     1      -5.442   3.245  25.600  0.00  0.00    +0.184 C 
ATOM     17  O   UNL     1      -5.888   2.834  26.158  0.00  0.00    -0.220 OA
ENDBRANCH  14  16
BRANCH  24  25
ATOM     25  C   UNL     1      -2.456   2.049  23.829  0.00  0.00    +0.093 C 
BRANCH  25  26
ATOM     26  C   UNL     1      -1.729   1.927  24.198  0.00  0.00    +0.242 C 
ATOM     27  O   UNL     1      -1.611   2.191  24.971  0.00  0.00    -0.273 OA
ATOM     28  N   UNL     1      -1.120   1.543  23.796  0.00  0.00    -0.197 NA
BRANCH  28  29
ATOM     29  C   UNL     1      -0.394   1.421  24.166  0.00  0.00    +0.179 C 
BRANCH  29  30
ATOM     30  C   UNL     1       0.187   0.967  23.796  0.00  0.00    +0.145 A 
ATOM     31  C   UNL     1       0.126   0.167  23.601  0.00  0.00    +0.038 A 
ATOM     32  C   UNL     1       0.832  -0.062  23.240  0.00  0.00    +0.043 A 
ATOM     33  C   UNL     1       1.329   0.597  23.212  0.00  0.00    +0.179 A 
ATOM     34  O   UNL     1       0.930   1.232  23.556  0.00  0.00    -0.453 OA
ENDBRANCH  29  30
ENDBRANCH  28  29
ENDBRANCH  25  26
ENDBRANCH  24  25
TORSDOF 6
ENDMDL
MODEL 2
REMARK VINA RESULT:     -13.6      1.582      5.194
REMARK  Name = 
REMARK  6 active torsions:
REMARK  status: ('A' for Active; 'I' for Inactive)
REMARK    1  A    between atoms: C_2  and  C_5
REMARK    2  A    between atoms: C_14  and  C_16
REMARK    3  A    between atoms: C_24  and  C_25
REMARK    4  A    between atoms: C_25  and  C_26
REMARK    5  A    between atoms: N_28  and  C_29
REMARK    6  A    between atoms: C_29  and  C_30
REMARK                            x       y       z     vdW  Elec       q    Type
REMARK                         _______ _______ _______ _____ _____    ______ ____
ROOT
ATOM      5  C   UNL     1      -0.619   1.855  25.342  0.00  0.00    +0.246 C 
ATOM      6  O   UNL     1      -0.243   1.124  25.415  0.00  0.00    -0.273 OA
ATOM      7  N   UNL     1      -1.411   1.889  25.113  0.00  0.00    -0.154 NA
ATOM      8  C   UNL     1      -1.825   1.193  24.956  0.00  0.00    +0.185 A 
ATOM      9  N   UNL     1      -2.615   1.143  24.723  0.00  0.00    -0.227 NA
ATOM     10  C   UNL     1      -2.801   0.344  24.627  0.00  0.00    +0.063 A 
ATOM     11  C   UNL     1      -2.127  -0.098  24.802  0.00  0.00    +0.023 A 
ATOM     12  C   UNL     1      -2.149  -0.921  24.753  0.00  0.00    +0.034 C 
ATOM     13  C   UNL     1      -2.845  -1.302  24.530  0.00  0.00    +0.010 C 
ATOM     14  C   UNL     1      -2.868  -2.125  24.481  0.00  0.00    +0.059 C 
ATOM     15  C   UNL     1      -2.084  -2.016  24.716  0.00  0.00    +0.005 C 
ATOM     18  C   UNL     1      -3.564  -2.507  24.258  0.00  0.00    +0.154 C 
ATOM     19  O   UNL     1      -3.587  -3.331  24.209  0.00  0.00    -0.223 OA
ATOM     20  C   UNL     1      -4.239  -2.066  24.084  0.00  0.00    +0.033 C 
ATOM     21  C   UNL     1      -4.217  -1.242  24.133  0.00  0.00    +0.003 C 
ATOM     22  C   UNL     1      -3.520  -0.861  24.356  0.00  0.00    +0.006 C 
ATOM     23  C   UNL     1      -4.195  -0.419  24.181  0.00  0.00    +0.000 C 
ATOM     24  C   UNL     1      -3.499  -0.038  24.404  0.00  0.00    +0.050 C 
ATOM     35  S   UNL     1      -1.523   0.428  25.005  0.00  0.00    -0.054 S 
ENDROOT
BRANCH   5   2
ATOM      1  C   UNL     1       0.211   3.246  25.656  0.00  0.00    +0.009 C 
ATOM      2  C   UNL     1      -0.204   2.550  25.499  0.00  0.00    +0.071 C 
ATOM      3  C   UNL     1      -0.179   2.717  24.692  0.00  0.00    +0.009 C 
ATOM      4  C   UNL     1      -0.230   2.383  26.307  0.00  0.00    +0.009 C 
ENDBRANCH   5   2
BRANCH  14  16
ATOM     16  C   UNL     1      -2.618  -2.911  24.514  0.00  0.00    +0.184 C 
ATOM     17  O   UNL     1      -1.814  -3.087  24.572  0.00  0.00    -0.220 OA
ENDBRANCH  14  16
BRANCH  24  25
ATOM     25  C   UNL     1      -4.173   0.404  24.230  0.00  0.00    +0.093 C 
BRANCH  25  26
ATOM     26  C   UNL     1      -4.603   0.757  24.838  0.00  0.00    +0.242 C 
ATOM     27  O   UNL     1      -4.786   0.326  25.518  0.00  0.00    -0.273 OA
ATOM     28  N   UNL     1      -4.852   1.540  24.768  0.00  0.00    -0.197 NA
BRANCH  28  29
ATOM     29  C   UNL     1      -5.282   1.893  25.376  0.00  0.00    +0.179 C 
BRANCH  29  30
ATOM     30  C   UNL     1      -5.334   2.715  25.421  0.00  0.00    +0.145 A 
ATOM     31  C   UNL     1      -5.978   3.145  25.709  0.00  0.00    +0.038 A 
ATOM     32  C   UNL     1      -5.794   3.947  25.653  0.00  0.00    +0.043 A 
ATOM     33  C   UNL     1      -5.037   4.013  25.331  0.00  0.00    +0.179 A 
ATOM     34  O   UNL     1      -4.754   3.251  25.188  0.00  0.00    -0.453 OA
ENDBRANCH  29  30
ENDBRANCH  28  29
ENDBRANCH  25  26
ENDBRANCH  24  25
TORSDOF 6
ENDMDL
MODEL 3
REMARK VINA RESULT:     -13.5      1.457      4.253
REMARK  Name = 
REMARK  6 active torsions:
REMARK  status: ('A' for Active; 'I' for Inactive)
REMARK    1  A    between atoms: C_2  and  C_5
REMARK    2  A    between atoms: C_14  and  C_16
REMARK    3  A    between atoms: C_24  and  C_25
REMARK    4  A    between atoms: C_25  and  C_26
REMARK    5  A    between atoms: N_28  and  C_29
REMARK    6  A    between atoms: C_29  and  C_30
REMARK                            x       y       z     vdW  Elec       q    Type
REMARK                         _______ _______ _______ _____ _____    ______ ____
ROOT
ATOM      5  C   UNL     1      -4.954   2.287  25.088  0.00  0.00    +0.246 C 
ATOM      6  O   UNL     1      -5.464   1.750  24.725  0.00  0.00    -0.273 OA
ATOM      7  N   UNL     1      -4.196   2.048  25.309  0.00  0.00    -0.154 NA
ATOM      8  C   UNL     1      -3.949   1.274  25.167  0.00  0.00    +0.185 A 
ATOM      9  N   UNL     1      -3.210   0.960  25.357  0.00  0.00    -0.227 NA
ATOM     10  C   UNL     1      -3.201   0.170  25.117  0.00  0.00    +0.063 A 
ATOM     11  C   UNL     1      -3.934  -0.003  24.780  0.00  0.00    +0.023 A 
ATOM     12  C   UNL     1      -4.085  -0.760  24.488  0.00  0.00    +0.034 C 
ATOM     13  C   UNL     1      -3.505  -1.343  24.534  0.00  0.00    +0.010 C 
ATOM     14  C   UNL     1      -3.657  -2.099  24.242  0.00  0.00    +0.059 C 
ATOM     15  C   UNL     1      -4.377  -1.734  24.075  0.00  0.00    +0.005 C 
ATOM     18  C   UNL     1      -3.077  -2.684  24.288  0.00  0.00    +0.154 C 
ATOM     19  O   UNL     1      -3.228  -3.441  23.996  0.00  0.00    -0.223 OA
ATOM     20  C   UNL     1      -2.344  -2.512  24.625  0.00  0.00    +0.033 C 
ATOM     21  C   UNL     1      -2.191  -1.755  24.917  0.00  0.00    +0.003 C 
ATOM     22  C   UNL     1      -2.772  -1.171  24.871  0.00  0.00    +0.006 C 
ATOM     23  C   UNL     1      -2.040  -0.999  25.209  0.00  0.00    +0.000 C 
ATOM     24  C   UNL     1      -2.620  -0.415  25.163  0.00  0.00    +0.050 C 
ATOM     35  S   UNL     1      -4.396   0.681  24.811  0.00  0.00    -0.054 S 
ENDROOT
BRANCH   5   2
ATOM      1  C   UNL     1      -5.449   3.835  25.372  0.00  0.00    +0.009 C 
ATOM      2  C   UNL     1      -5.202   3.061  25.230  0.00  0.00    +0.071 C 
ATOM      3  C   UNL     1      -5.747   2.785  25.784  0.00  0.00    +0.009 C 
ATOM      4  C   UNL     1      -4.656   3.337  24.676  0.00  0.00    +0.009 C 
ENDBRANCH   5   2
BRANCH  14  16
ATOM     16  C   UNL     1      -4.059  -2.730  23.892  0.00  0.00    +0.184 C 
ATOM     17  O   UNL     1      -4.788  -2.603  23.527  0.00  0.00    -0.220 OA
ENDBRANCH  14  16
BRANCH  24  25
ATOM     25  C   UNL     1      -1.888  -0.243  25.500  0.00  0.00    +0.093 C 
BRANCH  25  26
ATOM     26  C   UNL     1      -1.333   0.198  25.079  0.00  0.00    +0.242 C 
ATOM     27  O   UNL     1      -1.141  -0.013  24.305  0.00  0.00    -0.273 OA
ATOM     28  N   UNL     1      -0.970   0.850  25.431  0.00  0.00    -0.197 NA
BRANCH  28  29
ATOM     29  C   UNL     1      -0.415   1.291  25.009  0.00  0.00    +0.179 C 
BRANCH  29  30
ATOM     30  C   UNL     1      -0.282   2.081  25.204  0.00  0.00    +0.145 A 
ATOM     31  C   UNL     1       0.059   2.358  25.903  0.00  0.00    +0.038 A 
ATOM     32  C   UNL     1       0.086   3.182  25.866  0.00  0.00    +0.043 A 
ATOM     33  C   UNL     1      -0.238   3.414  25.143  0.00  0.00    +0.179 A 
ATOM     34  O   UNL     1      -0.465   2.734  24.735  0.00  0.00    -0.453 OA
ENDBRANCH  29  30
ENDBRANCH  28  29
ENDBRANCH  25  26
ENDBRANCH  24  25
TORSDOF 6
ENDMDL
MODEL 4
REMARK VINA RESULT:     -12.7      0.947      3.586
REMARK  Name = 
REMARK  6 active torsions:
REMARK  status: ('A' for Active; 'I' for Inactive)
REMARK    1  A    between atoms: C_2  and  C_5
REMARK    2  A    between atoms: C_14  and  C_16
REMARK    3  A    between atoms: C_24  and  C_25
REMARK    4  A    between atoms: C_25  and  C_26
REMARK    5  A    between atoms: N_28  and  C_29
REMARK    6  A    between atoms: C_29  and  C_30
REMARK                            x       y       z     vdW  Elec       q    Type
REMARK                         _______ _______ _______ _____ _____    ______ ____
ROOT
ATOM      5  C   UNL     1      -0.517   1.740  24.257  0.00  0.00    +0.246 C 
ATOM      6  O   UNL     1      -0.661   2.498  24.549  0.00  0.00    -0.273 OA
ATOM      7  N   UNL     1      -1.142   1.210  24.165  0.00  0.00    -0.154 NA
ATOM      8  C   UNL     1      -1.910   1.437  24.364  0.00  0.00    +0.185 A 
ATOM      9  N   UNL     1      -2.585   0.967  24.302  0.00  0.00    -0.227 NA
ATOM     10  C   UNL     1      -3.230   1.413  24.560  0.00  0.00    +0.063 A 
ATOM     11  C   UNL     1      -2.952   2.158  24.781  0.00  0.00    +0.023 A 
ATOM     12  C   UNL     1      -3.479   2.727  25.064  0.00  0.00    +0.034 C 
ATOM     13  C   UNL     1      -4.282   2.551  25.126  0.00  0.00    +0.010 C 
ATOM     14  C   UNL     1      -4.807   3.120  25.409  0.00  0.00    +0.059 C 
ATOM     15  C   UNL     1      -4.101   3.544  25.451  0.00  0.00    +0.005 C 
ATOM     18  C   UNL     1      -5.612   2.945  25.471  0.00  0.00    +0.154 C 
ATOM     19  O   UNL     1      -6.138   3.513  25.754  0.00  0.00    -0.223 OA
ATOM     20  C   UNL     1      -5.889   2.200  25.249  0.00  0.00    +0.033 C 
ATOM     21  C   UNL     1      -5.363   1.631  24.966  0.00  0.00    +0.003 C 
ATOM     22  C   UNL     1      -4.559   1.807  24.905  0.00  0.00    +0.006 C 
ATOM     23  C   UNL     1      -4.837   1.062  24.683  0.00  0.00    +0.000 C 
ATOM     24  C   UNL     1      -4.034   1.237  24.621  0.00  0.00    +0.050 C 
ATOM     35  S   UNL     1      -2.136   2.172  24.660  0.00  0.00    -0.054 S 
ENDROOT
BRANCH   5   2
ATOM      1  C   UNL     1       1.018   1.286  23.859  0.00  0.00    +0.009 C 
ATOM      2  C   UNL     1       0.250   1.513  24.058  0.00  0.00    +0.071 C 
ATOM      3  C   UNL     1      -0.024   0.761  23.859  0.00  0.00    +0.009 C 
ATOM      4  C   UNL     1       0.525   2.265  24.258  0.00  0.00    +0.009 C 
ENDBRANCH   5   2
BRANCH  14  16
ATOM     16  C   UNL     1      -5.089   3.836  25.707  0.00  0.00    +0.184 C 
ATOM     17  O   UNL     1      -4.588   4.490  25.753  0.00  0.00    -0.220 OA
ENDBRANCH  14  16
BRANCH  24  25
ATOM     25  C   UNL     1      -4.311   0.494  24.400  0.00  0.00    +0.093 C 
BRANCH  25  26
ATOM     26  C   UNL     1      -4.181  -0.158  24.889  0.00  0.00    +0.242 C 
ATOM     27  O   UNL     1      -4.312  -0.096  25.701  0.00  0.00    -0.273 OA
ATOM     28  N   UNL     1      -3.920  -0.871  24.566  0.00  0.00    -0.197 NA
BRANCH  28  29
ATOM     29  C   UNL     1      -3.790  -1.521  25.055  0.00  0.00    +0.179 C 
BRANCH  29  30
ATOM     30  C   UNL     1      -3.363  -2.169  24.774  0.00  0.00    +0.145 A 
ATOM     31  C   UNL     1      -3.683  -2.860  24.457  0.00  0.00    +0.038 A 
ATOM     32  C   UNL     1      -3.059  -3.358  24.248  0.00  0.00    +0.043 A 
ATOM     33  C   UNL     1      -2.353  -2.975  24.437  0.00  0.00    +0.179 A 
ATOM     34  O   UNL     1      -2.541  -2.240  24.762  0.00  0.00    -0.453 OA
ENDBRANCH  29  30
ENDBRANCH  28  29
ENDBRANCH  25  26
ENDBRANCH  24  25
TORSDOF 6
ENDMDL
MODEL 5
REMARK VINA RESULT:     -12.3      1.951      4.429
REMARK  Name = 
REMARK  6 active torsions:
REMARK  status: ('A' for Active; 'I' for Inactive)
REMARK    1  A    between atoms: C_2  and  C_5
REMARK    2  A    between atoms: C_14  and  C_16
REMARK    3  A    between atoms: C_24  and  C_25
REMARK    4  A    between atoms: C_25  and  C_26
REMARK    5  A    between atoms: N_28  and  C_29
REMARK    6  A    between atoms: C_29  and  C_30
REMARK                            x       y       z     vdW  Elec       q    Type
REMARK                         _______ _______ _______ _____ _____    ______ ____
ROOT
ATOM      5  C   UNL     1      -1.829   3.193  25.164  0.00  0.00    +0.246 C 
ATOM      6  O   UNL     1      -2.600   2.924  25.275  0.00  0.00    -0.273 OA
ATOM      7  N   UNL     1      -1.226   2.656  24.995  0.00  0.00    -0.154 NA
ATOM      8  C   UNL     1      -1.395   1.851  24.937  0.00  0.00    +0.185 A 
ATOM      9  N   UNL     1      -0.851   1.253  24.772  0.00  0.00    -0.227 NA
ATOM     10  C   UNL     1      -1.258   0.534  24.767  0.00  0.00    +0.063 A 
ATOM     11  C   UNL     1      -2.052   0.689  24.929  0.00  0.00    +0.023 A 
ATOM     12  C   UNL     1      -2.594   0.068  24.960  0.00  0.00    +0.034 C 
ATOM     13  C   UNL     1      -2.344  -0.706  24.829  0.00  0.00    +0.010 C 
ATOM     14  C   UNL     1      -2.887  -1.326  24.860  0.00  0.00    +0.059 C 
ATOM     15  C   UNL     1      -3.387  -0.690  25.021  0.00  0.00    +0.005 C 
ATOM     18  C   UNL     1      -2.637  -2.101  24.729  0.00  0.00    +0.154 C 
ATOM     19  O   UNL     1      -3.180  -2.722  24.760  0.00  0.00    -0.223 OA
ATOM     20  C   UNL     1      -1.843  -2.256  24.567  0.00  0.00    +0.033 C 
ATOM     21  C   UNL     1      -1.299  -1.636  24.536  0.00  0.00    +0.003 C 
ATOM     22  C   UNL     1      -1.550  -0.861  24.667  0.00  0.00    +0.006 C 
ATOM     23  C   UNL     1      -0.756  -1.016  24.505  0.00  0.00    +0.000 C 
ATOM     24  C   UNL     1      -1.007  -0.241  24.636  0.00  0.00    +0.050 C 
ATOM     35  S   UNL     1      -2.136   1.503  25.034  0.00  0.00    -0.054 S 
ENDROOT
BRANCH   5   2
ATOM      1  C   UNL     1      -1.491   4.804  25.279  0.00  0.00    +0.009 C 
ATOM      2  C   UNL     1      -1.660   3.999  25.221  0.00  0.00    +0.071 C 
ATOM      3  C   UNL     1      -0.976   3.888  24.774  0.00  0.00    +0.009 C 
ATOM      4  C   UNL     1      -2.344   4.110  25.669  0.00  0.00    +0.009 C 
ENDBRANCH   5   2
BRANCH  14  16
ATOM     16  C   UNL     1      -3.604  -1.725  24.947  0.00  0.00    +0.184 C 
ATOM     17  O   UNL     1      -4.313  -1.347  24.763  0.00  0.00    -0.220 OA
ENDBRANCH  14  16
BRANCH  24  25
ATOM     25  C   UNL     1      -0.214  -0.396  24.474  0.00  0.00    +0.093 C 
BRANCH  25  26
ATOM     26  C   UNL     1       0.091  -0.250  23.721  0.00  0.00    +0.242 C 
ATOM     27  O   UNL     1      -0.410  -0.263  23.066  0.00  0.00    -0.273 OA
ATOM     28  N   UNL     1       0.894  -0.091  23.624  0.00  0.00    -0.197 NA
BRANCH  28  29
ATOM     29  C   UNL     1       1.197   0.056  22.872  0.00  0.00    +0.179 C 
BRANCH  29  30
ATOM     30  C   UNL     1       1.992   0.259  22.779  0.00  0.00    +0.145 A 
ATOM     31  C   UNL     1       2.546  -0.147  22.322  0.00  0.00    +0.038 A 
ATOM     32  C   UNL     1       3.268   0.247  22.388  0.00  0.00    +0.043 A 
ATOM     33  C   UNL     1       3.160   0.896  22.886  0.00  0.00    +0.179 A 
ATOM     34  O   UNL     1       2.371   0.903  23.128  0.00  0.00    -0.453 OA
ENDBRANCH  29  30
ENDBRANCH  28  29
ENDBRANCH  25  26
ENDBRANCH  24  25
TORSDOF 6
ENDMDL
MODEL 6
REMARK VINA RESULT:     -12.1      1.583      2.054
REMARK  Name = 
REMARK  6 active torsions:
REMARK  status: ('A' for Active; 'I' for Inactive)
REMARK    1  A    between atoms: C_2  and  C_5
REMARK    2  A    between atoms: C_14  and  C_16
REMARK    3  A    between atoms: C_24  and  C_25
REMARK    4  A    between atoms: C_25  and  C_26
REMARK    5  A    between atoms: N_28  and  C_29
REMARK    6  A    between atoms: C_29  and  C_30
REMARK                            x       y       z     vdW  Elec       q    Type
REMARK                         _______ _______ _______ _____ _____    ______ ____
ROOT
ATOM      5  C   UNL     1      -3.543  -1.736  24.533  0.00  0.00    +0.246 C 
ATOM      6  O   UNL     1      -4.252  -1.706  24.953  0.00  0.00    -0.273 OA
ATOM      7  N   UNL     1      -3.182  -1.037  24.285  0.00  0.00    -0.154 NA
ATOM      8  C   UNL     1      -3.529  -0.309  24.458  0.00  0.00    +0.185 A 
ATOM      9  N   UNL     1      -3.232   0.431  24.246  0.00  0.00    -0.227 NA
ATOM     10  C   UNL     1      -3.754   1.005  24.529  0.00  0.00    +0.063 A 
ATOM     11  C   UNL     1      -4.372   0.618  24.915  0.00  0.00    +0.023 A 
ATOM     12  C   UNL     1      -4.982   1.057  25.257  0.00  0.00    +0.034 C 
ATOM     13  C   UNL     1      -4.974   1.880  25.214  0.00  0.00    +0.010 C 
ATOM     14  C   UNL     1      -5.583   2.317  25.556  0.00  0.00    +0.059 C 
ATOM     15  C   UNL     1      -5.834   1.553  25.741  0.00  0.00    +0.005 C 
ATOM     18  C   UNL     1      -5.575   3.141  25.512  0.00  0.00    +0.154 C 
ATOM     19  O   UNL     1      -6.185   3.579  25.854  0.00  0.00    -0.223 OA
ATOM     20  C   UNL     1      -4.957   3.527  25.126  0.00  0.00    +0.033 C 
ATOM     21  C   UNL     1      -4.346   3.090  24.784  0.00  0.00    +0.003 C 
ATOM     22  C   UNL     1      -4.355   2.266  24.828  0.00  0.00    +0.006 C 
ATOM     23  C   UNL     1      -3.737   2.652  24.442  0.00  0.00    +0.000 C 
ATOM     24  C   UNL     1      -3.745   1.829  24.486  0.00  0.00    +0.050 C 
ATOM     35  S   UNL     1      -4.233  -0.194  24.871  0.00  0.00    -0.054 S 
ENDROOT
BRANCH   5   2
ATOM      1  C   UNL     1      -2.848  -3.192  24.189  0.00  0.00    +0.009 C 
ATOM      2  C   UNL     1      -3.196  -2.464  24.361  0.00  0.00    +0.071 C 
ATOM      3  C   UNL     1      -2.569  -2.285  24.867  0.00  0.00    +0.009 C 
ATOM      4  C   UNL     1      -3.822  -2.643  23.855  0.00  0.00    +0.009 C 
ENDBRANCH   5   2
BRANCH  14  16
ATOM     16  C   UNL     1      -6.280   2.490  25.962  0.00  0.00    +0.184 C 
ATOM     17  O   UNL     1      -6.607   1.934  26.476  0.00  0.00    -0.220 OA
ENDBRANCH  14  16
BRANCH  24  25
ATOM     25  C   UNL     1      -3.127   2.215  24.100  0.00  0.00    +0.093 C 
BRANCH  25  26
ATOM     26  C   UNL     1      -2.440   2.408  24.513  0.00  0.00    +0.242 C 
ATOM     27  O   UNL     1      -2.117   1.871  25.049  0.00  0.00    -0.273 OA
ATOM     28  N   UNL     1      -2.075   3.137  24.389  0.00  0.00    -0.197 NA
BRANCH  28  29
ATOM     29  C   UNL     1      -1.387   3.330  24.801  0.00  0.00    +0.179 C 
BRANCH  29  30
ATOM     30  C   UNL     1      -1.123   4.111  24.821  0.00  0.00    +0.145 A 
ATOM     31  C   UNL     1      -0.444   4.403  24.454  0.00  0.00    +0.038 A 
ATOM     32  C   UNL     1      -0.393   5.210  24.618  0.00  0.00    +0.043 A 
ATOM     33  C   UNL     1      -1.040   5.417  25.085  0.00  0.00    +0.179 A 
ATOM     34  O   UNL     1      -1.491   4.738  25.211  0.00  0.00    -0.453 OA
ENDBRANCH  29  30
ENDBRANCH  28  29
ENDBRANCH  25  26
ENDBRANCH  24  25
TORSDOF 6
ENDMDL
MODEL 7
REMARK VINA RESULT:     -12.0      1.881      3.626
REMARK  Name = 
REMARK  6 active torsions:
REMARK  status: ('A' for Active; 'I' for Inactive)
REMARK    1  A    between atoms: C_2  and  C_5
REMARK    2  A    between atoms: C_14  and  C_16
REMARK    3  A    between atoms: C_24  and  C_25
REMARK    4  A    between atoms: C_25  and  C_26
REMARK    5  A    between atoms: N_28  and  C_29
REMARK    6  A    between atoms: C_29  and  C_30
REMARK                            x       y       z     vdW  Elec       q    Type
REMARK                         _______ _______ _______ _____ _____    ______ ____
ROOT
ATOM      5  C   UNL     1      -5.363   2.306  25.371  0.00  0.00    +0.246 C 
ATOM      6  O   UNL     1      -5.262   3.103  25.557  0.00  0.00    -0.273 OA
ATOM      7  N   UNL     1      -4.724   1.863  25.095  0.00  0.00    -0.154 NA
ATOM      8  C   UNL     1      -3.984   2.218  25.006  0.00  0.00    +0.185 A 
ATOM      9  N   UNL     1      -3.298   1.846  24.737  0.00  0.00    -0.227 NA
ATOM     10  C   UNL     1      -2.691   2.405  24.735  0.00  0.00    +0.063 A 
ATOM     11  C   UNL     1      -3.002   3.121  25.002  0.00  0.00    +0.023 A 
ATOM     12  C   UNL     1      -2.516   3.785  25.058  0.00  0.00    +0.034 C 
ATOM     13  C   UNL     1      -1.721   3.735  24.847  0.00  0.00    +0.010 C 
ATOM     14  C   UNL     1      -1.236   4.399  24.903  0.00  0.00    +0.059 C 
ATOM     15  C   UNL     1      -1.949   4.720  25.165  0.00  0.00    +0.005 C 
ATOM     18  C   UNL     1      -0.440   4.348  24.692  0.00  0.00    +0.154 C 
ATOM     19  O   UNL     1       0.046   5.013  24.748  0.00  0.00    -0.223 OA
ATOM     20  C   UNL     1      -0.129   3.632  24.425  0.00  0.00    +0.033 C 
ATOM     21  C   UNL     1      -0.614   2.967  24.369  0.00  0.00    +0.003 C 
ATOM     22  C   UNL     1      -1.410   3.018  24.580  0.00  0.00    +0.006 C 
ATOM     23  C   UNL     1      -1.099   2.302  24.313  0.00  0.00    +0.000 C 
ATOM     24  C   UNL     1      -1.894   2.353  24.524  0.00  0.00    +0.050 C 
ATOM     35  S   UNL     1      -3.802   3.005  25.169  0.00  0.00    -0.054 S 
ENDROOT
BRANCH   5   2
ATOM      1  C   UNL     1      -6.842   1.597  25.550  0.00  0.00    +0.009 C 
ATOM      2  C   UNL     1      -6.103   1.951  25.460  0.00  0.00    +0.071 C 
ATOM      3  C   UNL     1      -6.019   1.983  26.281  0.00  0.00    +0.009 C 
ATOM      4  C   UNL     1      -6.186   1.919  24.640  0.00  0.00    +0.009 C 
ENDBRANCH   5   2
BRANCH  14  16
ATOM     16  C   UNL     1      -0.998   5.176  25.050  0.00  0.00    +0.184 C 
ATOM     17  O   UNL     1      -1.555   5.744  25.267  0.00  0.00    -0.220 OA
ENDBRANCH  14  16
BRANCH  24  25
ATOM     25  C   UNL     1      -1.584   1.638  24.257  0.00  0.00    +0.093 C 
BRANCH  25  26
ATOM     26  C   UNL     1      -1.442   1.025  24.790  0.00  0.00    +0.242 C 
ATOM     27  O   UNL     1      -1.127   1.191  25.534  0.00  0.00    -0.273 OA
ATOM     28  N   UNL     1      -1.616   0.246  24.580  0.00  0.00    -0.197 NA
BRANCH  28  29
ATOM     29  C   UNL     1      -1.475  -0.366  25.114  0.00  0.00    +0.179 C 
BRANCH  29  30
ATOM     30  C   UNL     1      -1.683  -1.140  24.918  0.00  0.00    +0.145 A 
ATOM     31  C   UNL     1      -2.416  -1.494  25.055  0.00  0.00    +0.038 A 
ATOM     32  C   UNL     1      -2.382  -2.269  24.772  0.00  0.00    +0.043 A 
ATOM     33  C   UNL     1      -1.628  -2.393  24.461  0.00  0.00    +0.179 A 
ATOM     34  O   UNL     1      -1.196  -1.695  24.551  0.00  0.00    -0.453 OA
ENDBRANCH  29  30
ENDBRANCH  28  29
ENDBRANCH  25  26
ENDBRANCH  24  25
TORSDOF 6
ENDMDL
MODEL 8
REMARK VINA RESULT:     -11.7      1.125      4.264
REMARK  Name = 
REMARK  6 active torsions:
REMARK  status: ('A' for Active; 'I' for Inactive)
REMARK    1  A    between atoms: C_2  and  C_5
REMARK    2  A    between atoms: C_14  and  C_16
REMARK    3  A    between atoms: C_24  and  C_25
REMARK    4  A    between atoms: C_25  and  C_26
REMARK    5  A    between atoms: N_28  and  C_29
REMARK    6  A    between atoms: C_29  and  C_30
REMARK                            x       y       z     vdW  Elec       q    Type
REMARK                         _______ _______ _______ _____ _____    ______ ____
ROOT
ATOM      5  C   UNL     1      -3.045  -1.986  24.390  0.00  0.00    +0.246 C 
ATOM      6  O   UNL     1      -2.316  -2.158  24.044  0.00  0.00    -0.273 OA
ATOM      7  N   UNL     1      -3.190  -1.231  24.688  0.00  0.00    -0.154 NA
ATOM      8  C   UNL     1      -2.607  -0.649  24.641  0.00  0.00    +0.185 A 
ATOM      9  N   UNL     1      -2.673   0.127  24.914  0.00  0.00    -0.227 NA
ATOM     10  C   UNL     1      -1.963   0.514  24.754  0.00  0.00    +0.063 A 
ATOM     11  C   UNL     1      -1.458  -0.022  24.382  0.00  0.00    +0.023 A 
ATOM     12  C   UNL     1      -0.701   0.215  24.155  0.00  0.00    +0.034 C 
ATOM     13  C   UNL     1      -0.448   0.986  24.300  0.00  0.00    +0.010 C 
ATOM     14  C   UNL     1       0.309   1.222  24.073  0.00  0.00    +0.059 C 
ATOM     15  C   UNL     1       0.321   0.438  23.818  0.00  0.00    +0.005 C 
ATOM     18  C   UNL     1       0.562   1.994  24.218  0.00  0.00    +0.154 C 
ATOM     19  O   UNL     1       1.319   2.230  23.991  0.00  0.00    -0.223 OA
ATOM     20  C   UNL     1       0.057   2.530  24.590  0.00  0.00    +0.033 C 
ATOM     21  C   UNL     1      -0.701   2.294  24.818  0.00  0.00    +0.003 C 
ATOM     22  C   UNL     1      -0.953   1.522  24.672  0.00  0.00    +0.006 C 
ATOM     23  C   UNL     1      -1.457   2.058  25.045  0.00  0.00    +0.000 C 
ATOM     24  C   UNL     1      -1.710   1.287  24.900  0.00  0.00    +0.050 C 
ATOM     35  S   UNL     1      -1.857  -0.741  24.312  0.00  0.00    -0.054 S 
ENDROOT
BRANCH   5   2
ATOM      1  C   UNL     1      -4.211  -3.149  24.484  0.00  0.00    +0.009 C 
ATOM      2  C   UNL     1      -3.628  -2.568  24.437  0.00  0.00    +0.071 C 
ATOM      3  C   UNL     1      -3.225  -2.920  25.064  0.00  0.00    +0.009 C 
ATOM      4  C   UNL     1      -4.031  -2.215  23.810  0.00  0.00    +0.009 C 
ENDBRANCH   5   2
BRANCH  14  16
ATOM     16  C   UNL     1       1.070   1.186  23.758  0.00  0.00    +0.184 C 
ATOM     17  O   UNL     1       1.289   0.552  23.278  0.00  0.00    -0.220 OA
ENDBRANCH  14  16
BRANCH  24  25
ATOM     25  C   UNL     1      -2.214   1.822  25.271  0.00  0.00    +0.093 C 
BRANCH  25  26
ATOM     26  C   UNL     1      -2.831   2.171  24.849  0.00  0.00    +0.242 C 
ATOM     27  O   UNL     1      -2.702   2.441  24.080  0.00  0.00    -0.273 OA
ATOM     28  N   UNL     1      -3.576   2.249  25.195  0.00  0.00    -0.197 NA
BRANCH  28  29
ATOM     29  C   UNL     1      -4.192   2.597  24.772  0.00  0.00    +0.179 C 
BRANCH  29  30
ATOM     30  C   UNL     1      -4.956   2.598  25.082  0.00  0.00    +0.145 A 
ATOM     31  C   UNL     1      -5.546   2.043  24.920  0.00  0.00    +0.038 A 
ATOM     32  C   UNL     1      -6.220   2.255  25.347  0.00  0.00    +0.043 A 
ATOM     33  C   UNL     1      -6.047   2.941  25.772  0.00  0.00    +0.179 A 
ATOM     34  O   UNL     1      -5.266   3.152  25.608  0.00  0.00    -0.453 OA
ENDBRANCH  29  30
ENDBRANCH  28  29
ENDBRANCH  25  26
ENDBRANCH  24  25
TORSDOF 6
ENDMDL
