REMARK  Name = 
REMARK  5 active torsions:
REMARK  status: ('A' for Active; 'I' for Inactive)
REMARK    1  A    between atoms: N_4  and  C_5
REMARK    2  A    between atoms: C_8  and  C_9
REMARK    3  A    between atoms: C_9  and  N_10
REMARK    4  A    between atoms: C_15  and  C_16
REMARK    5  A    between atoms: C_18  and  C_21
REMARK                            x       y       z     vdW  Elec       q    Type
REMARK                         _______ _______ _______ _____ _____    ______ ____
ROOT
ATOM     10  N   UNL     1       0.000   0.000   0.000  0.00  0.00    -0.260 NA
ATOM     11  C   UNL     1       0.000   0.825   0.000  0.00  0.00    +0.105 C 
ATOM     12  C   UNL     1       0.715   1.238   0.000  0.00  0.00    +0.160 C 
ATOM     13  O   UNL     1       1.429   0.825   0.000  0.00  0.00    -0.350 OA
ATOM     14  C   UNL     1       1.429   0.000   0.000  0.00  0.00    +0.166 C 
ATOM     15  C   UNL     1       0.715  -0.412   0.000  0.00  0.00    +0.147 C 
ENDROOT
BRANCH  15  16
ATOM     16  C   UNL     1       0.715  -1.238   0.000  0.00  0.00    +0.156 A 
ATOM     17  N   UNL     1       1.382  -1.722   0.000  0.00  0.00    -0.228 NA
ATOM     18  C   UNL     1       1.127  -2.507   0.000  0.00  0.00    +0.102 A 
ATOM     19  C   UNL     1       0.302  -2.507   0.000  0.00  0.00    +0.119 A 
ATOM     20  N   UNL     1       0.047  -1.722   0.000  0.00  0.00    -0.226 NA
BRANCH  18  21
ATOM     21  C   UNL     1       1.612  -3.175   0.000  0.00  0.00    +0.022 A 
ATOM     22  C   UNL     1       2.432  -3.088   0.000  0.00  0.00    +0.022 A 
ATOM     23  C   UNL     1       2.917  -3.756   0.000  0.00  0.00    +0.099 A 
ATOM     24  N   UNL     1       2.582  -4.509   0.000  0.00  0.00    -0.242 NA
ATOM     25  C   UNL     1       1.761  -4.596   0.000  0.00  0.00    +0.099 A 
ATOM     26  C   UNL     1       1.276  -3.928   0.000  0.00  0.00    +0.022 A 
ENDBRANCH  18  21
ENDBRANCH  15  16
BRANCH  10   9
ATOM      9  C   UNL     1      -0.715  -0.412   0.000  0.00  0.00    +0.100 C 
BRANCH   9   8
ATOM      5  C   UNL     1      -2.858   0.825   0.000  0.00  0.00    +0.073 A 
ATOM      6  C   UNL     1      -2.143   1.238   0.000  0.00  0.00    +0.016 A 
ATOM      7  C   UNL     1      -1.429   0.825   0.000  0.00  0.00    -0.002 A 
ATOM      8  C   UNL     1      -1.429   0.000   0.000  0.00  0.00    -0.006 A 
ATOM     27  C   UNL     1      -2.143  -0.412   0.000  0.00  0.00    -0.002 A 
ATOM     28  C   UNL     1      -2.858   0.000   0.000  0.00  0.00    +0.016 A 
BRANCH   5   4
ATOM      1  C   UNL     1      -5.001   1.238   0.000  0.00  0.00    +0.097 C 
ATOM      2  C   UNL     1      -4.287   0.825   0.000  0.00  0.00    +0.246 C 
ATOM      3  O   UNL     1      -4.287   0.000   0.000  0.00  0.00    -0.273 OA
ATOM      4  N   UNL     1      -3.572   1.238   0.000  0.00  0.00    -0.179 NA
ENDBRANCH   5   4
ENDBRANCH   9   8
ENDBRANCH  10   9
TORSDOF 5
