REMARK  Name = 
REMARK  8 active torsions:
REMARK  status: ('A' for Active; 'I' for Inactive)
REMARK    1  A    between atoms: C_4  and  C_5
REMARK    2  A    between atoms: C_5  and  C_6
REMARK    3  A    between atoms: C_9  and  C_10
REMARK    4  A    between atoms: C_10  and  O_11
REMARK    5  A    between atoms: O_11  and  C_12
REMARK    6  A    between atoms: C_20  and  N_21
REMARK    7  A    between atoms: N_24  and  C_25
REMARK    8  A    between atoms: C_25  and  C_26
REMARK                            x       y       z     vdW  Elec       q    Type
REMARK                         _______ _______ _______ _____ _____    ______ ____
ROOT
ATOM      1  C   UNL     1       2.727  -3.129   0.000  0.00  0.00    +0.002 C 
ATOM      2  C   UNL     1       2.143  -3.712   0.000  0.00  0.00    +0.019 C 
ATOM      3  C   UNL     1       1.560  -3.129   0.000  0.00  0.00    +0.002 C 
ATOM      4  C   UNL     1       2.727  -4.296   0.000  0.00  0.00    +0.009 C 
ATOM     19  C   UNL     1       2.143  -4.879   0.000  0.00  0.00    +0.022 C 
ATOM     20  C   UNL     1       1.560  -4.296   0.000  0.00  0.00    +0.097 C 
ENDROOT
BRANCH  20  21
ATOM     21  N   UNL     1       0.735  -4.296   0.000  0.00  0.00    -0.189 NA
ATOM     22  C   UNL     1       0.323  -5.010   0.000  0.00  0.00    +0.340 C 
ATOM     23  O   UNL     1       0.735  -5.725   0.000  0.00  0.00    -0.249 OA
ATOM     24  N   UNL     1      -0.502  -5.010   0.000  0.00  0.00    -0.182 NA
BRANCH  24  25
ATOM     25  C   UNL     1      -0.915  -5.725   0.000  0.00  0.00    +0.143 C 
BRANCH  25  26
ATOM     26  C   UNL     1      -1.740  -5.725   0.000  0.00  0.00    -0.001 A 
ATOM     27  C   UNL     1      -2.152  -6.439   0.000  0.00  0.00    -0.003 A 
ATOM     28  C   UNL     1      -2.978  -6.439   0.000  0.00  0.00    -0.000 A 
ATOM     29  C   UNL     1      -3.390  -5.725   0.000  0.00  0.00    -0.000 A 
ATOM     30  C   UNL     1      -2.978  -5.010   0.000  0.00  0.00    -0.000 A 
ATOM     31  C   UNL     1      -2.152  -5.010   0.000  0.00  0.00    -0.003 A 
ENDBRANCH  25  26
ENDBRANCH  24  25
ENDBRANCH  20  21
BRANCH   4   5
ATOM      5  C   UNL     1       3.552  -4.296   0.000  0.00  0.00    +0.049 C 
BRANCH   5   6
ATOM      6  C   UNL     1       3.964  -5.010   0.000  0.00  0.00    +0.100 A 
ATOM      7  N   UNL     1       4.785  -5.097   0.000  0.00  0.00    -0.082 NA
ATOM      8  O   UNL     1       4.956  -5.904   0.000  0.00  0.00    -0.354 OA
ATOM      9  C   UNL     1       4.242  -6.316   0.000  0.00  0.00    +0.198 A 
ATOM     18  C   UNL     1       3.629  -5.764   0.000  0.00  0.00    +0.057 A 
BRANCH   9  10
ATOM     10  C   UNL     1       4.156  -7.136   0.000  0.00  0.00    +0.272 C 
BRANCH  10  11
ATOM     11  O   UNL     1       4.823  -7.621   0.000  0.00  0.00    -0.467 OA
BRANCH  11  12
ATOM     12  C   UNL     1       4.737  -8.442   0.000  0.00  0.00    +0.139 A 
ATOM     13  C   UNL     1       5.404  -8.927   0.000  0.00  0.00    +0.037 A 
ATOM     14  C   UNL     1       5.318  -9.747   0.000  0.00  0.00    +0.003 A 
ATOM     15  C   UNL     1       4.564 -10.083   0.000  0.00  0.00    +0.000 A 
ATOM     16  C   UNL     1       3.897  -9.598   0.000  0.00  0.00    +0.003 A 
ATOM     17  C   UNL     1       3.983  -8.777   0.000  0.00  0.00    +0.037 A 
ENDBRANCH  11  12
ENDBRANCH  10  11
ENDBRANCH   9  10
ENDBRANCH   5   6
ENDBRANCH   4   5
TORSDOF 8
