MODEL 1
REMARK VINA RESULT:      -8.9      0.000      0.000
REMARK  Name = 
REMARK  9 active torsions:
REMARK  status: ('A' for Active; 'I' for Inactive)
REMARK    1  A    between atoms: C_4  and  C_7
REMARK    2  A    between atoms: C_12  and  N_28
REMARK    3  A    between atoms: C_14  and  C_15
REMARK    4  A    between atoms: N_17  and  C_18
REMARK    5  A    between atoms: C_18  and  C_19
REMARK    6  A    between atoms: C_18  and  C_25
REMARK    7  A    between atoms: C_19  and  C_20
REMARK    8  A    between atoms: C_31  and  C_32
REMARK    9  A    between atoms: C_35  and  C_36
REMARK                            x       y       z     vdW  Elec       q    Type
REMARK                         _______ _______ _______ _____ _____    ______ ____
ROOT
ATOM      7  C   UNL     1      -0.215  -0.108  23.916  0.00  0.00    +0.268 C 
ATOM      8  O   UNL     1      -0.450  -0.820  24.262  0.00  0.00    -0.268 OA
ATOM      9  N   UNL     1      -0.634   0.584  24.071  0.00  0.00    -0.268 N 
ATOM     10  C   UNL     1      -0.399   1.296  23.725  0.00  0.00    +0.096 C 
ATOM     11  C   UNL     1      -0.819   1.988  23.881  0.00  0.00    +0.046 C 
ATOM     12  C   UNL     1      -1.474   1.971  24.382  0.00  0.00    +0.111 C 
ATOM     13  C   UNL     1      -1.709   1.260  24.729  0.00  0.00    +0.054 C 
ATOM     14  C   UNL     1      -1.289   0.566  24.573  0.00  0.00    +0.156 C 
ENDROOT
BRANCH   7   4
ATOM      1  C   UNL     1       2.481   0.276  22.906  0.00  0.00    +0.059 C 
ATOM      2  C   UNL     1       1.680   0.086  22.950  0.00  0.00    +0.089 A 
ATOM      3  N   UNL     1       1.199   0.161  23.617  0.00  0.00    -0.238 NA
ATOM      4  C   UNL     1       0.440  -0.090  23.414  0.00  0.00    +0.141 A 
ATOM      5  C   UNL     1       0.451  -0.321  22.622  0.00  0.00    +0.060 A 
ATOM      6  S   UNL     1       1.217  -0.211  22.336  0.00  0.00    -0.070 S 
ENDBRANCH   7   4
BRANCH  12  28
ATOM     28  N   UNL     1      -1.894   2.664  24.538  0.00  0.00    -0.229 N 
ATOM     29  N   UNL     1      -2.584   2.907  24.159  0.00  0.00    -0.064 NA
ATOM     30  N   UNL     1      -2.815   3.628  24.487  0.00  0.00    -0.124 NA
ATOM     31  C   UNL     1      -2.265   3.830  25.068  0.00  0.00    +0.183 A 
ATOM     35  C   UNL     1      -1.697   3.235  25.100  0.00  0.00    +0.160 A 
BRANCH  31  32
ATOM     32  C   UNL     1      -2.283   4.510  25.536  0.00  0.00    +0.305 C 
ATOM     33  N   UNL     1      -2.774   4.544  26.197  0.00  0.00    -0.082 NA
ATOM     34  O   UNL     1      -1.809   5.156  25.341  0.00  0.00    -0.265 OA
ENDBRANCH  31  32
BRANCH  35  36
ATOM     36  C   UNL     1      -1.044   3.213  25.605  0.00  0.00    +0.303 C 
ATOM     37  N   UNL     1      -0.328   3.548  25.369  0.00  0.00    -0.082 NA
ATOM     38  O   UNL     1      -1.109   2.855  26.346  0.00  0.00    -0.265 OA
ENDBRANCH  35  36
ENDBRANCH  12  28
BRANCH  14  15
ATOM     15  C   UNL     1      -1.524  -0.145  24.919  0.00  0.00    +0.260 C 
ATOM     16  O   UNL     1      -0.973  -0.615  25.311  0.00  0.00    -0.272 OA
ATOM     17  N   UNL     1      -2.313  -0.384  24.872  0.00  0.00    -0.196 NA
BRANCH  17  18
ATOM     18  C   UNL     1      -2.549  -1.095  25.218  0.00  0.00    +0.179 C 
BRANCH  18  25
ATOM     25  C   UNL     1      -2.779  -1.112  26.010  0.00  0.00    +0.281 C 
ATOM     26  N   UNL     1      -2.380  -1.597  26.546  0.00  0.00    -0.086 NA
ATOM     27  O   UNL     1      -3.407  -0.643  26.268  0.00  0.00    -0.270 OA
ENDBRANCH  18  25
BRANCH  18  19
ATOM     19  C   UNL     1      -2.556  -1.789  24.772  0.00  0.00    +0.064 C 
BRANCH  19  20
ATOM     20  C   UNL     1      -3.245  -2.021  24.381  0.00  0.00    +0.010 A 
ATOM     21  C   UNL     1      -3.754  -1.526  23.961  0.00  0.00    +0.003 A 
ATOM     22  C   UNL     1      -4.369  -1.988  23.662  0.00  0.00    +0.007 A 
ATOM     23  C   UNL     1      -4.240  -2.768  23.897  0.00  0.00    +0.035 A 
ATOM     24  S   UNL     1      -3.545  -2.788  24.342  0.00  0.00    -0.091 S 
ENDBRANCH  19  20
ENDBRANCH  18  19
ENDBRANCH  17  18
ENDBRANCH  14  15
TORSDOF 9
ENDMDL
MODEL 2
REMARK VINA RESULT:      -8.0      2.264      4.317
REMARK  Name = 
REMARK  9 active torsions:
REMARK  status: ('A' for Active; 'I' for Inactive)
REMARK    1  A    between atoms: C_4  and  C_7
REMARK    2  A    between atoms: C_12  and  N_28
REMARK    3  A    between atoms: C_14  and  C_15
REMARK    4  A    between atoms: N_17  and  C_18
REMARK    5  A    between atoms: C_18  and  C_19
REMARK    6  A    between atoms: C_18  and  C_25
REMARK    7  A    between atoms: C_19  and  C_20
REMARK    8  A    between atoms: C_31  and  C_32
REMARK    9  A    between atoms: C_35  and  C_36
REMARK                            x       y       z     vdW  Elec       q    Type
REMARK                         _______ _______ _______ _____ _____    ______ ____
ROOT
ATOM      7  C   UNL     1      -3.794  -0.748  24.658  0.00  0.00    +0.268 C 
ATOM      8  O   UNL     1      -4.527  -0.387  24.536  0.00  0.00    -0.268 OA
ATOM      9  N   UNL     1      -3.120  -0.285  24.769  0.00  0.00    -0.268 N 
ATOM     10  C   UNL     1      -2.388  -0.646  24.891  0.00  0.00    +0.096 C 
ATOM     11  C   UNL     1      -1.714  -0.184  25.002  0.00  0.00    +0.046 C 
ATOM     12  C   UNL     1      -1.772   0.639  24.990  0.00  0.00    +0.111 C 
ATOM     13  C   UNL     1      -2.503   1.000  24.868  0.00  0.00    +0.054 C 
ATOM     14  C   UNL     1      -3.178   0.537  24.758  0.00  0.00    +0.156 C 
ENDROOT
BRANCH   7   4
ATOM      1  C   UNL     1      -3.739  -3.524  23.808  0.00  0.00    +0.059 C 
ATOM      2  C   UNL     1      -3.711  -2.847  24.279  0.00  0.00    +0.089 A 
ATOM      3  N   UNL     1      -3.805  -2.070  24.016  0.00  0.00    -0.238 NA
ATOM      4  C   UNL     1      -3.737  -1.570  24.669  0.00  0.00    +0.141 A 
ATOM      5  C   UNL     1      -3.600  -2.038  25.335  0.00  0.00    +0.060 A 
ATOM      6  S   UNL     1      -3.585  -2.827  25.093  0.00  0.00    -0.070 S 
ENDBRANCH   7   4
BRANCH  12  28
ATOM     28  N   UNL     1      -1.097   1.102  25.101  0.00  0.00    -0.229 N 
ATOM     29  N   UNL     1      -0.806   1.368  25.825  0.00  0.00    -0.064 NA
ATOM     30  N   UNL     1      -0.125   1.810  25.679  0.00  0.00    -0.124 NA
ATOM     31  C   UNL     1       0.004   1.817  24.864  0.00  0.00    +0.183 A 
ATOM     35  C   UNL     1      -0.596   1.379  24.507  0.00  0.00    +0.160 A 
BRANCH  31  32
ATOM     32  C   UNL     1       0.626   2.195  24.476  0.00  0.00    +0.305 C 
ATOM     33  N   UNL     1       0.587   3.005  24.324  0.00  0.00    -0.082 NA
ATOM     34  O   UNL     1       1.287   1.763  24.238  0.00  0.00    -0.265 OA
ENDBRANCH  31  32
BRANCH  35  36
ATOM     36  C   UNL     1      -0.682   1.242  23.698  0.00  0.00    +0.303 C 
ATOM     37  N   UNL     1      -0.316   0.590  23.349  0.00  0.00    -0.082 NA
ATOM     38  O   UNL     1      -1.132   1.758  23.238  0.00  0.00    -0.265 OA
ENDBRANCH  35  36
ENDBRANCH  12  28
BRANCH  14  15
ATOM     15  C   UNL     1      -3.910   0.898  24.636  0.00  0.00    +0.260 C 
ATOM     16  O   UNL     1      -4.391   0.655  24.013  0.00  0.00    -0.272 OA
ATOM     17  N   UNL     1      -4.159   1.504  25.139  0.00  0.00    -0.196 NA
BRANCH  17  18
ATOM     18  C   UNL     1      -4.891   1.865  25.017  0.00  0.00    +0.179 C 
BRANCH  18  25
ATOM     25  C   UNL     1      -5.553   1.605  25.434  0.00  0.00    +0.281 C 
ATOM     26  N   UNL     1      -6.273   1.503  25.043  0.00  0.00    -0.086 NA
ATOM     27  O   UNL     1      -5.497   1.446  26.242  0.00  0.00    -0.270 OA
ENDBRANCH  18  25
BRANCH  18  19
ATOM     19  C   UNL     1      -4.960   2.487  24.480  0.00  0.00    +0.064 C 
BRANCH  19  20
ATOM     20  C   UNL     1      -4.657   3.231  24.669  0.00  0.00    +0.010 A 
ATOM     21  C   UNL     1      -4.834   3.668  25.346  0.00  0.00    +0.003 A 
ATOM     22  C   UNL     1      -4.411   4.376  25.310  0.00  0.00    +0.007 A 
ATOM     23  C   UNL     1      -3.973   4.376  24.610  0.00  0.00    +0.035 A 
ATOM     24  S   UNL     1      -4.126   3.668  24.214  0.00  0.00    -0.091 S 
ENDBRANCH  19  20
ENDBRANCH  18  19
ENDBRANCH  17  18
ENDBRANCH  14  15
TORSDOF 9
ENDMDL
MODEL 3
REMARK VINA RESULT:      -7.8      2.355      4.702
REMARK  Name = 
REMARK  9 active torsions:
REMARK  status: ('A' for Active; 'I' for Inactive)
REMARK    1  A    between atoms: C_4  and  C_7
REMARK    2  A    between atoms: C_12  and  N_28
REMARK    3  A    between atoms: C_14  and  C_15
REMARK    4  A    between atoms: N_17  and  C_18
REMARK    5  A    between atoms: C_18  and  C_19
REMARK    6  A    between atoms: C_18  and  C_25
REMARK    7  A    between atoms: C_19  and  C_20
REMARK    8  A    between atoms: C_31  and  C_32
REMARK    9  A    between atoms: C_35  and  C_36
REMARK                            x       y       z     vdW  Elec       q    Type
REMARK                         _______ _______ _______ _____ _____    ______ ____
ROOT
ATOM      7  C   UNL     1      -1.240   2.168  25.295  0.00  0.00    +0.268 C 
ATOM      8  O   UNL     1      -1.656   2.809  24.983  0.00  0.00    -0.268 OA
ATOM      9  N   UNL     1      -1.476   1.398  25.120  0.00  0.00    -0.268 N 
ATOM     10  C   UNL     1      -1.059   0.757  25.432  0.00  0.00    +0.096 C 
ATOM     11  C   UNL     1      -1.296  -0.013  25.258  0.00  0.00    +0.046 C 
ATOM     12  C   UNL     1      -1.950  -0.144  24.772  0.00  0.00    +0.111 C 
ATOM     13  C   UNL     1      -2.367   0.496  24.460  0.00  0.00    +0.054 C 
ATOM     14  C   UNL     1      -2.130   1.267  24.635  0.00  0.00    +0.156 C 
ENDROOT
BRANCH   7   4
ATOM      1  C   UNL     1       0.428   2.513  27.648  0.00  0.00    +0.059 C 
ATOM      2  C   UNL     1       0.180   2.458  26.863  0.00  0.00    +0.089 A 
ATOM      3  N   UNL     1      -0.589   2.307  26.606  0.00  0.00    -0.238 NA
ATOM      4  C   UNL     1      -0.586   2.299  25.781  0.00  0.00    +0.141 A 
ATOM      5  C   UNL     1       0.185   2.446  25.527  0.00  0.00    +0.060 A 
ATOM      6  S   UNL     1       0.659   2.544  26.196  0.00  0.00    -0.070 S 
ENDBRANCH   7   4
BRANCH  12  28
ATOM     28  N   UNL     1      -2.187  -0.915  24.598  0.00  0.00    -0.229 N 
ATOM     29  N   UNL     1      -1.860  -1.403  24.019  0.00  0.00    -0.064 NA
ATOM     30  N   UNL     1      -2.263  -2.123  24.035  0.00  0.00    -0.124 NA
ATOM     31  C   UNL     1      -2.839  -2.079  24.623  0.00  0.00    +0.183 A 
ATOM     35  C   UNL     1      -2.792  -1.333  24.971  0.00  0.00    +0.160 A 
BRANCH  31  32
ATOM     32  C   UNL     1      -3.370  -2.677  24.828  0.00  0.00    +0.305 C 
ATOM     33  N   UNL     1      -3.994  -2.865  24.323  0.00  0.00    -0.082 NA
ATOM     34  O   UNL     1      -3.275  -3.087  25.537  0.00  0.00    -0.265 OA
ENDBRANCH  31  32
BRANCH  35  36
ATOM     36  C   UNL     1      -3.267  -1.052  25.585  0.00  0.00    +0.303 C 
ATOM     37  N   UNL     1      -3.009  -1.110  26.366  0.00  0.00    -0.082 NA
ATOM     38  O   UNL     1      -4.001  -0.715  25.416  0.00  0.00    -0.265 OA
ENDBRANCH  35  36
ENDBRANCH  12  28
BRANCH  14  15
ATOM     15  C   UNL     1      -2.547   1.907  24.322  0.00  0.00    +0.260 C 
ATOM     16  O   UNL     1      -2.142   2.527  23.962  0.00  0.00    -0.272 OA
ATOM     17  N   UNL     1      -3.371   1.925  24.372  0.00  0.00    -0.196 NA
BRANCH  17  18
ATOM     18  C   UNL     1      -3.789   2.564  24.060  0.00  0.00    +0.179 C 
BRANCH  18  25
ATOM     25  C   UNL     1      -3.811   2.684  23.244  0.00  0.00    +0.281 C 
ATOM     26  N   UNL     1      -3.774   3.449  22.937  0.00  0.00    -0.086 NA
ATOM     27  O   UNL     1      -3.869   2.038  22.734  0.00  0.00    -0.270 OA
ENDBRANCH  18  25
BRANCH  18  19
ATOM     19  C   UNL     1      -4.185   3.083  24.563  0.00  0.00    +0.064 C 
BRANCH  19  20
ATOM     20  C   UNL     1      -4.843   2.824  24.988  0.00  0.00    +0.010 A 
ATOM     21  C   UNL     1      -5.404   2.279  24.727  0.00  0.00    +0.003 A 
ATOM     22  C   UNL     1      -5.963   2.183  25.326  0.00  0.00    +0.007 A 
ATOM     23  C   UNL     1      -5.748   2.669  25.957  0.00  0.00    +0.035 A 
ATOM     24  S   UNL     1      -5.055   3.066  25.747  0.00  0.00    -0.091 S 
ENDBRANCH  19  20
ENDBRANCH  18  19
ENDBRANCH  17  18
ENDBRANCH  14  15
TORSDOF 9
ENDMDL
MODEL 4
REMARK VINA RESULT:      -7.7      2.108      5.441
REMARK  Name = 
REMARK  9 active torsions:
REMARK  status: ('A' for Active; 'I' for Inactive)
REMARK    1  A    between atoms: C_4  and  C_7
REMARK    2  A    between atoms: C_12  and  N_28
REMARK    3  A    between atoms: C_14  and  C_15
REMARK    4  A    between atoms: N_17  and  C_18
REMARK    5  A    between atoms: C_18  and  C_19
REMARK    6  A    between atoms: C_18  and  C_25
REMARK    7  A    between atoms: C_19  and  C_20
REMARK    8  A    between atoms: C_31  and  C_32
REMARK    9  A    between atoms: C_35  and  C_36
REMARK                            x       y       z     vdW  Elec       q    Type
REMARK                         _______ _______ _______ _____ _____    ______ ____
ROOT
ATOM      7  C   UNL     1      -3.730   2.608  25.109  0.00  0.00    +0.268 C 
ATOM      8  O   UNL     1      -3.036   3.051  25.049  0.00  0.00    -0.268 OA
ATOM      9  N   UNL     1      -3.729   1.811  24.897  0.00  0.00    -0.268 N 
ATOM     10  C   UNL     1      -4.423   1.367  24.957  0.00  0.00    +0.096 C 
ATOM     11  C   UNL     1      -4.423   0.571  24.745  0.00  0.00    +0.046 C 
ATOM     12  C   UNL     1      -3.730   0.216  24.473  0.00  0.00    +0.111 C 
ATOM     13  C   UNL     1      -3.036   0.659  24.413  0.00  0.00    +0.054 C 
ATOM     14  C   UNL     1      -3.036   1.456  24.625  0.00  0.00    +0.156 C 
ENDROOT
BRANCH   7   4
ATOM      1  C   UNL     1      -6.026   4.372  25.333  0.00  0.00    +0.059 C 
ATOM      2  C   UNL     1      -5.479   3.773  25.484  0.00  0.00    +0.089 A 
ATOM      3  N   UNL     1      -4.812   3.600  25.030  0.00  0.00    -0.238 NA
ATOM      4  C   UNL     1      -4.423   2.962  25.381  0.00  0.00    +0.141 A 
ATOM      5  C   UNL     1      -4.849   2.742  26.052  0.00  0.00    +0.060 A 
ATOM      6  S   UNL     1      -5.502   3.243  26.116  0.00  0.00    -0.070 S 
ENDBRANCH   7   4
BRANCH  12  28
ATOM     28  N   UNL     1      -3.729  -0.582  24.261  0.00  0.00    -0.229 N 
ATOM     29  N   UNL     1      -3.965  -0.889  23.533  0.00  0.00    -0.064 NA
ATOM     30  N   UNL     1      -3.875  -1.709  23.561  0.00  0.00    -0.124 NA
ATOM     31  C   UNL     1      -3.583  -1.907  24.308  0.00  0.00    +0.183 A 
ATOM     35  C   UNL     1      -3.493  -1.211  24.739  0.00  0.00    +0.160 A 
BRANCH  31  32
ATOM     32  C   UNL     1      -3.411  -2.669  24.574  0.00  0.00    +0.305 C 
ATOM     33  N   UNL     1      -2.678  -3.008  24.410  0.00  0.00    -0.082 NA
ATOM     34  O   UNL     1      -3.975  -3.092  25.003  0.00  0.00    -0.265 OA
ENDBRANCH  31  32
BRANCH  35  36
ATOM     36  C   UNL     1      -3.216  -1.153  25.514  0.00  0.00    +0.303 C 
ATOM     37  N   UNL     1      -2.404  -1.151  25.663  0.00  0.00    -0.082 NA
ATOM     38  O   UNL     1      -3.750  -1.097  26.140  0.00  0.00    -0.265 OA
ENDBRANCH  35  36
ENDBRANCH  12  28
BRANCH  14  15
ATOM     15  C   UNL     1      -2.342   1.899  24.565  0.00  0.00    +0.260 C 
ATOM     16  O   UNL     1      -2.349   2.627  24.180  0.00  0.00    -0.272 OA
ATOM     17  N   UNL     1      -1.641   1.611  24.891  0.00  0.00    -0.196 NA
BRANCH  17  18
ATOM     18  C   UNL     1      -0.946   2.053  24.831  0.00  0.00    +0.179 C 
BRANCH  18  25
ATOM     25  C   UNL     1      -0.655   2.453  25.490  0.00  0.00    +0.281 C 
ATOM     26  N   UNL     1      -0.443   3.249  25.430  0.00  0.00    -0.086 NA
ATOM     27  O   UNL     1      -0.575   2.059  26.210  0.00  0.00    -0.270 OA
ENDBRANCH  18  25
BRANCH  18  19
ATOM     19  C   UNL     1      -0.544   2.094  24.112  0.00  0.00    +0.064 C 
BRANCH  19  20
ATOM     20  C   UNL     1       0.012   1.515  23.916  0.00  0.00    +0.010 A 
ATOM     21  C   UNL     1      -0.156   0.746  23.672  0.00  0.00    +0.003 A 
ATOM     22  C   UNL     1       0.560   0.360  23.535  0.00  0.00    +0.007 A 
ATOM     23  C   UNL     1       1.171   0.892  23.696  0.00  0.00    +0.035 A 
ATOM     24  S   UNL     1       0.830   1.606  23.932  0.00  0.00    -0.091 S 
ENDBRANCH  19  20
ENDBRANCH  18  19
ENDBRANCH  17  18
ENDBRANCH  14  15
TORSDOF 9
ENDMDL
