MODEL 1
REMARK VINA RESULT:      -9.1      0.000      0.000
REMARK  Name = 
REMARK  7 active torsions:
REMARK  status: ('A' for Active; 'I' for Inactive)
REMARK    1  A    between atoms: N_2  and  C_3
REMARK    2  A    between atoms: N_2  and  C_11
REMARK    3  A    between atoms: C_3  and  C_4
REMARK    4  A    between atoms: C_4  and  C_5
REMARK    5  A    between atoms: C_12  and  C_13
REMARK    6  A    between atoms: C_13  and  N_14
REMARK    7  A    between atoms: C_19  and  C_20
REMARK                            x       y       z     vdW  Elec       q    Type
REMARK                         _______ _______ _______ _____ _____    ______ ____
ROOT
ATOM     11  C   UNL     1      -4.165   2.302  24.738  0.00  0.00    +0.120 C 
ATOM     12  C   UNL     1      -3.739   2.901  25.110  0.00  0.00    +0.154 C 
ATOM     18  O   UNL     1      -4.275   3.392  25.498  0.00  0.00    -0.350 OA
ATOM     19  C   UNL     1      -5.034   3.097  25.366  0.00  0.00    +0.180 C 
ATOM     22  C   UNL     1      -4.966   2.423  24.896  0.00  0.00    +0.198 C 
ATOM     23  O   UNL     1      -5.589   1.952  24.631  0.00  0.00    -0.219 OA
ENDROOT
BRANCH  11   2
ATOM      1  C   UNL     1      -3.595   1.832  23.514  0.00  0.00    +0.090 C 
ATOM      2  N   UNL     1      -3.848   1.689  24.286  0.00  0.00    -0.268 NA
BRANCH   2   3
ATOM      3  C   UNL     1      -3.783   0.930  24.606  0.00  0.00    +0.079 C 
BRANCH   3   4
ATOM      4  C   UNL     1      -3.490   0.311  24.146  0.00  0.00    +0.063 C 
BRANCH   4   5
ATOM      5  C   UNL     1      -3.497  -0.459  24.439  0.00  0.00    +0.060 A 
ATOM      6  N   UNL     1      -3.094  -0.640  25.136  0.00  0.00    -0.248 NA
ATOM      7  C   UNL     1      -3.100  -1.410  25.430  0.00  0.00    +0.098 A 
ATOM      8  C   UNL     1      -3.510  -2.001  25.026  0.00  0.00    +0.021 A 
ATOM      9  C   UNL     1      -3.914  -1.822  24.329  0.00  0.00    +0.003 A 
ATOM     10  C   UNL     1      -3.907  -1.050  24.036  0.00  0.00    +0.015 A 
ENDBRANCH   4   5
ENDBRANCH   3   4
ENDBRANCH   2   3
ENDBRANCH  11   2
BRANCH  19  20
ATOM     20  C   UNL     1      -5.737   3.419  25.654  0.00  0.00    +0.214 C 
ATOM     21  O   UNL     1      -5.811   4.237  25.736  0.00  0.00    -0.218 OA
ENDBRANCH  19  20
BRANCH  12  13
ATOM     13  C   UNL     1      -2.918   2.993  25.096  0.00  0.00    +0.146 C 
BRANCH  13  14
ATOM     14  N   UNL     1      -2.586   3.742  25.188  0.00  0.00    -0.203 NA
ATOM     15  C   UNL     1      -1.789   3.818  25.390  0.00  0.00    +0.242 C 
ATOM     16  C   UNL     1      -1.326   3.144  25.501  0.00  0.00    +0.096 C 
ATOM     17  O   UNL     1      -1.456   4.567  25.482  0.00  0.00    -0.273 OA
ENDBRANCH  13  14
ENDBRANCH  12  13
TORSDOF 7
ENDMDL
MODEL 2
REMARK VINA RESULT:      -9.1      0.911      2.470
REMARK  Name = 
REMARK  7 active torsions:
REMARK  status: ('A' for Active; 'I' for Inactive)
REMARK    1  A    between atoms: N_2  and  C_3
REMARK    2  A    between atoms: N_2  and  C_11
REMARK    3  A    between atoms: C_3  and  C_4
REMARK    4  A    between atoms: C_4  and  C_5
REMARK    5  A    between atoms: C_12  and  C_13
REMARK    6  A    between atoms: C_13  and  N_14
REMARK    7  A    between atoms: C_19  and  C_20
REMARK                            x       y       z     vdW  Elec       q    Type
REMARK                         _______ _______ _______ _____ _____    ______ ____
ROOT
ATOM     11  C   UNL     1      -2.752   2.562  24.448  0.00  0.00    +0.120 C 
ATOM     12  C   UNL     1      -3.273   3.018  24.896  0.00  0.00    +0.154 C 
ATOM     18  O   UNL     1      -2.839   3.620  25.256  0.00  0.00    -0.350 OA
ATOM     19  C   UNL     1      -2.050   3.536  25.031  0.00  0.00    +0.180 C 
ATOM     22  C   UNL     1      -1.996   2.882  24.532  0.00  0.00    +0.198 C 
ATOM     23  O   UNL     1      -1.307   2.598  24.177  0.00  0.00    -0.219 OA
ENDROOT
BRANCH  11   2
ATOM      1  C   UNL     1      -3.112   1.985  23.191  0.00  0.00    +0.090 C 
ATOM      2  N   UNL     1      -2.952   1.902  23.996  0.00  0.00    -0.268 NA
BRANCH   2   3
ATOM      3  C   UNL     1      -2.990   1.156  24.349  0.00  0.00    +0.079 C 
BRANCH   3   4
ATOM      4  C   UNL     1      -3.126   0.487  23.885  0.00  0.00    +0.063 C 
BRANCH   4   5
ATOM      5  C   UNL     1      -3.223  -0.249  24.243  0.00  0.00    +0.060 A 
ATOM      6  N   UNL     1      -2.602  -0.587  24.669  0.00  0.00    -0.248 NA
ATOM      7  C   UNL     1      -2.698  -1.323  25.026  0.00  0.00    +0.098 A 
ATOM      8  C   UNL     1      -3.417  -1.723  24.960  0.00  0.00    +0.021 A 
ATOM      9  C   UNL     1      -4.039  -1.386  24.535  0.00  0.00    +0.003 A 
ATOM     10  C   UNL     1      -3.941  -0.649  24.176  0.00  0.00    +0.015 A 
ENDBRANCH   4   5
ENDBRANCH   3   4
ENDBRANCH   2   3
ENDBRANCH  11   2
BRANCH  19  20
ATOM     20  C   UNL     1      -1.425   4.022  25.265  0.00  0.00    +0.214 C 
ATOM     21  O   UNL     1      -1.557   4.823  25.408  0.00  0.00    -0.218 OA
ENDBRANCH  19  20
BRANCH  12  13
ATOM     13  C   UNL     1      -4.085   2.894  24.971  0.00  0.00    +0.146 C 
BRANCH  13  14
ATOM     14  N   UNL     1      -4.568   3.492  25.272  0.00  0.00    -0.203 NA
ATOM     15  C   UNL     1      -5.348   3.325  25.483  0.00  0.00    +0.242 C 
ATOM     16  C   UNL     1      -5.645   2.561  25.395  0.00  0.00    +0.096 C 
ATOM     17  O   UNL     1      -5.831   3.923  25.784  0.00  0.00    -0.273 OA
ENDBRANCH  13  14
ENDBRANCH  12  13
TORSDOF 7
ENDMDL
MODEL 3
REMARK VINA RESULT:      -8.9      2.336      3.843
REMARK  Name = 
REMARK  7 active torsions:
REMARK  status: ('A' for Active; 'I' for Inactive)
REMARK    1  A    between atoms: N_2  and  C_3
REMARK    2  A    between atoms: N_2  and  C_11
REMARK    3  A    between atoms: C_3  and  C_4
REMARK    4  A    between atoms: C_4  and  C_5
REMARK    5  A    between atoms: C_12  and  C_13
REMARK    6  A    between atoms: C_13  and  N_14
REMARK    7  A    between atoms: C_19  and  C_20
REMARK                            x       y       z     vdW  Elec       q    Type
REMARK                         _______ _______ _______ _____ _____    ______ ____
ROOT
ATOM     11  C   UNL     1      -1.993   0.575  24.698  0.00  0.00    +0.120 C 
ATOM     12  C   UNL     1      -1.333   0.790  25.143  0.00  0.00    +0.154 C 
ATOM     18  O   UNL     1      -0.957   0.099  25.391  0.00  0.00    -0.350 OA
ATOM     19  C   UNL     1      -1.384  -0.543  25.098  0.00  0.00    +0.180 C 
ATOM     22  C   UNL     1      -2.024  -0.250  24.670  0.00  0.00    +0.198 C 
ATOM     23  O   UNL     1      -2.596  -0.700  24.282  0.00  0.00    -0.219 OA
ENDROOT
BRANCH  11   2
ATOM      1  C   UNL     1      -2.391   1.366  23.576  0.00  0.00    +0.090 C 
ATOM      2  N   UNL     1      -2.528   1.092  24.342  0.00  0.00    -0.268 NA
BRANCH   2   3
ATOM      3  C   UNL     1      -3.201   1.337  24.753  0.00  0.00    +0.079 C 
BRANCH   3   4
ATOM      4  C   UNL     1      -3.766   1.806  24.377  0.00  0.00    +0.063 C 
BRANCH   4   5
ATOM      5  C   UNL     1      -4.411   2.095  24.802  0.00  0.00    +0.060 A 
ATOM      6  N   UNL     1      -4.358   2.822  25.190  0.00  0.00    -0.248 NA
ATOM      7  C   UNL     1      -5.003   3.111  25.615  0.00  0.00    +0.098 A 
ATOM      8  C   UNL     1      -5.701   2.673  25.653  0.00  0.00    +0.021 A 
ATOM      9  C   UNL     1      -5.755   1.947  25.265  0.00  0.00    +0.003 A 
ATOM     10  C   UNL     1      -5.109   1.658  24.840  0.00  0.00    +0.015 A 
ENDBRANCH   4   5
ENDBRANCH   3   4
ENDBRANCH   2   3
ENDBRANCH  11   2
BRANCH  19  20
ATOM     20  C   UNL     1      -1.202  -1.340  25.214  0.00  0.00    +0.214 C 
ATOM     21  O   UNL     1      -0.450  -1.557  25.475  0.00  0.00    -0.218 OA
ENDBRANCH  19  20
BRANCH  12  13
ATOM     13  C   UNL     1      -1.092   1.561  25.312  0.00  0.00    +0.146 C 
BRANCH  13  14
ATOM     14  N   UNL     1      -0.371   1.694  25.689  0.00  0.00    -0.203 NA
ATOM     15  C   UNL     1      -0.162   2.458  25.921  0.00  0.00    +0.242 C 
ATOM     16  C   UNL     1      -0.674   3.088  25.777  0.00  0.00    +0.096 C 
ATOM     17  O   UNL     1       0.560   2.592  26.298  0.00  0.00    -0.273 OA
ENDBRANCH  13  14
ENDBRANCH  12  13
TORSDOF 7
ENDMDL
MODEL 4
REMARK VINA RESULT:      -8.6      2.057      4.069
REMARK  Name = 
REMARK  7 active torsions:
REMARK  status: ('A' for Active; 'I' for Inactive)
REMARK    1  A    between atoms: N_2  and  C_3
REMARK    2  A    between atoms: N_2  and  C_11
REMARK    3  A    between atoms: C_3  and  C_4
REMARK    4  A    between atoms: C_4  and  C_5
REMARK    5  A    between atoms: C_12  and  C_13
REMARK    6  A    between atoms: C_13  and  N_14
REMARK    7  A    between atoms: C_19  and  C_20
REMARK                            x       y       z     vdW  Elec       q    Type
REMARK                         _______ _______ _______ _____ _____    ______ ____
ROOT
ATOM     11  C   UNL     1      -1.547   1.913  24.949  0.00  0.00    +0.120 C 
ATOM     12  C   UNL     1      -1.177   1.241  25.252  0.00  0.00    +0.154 C 
ATOM     18  O   UNL     1      -0.517   1.486  25.682  0.00  0.00    -0.350 OA
ATOM     19  C   UNL     1      -0.480   2.309  25.645  0.00  0.00    +0.180 C 
ATOM     22  C   UNL     1      -1.116   2.573  25.192  0.00  0.00    +0.198 C 
ATOM     23  O   UNL     1      -1.291   3.359  25.014  0.00  0.00    -0.219 OA
ENDROOT
BRANCH  11   2
ATOM      1  C   UNL     1      -2.171   1.865  23.664  0.00  0.00    +0.090 C 
ATOM      2  N   UNL     1      -2.229   1.923  24.485  0.00  0.00    -0.268 NA
BRANCH   2   3
ATOM      3  C   UNL     1      -2.970   1.992  24.841  0.00  0.00    +0.079 C 
BRANCH   3   4
ATOM      4  C   UNL     1      -3.645   2.087  24.376  0.00  0.00    +0.063 C 
BRANCH   4   5
ATOM      5  C   UNL     1      -4.385   2.158  24.732  0.00  0.00    +0.060 A 
ATOM      6  N   UNL     1      -4.619   2.879  25.058  0.00  0.00    -0.248 NA
ATOM      7  C   UNL     1      -5.358   2.951  25.415  0.00  0.00    +0.098 A 
ATOM      8  C   UNL     1      -5.866   2.301  25.446  0.00  0.00    +0.021 A 
ATOM      9  C   UNL     1      -5.633   1.580  25.121  0.00  0.00    +0.003 A 
ATOM     10  C   UNL     1      -4.892   1.508  24.764  0.00  0.00    +0.015 A 
ENDBRANCH   4   5
ENDBRANCH   3   4
ENDBRANCH   2   3
ENDBRANCH  11   2
BRANCH  19  20
ATOM     20  C   UNL     1       0.095   2.785  26.000  0.00  0.00    +0.214 C 
ATOM     21  O   UNL     1       0.609   2.462  26.558  0.00  0.00    -0.218 OA
ENDBRANCH  19  20
BRANCH  12  13
ATOM     13  C   UNL     1      -1.423   0.461  25.143  0.00  0.00    +0.146 C 
BRANCH  13  14
ATOM     14  N   UNL     1      -0.892  -0.159  25.261  0.00  0.00    -0.203 NA
ATOM     15  C   UNL     1      -1.168  -0.935  25.307  0.00  0.00    +0.242 C 
ATOM     16  C   UNL     1      -1.975  -1.091  25.235  0.00  0.00    +0.096 C 
ATOM     17  O   UNL     1      -0.637  -1.556  25.425  0.00  0.00    -0.273 OA
ENDBRANCH  13  14
ENDBRANCH  12  13
TORSDOF 7
ENDMDL
MODEL 5
REMARK VINA RESULT:      -8.6      2.252      4.608
REMARK  Name = 
REMARK  7 active torsions:
REMARK  status: ('A' for Active; 'I' for Inactive)
REMARK    1  A    between atoms: N_2  and  C_3
REMARK    2  A    between atoms: N_2  and  C_11
REMARK    3  A    between atoms: C_3  and  C_4
REMARK    4  A    between atoms: C_4  and  C_5
REMARK    5  A    between atoms: C_12  and  C_13
REMARK    6  A    between atoms: C_13  and  N_14
REMARK    7  A    between atoms: C_19  and  C_20
REMARK                            x       y       z     vdW  Elec       q    Type
REMARK                         _______ _______ _______ _____ _____    ______ ____
ROOT
ATOM     11  C   UNL     1      -2.447   0.553  24.205  0.00  0.00    +0.120 C 
ATOM     12  C   UNL     1      -2.460  -0.256  24.368  0.00  0.00    +0.154 C 
ATOM     18  O   UNL     1      -1.703  -0.480  24.605  0.00  0.00    -0.350 OA
ATOM     19  C   UNL     1      -1.222   0.189  24.589  0.00  0.00    +0.180 C 
ATOM     22  C   UNL     1      -1.681   0.828  24.342  0.00  0.00    +0.198 C 
ATOM     23  O   UNL     1      -1.421   1.605  24.248  0.00  0.00    -0.219 OA
ENDROOT
BRANCH  11   2
ATOM      1  C   UNL     1      -3.223   1.112  23.144  0.00  0.00    +0.090 C 
ATOM      2  N   UNL     1      -3.087   1.007  23.950  0.00  0.00    -0.268 NA
BRANCH   2   3
ATOM      3  C   UNL     1      -3.591   1.356  24.503  0.00  0.00    +0.079 C 
BRANCH   3   4
ATOM      4  C   UNL     1      -4.199   1.853  24.250  0.00  0.00    +0.063 C 
BRANCH   4   5
ATOM      5  C   UNL     1      -4.696   2.211  24.802  0.00  0.00    +0.060 A 
ATOM      6  N   UNL     1      -4.497   2.945  25.122  0.00  0.00    -0.248 NA
ATOM      7  C   UNL     1      -4.993   3.303  25.675  0.00  0.00    +0.098 A 
ATOM      8  C   UNL     1      -5.689   2.927  25.908  0.00  0.00    +0.021 A 
ATOM      9  C   UNL     1      -5.889   2.193  25.589  0.00  0.00    +0.003 A 
ATOM     10  C   UNL     1      -5.392   1.835  25.036  0.00  0.00    +0.015 A 
ENDBRANCH   4   5
ENDBRANCH   3   4
ENDBRANCH   2   3
ENDBRANCH  11   2
BRANCH  19  20
ATOM     20  C   UNL     1      -0.420   0.215  24.786  0.00  0.00    +0.214 C 
ATOM     21  O   UNL     1       0.068  -0.424  24.606  0.00  0.00    -0.218 OA
ENDBRANCH  19  20
BRANCH  12  13
ATOM     13  C   UNL     1      -3.116  -0.753  24.304  0.00  0.00    +0.146 C 
BRANCH  13  14
ATOM     14  N   UNL     1      -3.083  -1.520  24.606  0.00  0.00    -0.203 NA
ATOM     15  C   UNL     1      -3.674  -2.063  24.416  0.00  0.00    +0.242 C 
ATOM     16  C   UNL     1      -4.298  -1.839  23.925  0.00  0.00    +0.096 C 
ATOM     17  O   UNL     1      -3.641  -2.831  24.717  0.00  0.00    -0.273 OA
ENDBRANCH  13  14
ENDBRANCH  12  13
TORSDOF 7
ENDMDL
MODEL 6
REMARK VINA RESULT:      -8.5      1.422      3.731
REMARK  Name = 
REMARK  7 active torsions:
REMARK  status: ('A' for Active; 'I' for Inactive)
REMARK    1  A    between atoms: N_2  and  C_3
REMARK    2  A    between atoms: N_2  and  C_11
REMARK    3  A    between atoms: C_3  and  C_4
REMARK    4  A    between atoms: C_4  and  C_5
REMARK    5  A    between atoms: C_12  and  C_13
REMARK    6  A    between atoms: C_13  and  N_14
REMARK    7  A    between atoms: C_19  and  C_20
REMARK                            x       y       z     vdW  Elec       q    Type
REMARK                         _______ _______ _______ _____ _____    ______ ____
ROOT
ATOM     11  C   UNL     1      -3.958   1.598  24.432  0.00  0.00    +0.120 C 
ATOM     12  C   UNL     1      -4.270   0.843  24.541  0.00  0.00    +0.154 C 
ATOM     18  O   UNL     1      -5.044   0.924  24.814  0.00  0.00    -0.350 OA
ATOM     19  C   UNL     1      -5.210   1.730  24.874  0.00  0.00    +0.180 C 
ATOM     22  C   UNL     1      -4.539   2.147  24.638  0.00  0.00    +0.198 C 
ATOM     23  O   UNL     1      -4.462   2.967  24.612  0.00  0.00    -0.219 OA
ENDROOT
BRANCH  11   2
ATOM      1  C   UNL     1      -3.046   1.824  23.355  0.00  0.00    +0.090 C 
ATOM      2  N   UNL     1      -3.198   1.775  24.164  0.00  0.00    -0.268 NA
BRANCH   2   3
ATOM      3  C   UNL     1      -2.588   1.902  24.706  0.00  0.00    +0.079 C 
BRANCH   3   4
ATOM      4  C   UNL     1      -1.837   2.115  24.439  0.00  0.00    +0.063 C 
BRANCH   4   5
ATOM      5  C   UNL     1      -1.235   2.270  24.982  0.00  0.00    +0.060 A 
ATOM      6  N   UNL     1      -0.834   1.645  25.343  0.00  0.00    -0.248 NA
ATOM      7  C   UNL     1      -0.233   1.800  25.885  0.00  0.00    +0.098 A 
ATOM      8  C   UNL     1      -0.032   2.579  26.067  0.00  0.00    +0.021 A 
ATOM      9  C   UNL     1      -0.432   3.204  25.707  0.00  0.00    +0.003 A 
ATOM     10  C   UNL     1      -1.034   3.049  25.164  0.00  0.00    +0.015 A 
ENDBRANCH   4   5
ENDBRANCH   3   4
ENDBRANCH   2   3
ENDBRANCH  11   2
BRANCH  19  20
ATOM     20  C   UNL     1      -5.923   2.060  25.127  0.00  0.00    +0.214 C 
ATOM     21  O   UNL     1      -6.638   1.709  24.913  0.00  0.00    -0.218 OA
ENDBRANCH  19  20
BRANCH  12  13
ATOM     13  C   UNL     1      -3.877   0.130  24.401  0.00  0.00    +0.146 C 
BRANCH  13  14
ATOM     14  N   UNL     1      -4.305  -0.542  24.188  0.00  0.00    -0.203 NA
ATOM     15  C   UNL     1      -3.956  -1.287  24.242  0.00  0.00    +0.242 C 
ATOM     16  C   UNL     1      -3.179  -1.360  24.509  0.00  0.00    +0.096 C 
ATOM     17  O   UNL     1      -4.383  -1.960  24.029  0.00  0.00    -0.273 OA
ENDBRANCH  13  14
ENDBRANCH  12  13
TORSDOF 7
ENDMDL
