MODEL 1
REMARK VINA RESULT:     -10.5      0.000      0.000
REMARK  Name = 
REMARK  8 active torsions:
REMARK  status: ('A' for Active; 'I' for Inactive)
REMARK    1  A    between atoms: C_2  and  C_5
REMARK    2  A    between atoms: C_5  and  C_6
REMARK    3  A    between atoms: N_8  and  C_9
REMARK    4  A    between atoms: C_9  and  C_10
REMARK    5  A    between atoms: C_13  and  N_14
REMARK    6  A    between atoms: N_14  and  C_15
REMARK    7  A    between atoms: C_15  and  C_16
REMARK    8  A    between atoms: C_20  and  C_22
REMARK                            x       y       z     vdW  Elec       q    Type
REMARK                         _______ _______ _______ _____ _____    ______ ____
ROOT
ATOM     10  C   UNL     1      -3.906   2.238  24.671  0.00  0.00    +0.169 C 
ATOM     11  O   UNL     1      -4.450   2.019  25.250  0.00  0.00    -0.350 OA
ATOM     12  C   UNL     1      -4.615   1.217  25.155  0.00  0.00    +0.162 C 
ATOM     13  C   UNL     1      -4.173   0.939  24.518  0.00  0.00    +0.135 C 
ATOM     24  C   UNL     1      -3.734   1.570  24.218  0.00  0.00    +0.199 C 
ATOM     25  O   UNL     1      -3.214   1.539  23.578  0.00  0.00    -0.219 OA
ENDROOT
BRANCH  10   9
ATOM      9  C   UNL     1      -3.588   2.991  24.563  0.00  0.00    +0.147 C 
BRANCH   9   8
ATOM      6  C   UNL     1      -2.683   4.022  24.966  0.00  0.00    +0.241 C 
ATOM      7  O   UNL     1      -2.913   4.477  24.317  0.00  0.00    -0.273 OA
ATOM      8  N   UNL     1      -3.021   3.279  25.089  0.00  0.00    -0.203 NA
BRANCH   6   5
ATOM      5  C   UNL     1      -2.116   4.309  25.491  0.00  0.00    +0.087 C 
BRANCH   5   2
ATOM      1  C   UNL     1      -0.775   5.080  24.917  0.00  0.00    +0.000 C 
ATOM      2  C   UNL     1      -1.446   4.695  25.204  0.00  0.00    +0.009 C 
ATOM      3  C   UNL     1      -1.858   5.409  25.200  0.00  0.00    +0.000 C 
ATOM      4  C   UNL     1      -1.033   3.980  25.208  0.00  0.00    +0.000 C 
ENDBRANCH   5   2
ENDBRANCH   6   5
ENDBRANCH   9   8
ENDBRANCH  10   9
BRANCH  13  14
ATOM     14  N   UNL     1      -4.169   0.166  24.230  0.00  0.00    -0.209 NA
BRANCH  14  15
ATOM     15  C   UNL     1      -4.200  -0.470  24.755  0.00  0.00    +0.115 C 
BRANCH  15  16
ATOM     16  C   UNL     1      -3.944  -1.217  24.515  0.00  0.00    -0.004 A 
ATOM     17  C   UNL     1      -4.453  -1.712  24.095  0.00  0.00    -0.003 A 
ATOM     18  C   UNL     1      -4.197  -2.458  23.855  0.00  0.00    +0.000 A 
ATOM     19  C   UNL     1      -3.432  -2.710  24.034  0.00  0.00    +0.010 A 
ATOM     20  C   UNL     1      -2.923  -2.214  24.454  0.00  0.00    +0.068 A 
ATOM     21  C   UNL     1      -3.179  -1.468  24.694  0.00  0.00    +0.007 A 
BRANCH  20  22
ATOM     22  C   UNL     1      -2.158  -2.466  24.634  0.00  0.00    +0.100 C 
ATOM     23  N   UNL     1      -1.393  -2.718  24.813  0.00  0.00    -0.191 NA
ENDBRANCH  20  22
ENDBRANCH  15  16
ENDBRANCH  14  15
ENDBRANCH  13  14
TORSDOF 8
ENDMDL
MODEL 2
REMARK VINA RESULT:      -9.6      1.840      5.983
REMARK  Name = 
REMARK  8 active torsions:
REMARK  status: ('A' for Active; 'I' for Inactive)
REMARK    1  A    between atoms: C_2  and  C_5
REMARK    2  A    between atoms: C_5  and  C_6
REMARK    3  A    between atoms: N_8  and  C_9
REMARK    4  A    between atoms: C_9  and  C_10
REMARK    5  A    between atoms: C_13  and  N_14
REMARK    6  A    between atoms: N_14  and  C_15
REMARK    7  A    between atoms: C_15  and  C_16
REMARK    8  A    between atoms: C_20  and  C_22
REMARK                            x       y       z     vdW  Elec       q    Type
REMARK                         _______ _______ _______ _____ _____    ______ ____
ROOT
ATOM     10  C   UNL     1      -1.205  -0.010  24.926  0.00  0.00    +0.169 C 
ATOM     11  O   UNL     1      -0.841   0.108  25.657  0.00  0.00    -0.350 OA
ATOM     12  C   UNL     1      -0.641   0.906  25.716  0.00  0.00    +0.162 C 
ATOM     13  C   UNL     1      -0.880   1.280  25.022  0.00  0.00    +0.135 C 
ATOM     24  C   UNL     1      -1.229   0.714  24.534  0.00  0.00    +0.199 C 
ATOM     25  O   UNL     1      -1.546   0.850  23.784  0.00  0.00    -0.219 OA
ENDROOT
BRANCH  10   9
ATOM      9  C   UNL     1      -1.494  -0.728  24.639  0.00  0.00    +0.147 C 
BRANCH   9   8
ATOM      6  C   UNL     1      -2.490  -1.753  24.652  0.00  0.00    +0.241 C 
ATOM      7  O   UNL     1      -2.019  -2.216  24.157  0.00  0.00    -0.273 OA
ATOM      8  N   UNL     1      -2.227  -1.008  24.893  0.00  0.00    -0.203 NA
BRANCH   6   5
ATOM      5  C   UNL     1      -3.222  -2.034  24.906  0.00  0.00    +0.087 C 
BRANCH   5   2
ATOM      1  C   UNL     1      -4.252  -2.743  23.829  0.00  0.00    +0.000 C 
ATOM      2  C   UNL     1      -3.737  -2.388  24.367  0.00  0.00    +0.009 C 
ATOM      3  C   UNL     1      -4.075  -1.653  24.205  0.00  0.00    +0.000 C 
ATOM      4  C   UNL     1      -3.400  -3.124  24.529  0.00  0.00    +0.000 C 
ENDBRANCH   5   2
ENDBRANCH   6   5
ENDBRANCH   9   8
ENDBRANCH  10   9
BRANCH  13  14
ATOM     14  N   UNL     1      -0.787   2.081  24.846  0.00  0.00    -0.209 NA
BRANCH  14  15
ATOM     15  C   UNL     1      -0.691   2.629  25.456  0.00  0.00    +0.115 C 
BRANCH  15  16
ATOM     16  C   UNL     1      -1.011   3.386  25.386  0.00  0.00    -0.004 A 
ATOM     17  C   UNL     1      -0.583   3.981  25.007  0.00  0.00    -0.003 A 
ATOM     18  C   UNL     1      -0.903   4.738  24.936  0.00  0.00    +0.000 A 
ATOM     19  C   UNL     1      -1.651   4.900  25.245  0.00  0.00    +0.010 A 
ATOM     20  C   UNL     1      -2.078   4.305  25.624  0.00  0.00    +0.068 A 
ATOM     21  C   UNL     1      -1.758   3.548  25.694  0.00  0.00    +0.007 A 
BRANCH  20  22
ATOM     22  C   UNL     1      -2.827   4.467  25.933  0.00  0.00    +0.100 C 
ATOM     23  N   UNL     1      -3.574   4.630  26.241  0.00  0.00    -0.191 NA
ENDBRANCH  20  22
ENDBRANCH  15  16
ENDBRANCH  14  15
ENDBRANCH  13  14
TORSDOF 8
ENDMDL
MODEL 3
REMARK VINA RESULT:      -9.4      1.137      5.390
REMARK  Name = 
REMARK  8 active torsions:
REMARK  status: ('A' for Active; 'I' for Inactive)
REMARK    1  A    between atoms: C_2  and  C_5
REMARK    2  A    between atoms: C_5  and  C_6
REMARK    3  A    between atoms: N_8  and  C_9
REMARK    4  A    between atoms: C_9  and  C_10
REMARK    5  A    between atoms: C_13  and  N_14
REMARK    6  A    between atoms: N_14  and  C_15
REMARK    7  A    between atoms: C_15  and  C_16
REMARK    8  A    between atoms: C_20  and  C_22
REMARK                            x       y       z     vdW  Elec       q    Type
REMARK                         _______ _______ _______ _____ _____    ______ ____
ROOT
ATOM     10  C   UNL     1      -4.203   0.923  24.523  0.00  0.00    +0.169 C 
ATOM     11  O   UNL     1      -4.639   1.269  25.132  0.00  0.00    -0.350 OA
ATOM     12  C   UNL     1      -4.357   2.036  25.243  0.00  0.00    +0.162 C 
ATOM     13  C   UNL     1      -3.748   2.164  24.704  0.00  0.00    +0.135 C 
ATOM     24  C   UNL     1      -3.652   1.476  24.259  0.00  0.00    +0.199 C 
ATOM     25  O   UNL     1      -3.102   1.362  23.654  0.00  0.00    -0.219 OA
ENDROOT
BRANCH  10   9
ATOM      9  C   UNL     1      -4.301   0.158  24.231  0.00  0.00    +0.147 C 
BRANCH   9   8
ATOM      6  C   UNL     1      -4.103  -1.249  24.388  0.00  0.00    +0.241 C 
ATOM      7  O   UNL     1      -4.220  -1.356  23.578  0.00  0.00    -0.273 OA
ATOM      8  N   UNL     1      -4.144  -0.492  24.715  0.00  0.00    -0.203 NA
BRANCH   6   5
ATOM      5  C   UNL     1      -3.946  -1.899  24.872  0.00  0.00    +0.087 C 
BRANCH   5   2
ATOM      1  C   UNL     1      -2.819  -3.014  24.414  0.00  0.00    +0.000 C 
ATOM      2  C   UNL     1      -3.383  -2.456  24.643  0.00  0.00    +0.009 C 
ATOM      3  C   UNL     1      -3.944  -2.826  24.164  0.00  0.00    +0.000 C 
ATOM      4  C   UNL     1      -2.822  -2.086  25.122  0.00  0.00    +0.000 C 
ENDBRANCH   5   2
ENDBRANCH   6   5
ENDBRANCH   9   8
ENDBRANCH  10   9
BRANCH  13  14
ATOM     14  N   UNL     1      -3.310   2.859  24.623  0.00  0.00    -0.209 NA
BRANCH  14  15
ATOM     15  C   UNL     1      -3.057   3.268  25.294  0.00  0.00    +0.115 C 
BRANCH  15  16
ATOM     16  C   UNL     1      -2.323   3.644  25.297  0.00  0.00    -0.004 A 
ATOM     17  C   UNL     1      -2.267   4.439  25.084  0.00  0.00    -0.003 A 
ATOM     18  C   UNL     1      -1.532   4.815  25.087  0.00  0.00    +0.000 A 
ATOM     19  C   UNL     1      -0.855   4.396  25.303  0.00  0.00    +0.010 A 
ATOM     20  C   UNL     1      -0.912   3.601  25.516  0.00  0.00    +0.068 A 
ATOM     21  C   UNL     1      -1.646   3.225  25.513  0.00  0.00    +0.007 A 
BRANCH  20  22
ATOM     22  C   UNL     1      -0.235   3.182  25.732  0.00  0.00    +0.100 C 
ATOM     23  N   UNL     1       0.442   2.764  25.948  0.00  0.00    -0.191 NA
ENDBRANCH  20  22
ENDBRANCH  15  16
ENDBRANCH  14  15
ENDBRANCH  13  14
TORSDOF 8
ENDMDL
MODEL 4
REMARK VINA RESULT:      -9.0      1.930      2.431
REMARK  Name = 
REMARK  8 active torsions:
REMARK  status: ('A' for Active; 'I' for Inactive)
REMARK    1  A    between atoms: C_2  and  C_5
REMARK    2  A    between atoms: C_5  and  C_6
REMARK    3  A    between atoms: N_8  and  C_9
REMARK    4  A    between atoms: C_9  and  C_10
REMARK    5  A    between atoms: C_13  and  N_14
REMARK    6  A    between atoms: N_14  and  C_15
REMARK    7  A    between atoms: C_15  and  C_16
REMARK    8  A    between atoms: C_20  and  C_22
REMARK                            x       y       z     vdW  Elec       q    Type
REMARK                         _______ _______ _______ _____ _____    ______ ____
ROOT
ATOM     10  C   UNL     1      -0.687   1.564  24.983  0.00  0.00    +0.169 C 
ATOM     11  O   UNL     1      -0.661   1.276  25.755  0.00  0.00    -0.350 OA
ATOM     12  C   UNL     1      -0.868   0.478  25.735  0.00  0.00    +0.162 C 
ATOM     13  C   UNL     1      -1.022   0.273  24.952  0.00  0.00    +0.135 C 
ATOM     24  C   UNL     1      -0.910   0.944  24.487  0.00  0.00    +0.199 C 
ATOM     25  O   UNL     1      -1.004   0.988  23.668  0.00  0.00    -0.219 OA
ENDROOT
BRANCH  10   9
ATOM      9  C   UNL     1      -0.519   2.337  24.748  0.00  0.00    +0.147 C 
BRANCH   9   8
ATOM      6  C   UNL     1      -0.721   3.739  24.940  0.00  0.00    +0.241 C 
ATOM      7  O   UNL     1      -0.526   3.875  24.150  0.00  0.00    -0.273 OA
ATOM      8  N   UNL     1      -0.718   2.969  25.239  0.00  0.00    -0.203 NA
BRANCH   6   5
ATOM      5  C   UNL     1      -0.920   4.371  25.430  0.00  0.00    +0.087 C 
BRANCH   5   2
ATOM      1  C   UNL     1      -1.888   5.581  24.864  0.00  0.00    +0.000 C 
ATOM      2  C   UNL     1      -1.404   4.976  25.147  0.00  0.00    +0.009 C 
ATOM      3  C   UNL     1      -0.751   5.332  24.791  0.00  0.00    +0.000 C 
ATOM      4  C   UNL     1      -2.058   4.620  25.503  0.00  0.00    +0.000 C 
ENDBRANCH   5   2
ENDBRANCH   6   5
ENDBRANCH   9   8
ENDBRANCH  10   9
BRANCH  13  14
ATOM     14  N   UNL     1      -1.248  -0.473  24.681  0.00  0.00    -0.209 NA
BRANCH  14  15
ATOM     15  C   UNL     1      -1.688  -0.973  25.169  0.00  0.00    +0.115 C 
BRANCH  15  16
ATOM     16  C   UNL     1      -2.074  -1.628  24.848  0.00  0.00    -0.004 A 
ATOM     17  C   UNL     1      -1.674  -2.346  24.772  0.00  0.00    -0.003 A 
ATOM     18  C   UNL     1      -2.060  -3.000  24.451  0.00  0.00    +0.000 A 
ATOM     19  C   UNL     1      -2.846  -2.938  24.207  0.00  0.00    +0.010 A 
ATOM     20  C   UNL     1      -3.245  -2.219  24.283  0.00  0.00    +0.068 A 
ATOM     21  C   UNL     1      -2.859  -1.565  24.604  0.00  0.00    +0.007 A 
BRANCH  20  22
ATOM     22  C   UNL     1      -4.031  -2.157  24.039  0.00  0.00    +0.100 C 
ATOM     23  N   UNL     1      -4.816  -2.094  23.795  0.00  0.00    -0.191 NA
ENDBRANCH  20  22
ENDBRANCH  15  16
ENDBRANCH  14  15
ENDBRANCH  13  14
TORSDOF 8
ENDMDL
MODEL 5
REMARK VINA RESULT:      -7.4      3.322      5.057
REMARK  Name = 
REMARK  8 active torsions:
REMARK  status: ('A' for Active; 'I' for Inactive)
REMARK    1  A    between atoms: C_2  and  C_5
REMARK    2  A    between atoms: C_5  and  C_6
REMARK    3  A    between atoms: N_8  and  C_9
REMARK    4  A    between atoms: C_9  and  C_10
REMARK    5  A    between atoms: C_13  and  N_14
REMARK    6  A    between atoms: N_14  and  C_15
REMARK    7  A    between atoms: C_15  and  C_16
REMARK    8  A    between atoms: C_20  and  C_22
REMARK                            x       y       z     vdW  Elec       q    Type
REMARK                         _______ _______ _______ _____ _____    ______ ____
ROOT
ATOM     10  C   UNL     1      -0.921   1.034  23.768  0.00  0.00    +0.169 C 
ATOM     11  O   UNL     1      -1.257   1.400  23.110  0.00  0.00    -0.350 OA
ATOM     12  C   UNL     1      -1.944   1.784  23.356  0.00  0.00    +0.162 C 
ATOM     13  C   UNL     1      -2.033   1.655  24.165  0.00  0.00    +0.135 C 
ATOM     24  C   UNL     1      -1.401   1.191  24.420  0.00  0.00    +0.199 C 
ATOM     25  O   UNL     1      -1.271   0.930  25.192  0.00  0.00    -0.219 OA
ENDROOT
BRANCH  10   9
ATOM      9  C   UNL     1      -0.227   0.588  23.773  0.00  0.00    +0.147 C 
BRANCH   9   8
ATOM      6  C   UNL     1       0.995   0.211  23.134  0.00  0.00    +0.241 C 
ATOM      7  O   UNL     1       1.040  -0.457  23.616  0.00  0.00    -0.273 OA
ATOM      8  N   UNL     1       0.361   0.735  23.213  0.00  0.00    -0.203 NA
BRANCH   6   5
ATOM      5  C   UNL     1       1.583   0.358  22.574  0.00  0.00    +0.087 C 
BRANCH   5   2
ATOM      1  C   UNL     1       3.139  -0.100  22.874  0.00  0.00    +0.000 C 
ATOM      2  C   UNL     1       2.361   0.129  22.724  0.00  0.00    +0.009 C 
ATOM      3  C   UNL     1       2.496   0.843  23.115  0.00  0.00    +0.000 C 
ATOM      4  C   UNL     1       2.226  -0.586  22.334  0.00  0.00    +0.000 C 
ENDBRANCH   5   2
ENDBRANCH   6   5
ENDBRANCH   9   8
ENDBRANCH  10   9
BRANCH  13  14
ATOM     14  N   UNL     1      -2.648   1.940  24.637  0.00  0.00    -0.209 NA
BRANCH  14  15
ATOM     15  C   UNL     1      -3.196   2.471  24.324  0.00  0.00    +0.115 C 
BRANCH  15  16
ATOM     16  C   UNL     1      -3.851   2.700  24.770  0.00  0.00    -0.004 A 
ATOM     17  C   UNL     1      -3.798   3.348  25.278  0.00  0.00    -0.003 A 
ATOM     18  C   UNL     1      -4.453   3.577  25.724  0.00  0.00    +0.000 A 
ATOM     19  C   UNL     1      -5.161   3.157  25.664  0.00  0.00    +0.010 A 
ATOM     20  C   UNL     1      -5.213   2.509  25.156  0.00  0.00    +0.068 A 
ATOM     21  C   UNL     1      -4.558   2.280  24.710  0.00  0.00    +0.007 A 
BRANCH  20  22
ATOM     22  C   UNL     1      -5.921   2.089  25.095  0.00  0.00    +0.100 C 
ATOM     23  N   UNL     1      -6.629   1.670  25.035  0.00  0.00    -0.191 NA
ENDBRANCH  20  22
ENDBRANCH  15  16
ENDBRANCH  14  15
ENDBRANCH  13  14
TORSDOF 8
ENDMDL
MODEL 6
REMARK VINA RESULT:      -6.6     14.297     16.246
REMARK  Name = 
REMARK  8 active torsions:
REMARK  status: ('A' for Active; 'I' for Inactive)
REMARK    1  A    between atoms: C_2  and  C_5
REMARK    2  A    between atoms: C_5  and  C_6
REMARK    3  A    between atoms: N_8  and  C_9
REMARK    4  A    between atoms: C_9  and  C_10
REMARK    5  A    between atoms: C_13  and  N_14
REMARK    6  A    between atoms: N_14  and  C_15
REMARK    7  A    between atoms: C_15  and  C_16
REMARK    8  A    between atoms: C_20  and  C_22
REMARK                            x       y       z     vdW  Elec       q    Type
REMARK                         _______ _______ _______ _____ _____    ______ ____
ROOT
ATOM     10  C   UNL     1      -4.359 -10.501  13.240  0.00  0.00    +0.169 C 
ATOM     11  O   UNL     1      -3.618 -10.462  13.600  0.00  0.00    -0.350 OA
ATOM     12  C   UNL     1      -3.726 -10.526  14.415  0.00  0.00    +0.162 C 
ATOM     13  C   UNL     1      -4.534 -10.604  14.559  0.00  0.00    +0.135 C 
ATOM     24  C   UNL     1      -4.925 -10.589  13.833  0.00  0.00    +0.199 C 
ATOM     25  O   UNL     1      -5.740 -10.651  13.720  0.00  0.00    -0.219 OA
ENDROOT
BRANCH  10   9
ATOM      9  C   UNL     1      -4.508 -10.460  12.430  0.00  0.00    +0.147 C 
BRANCH   9   8
ATOM      6  C   UNL     1      -4.244  -9.870  11.154  0.00  0.00    +0.241 C 
ATOM      7  O   UNL     1      -4.895 -10.267  10.837  0.00  0.00    -0.273 OA
ATOM      8  N   UNL     1      -4.051  -9.967  11.951  0.00  0.00    -0.203 NA
BRANCH   6   5
ATOM      5  C   UNL     1      -3.788  -9.378  10.676  0.00  0.00    +0.087 C 
BRANCH   5   2
ATOM      1  C   UNL     1      -4.277  -9.038   9.137  0.00  0.00    +0.000 C 
ATOM      2  C   UNL     1      -4.032  -9.208   9.907  0.00  0.00    +0.009 C 
ATOM      3  C   UNL     1      -4.480  -8.575  10.189  0.00  0.00    +0.000 C 
ATOM      4  C   UNL     1      -3.584  -9.841   9.625  0.00  0.00    +0.000 C 
ENDBRANCH   5   2
ENDBRANCH   6   5
ENDBRANCH   9   8
ENDBRANCH  10   9
BRANCH  13  14
ATOM     14  N   UNL     1      -4.889 -10.684  15.300  0.00  0.00    -0.209 NA
BRANCH  14  15
ATOM     15  C   UNL     1      -4.586 -10.273  15.949  0.00  0.00    +0.115 C 
BRANCH  15  16
ATOM     16  C   UNL     1      -4.930 -10.365  16.693  0.00  0.00    -0.004 A 
ATOM     17  C   UNL     1      -4.490 -10.688  17.312  0.00  0.00    -0.003 A 
ATOM     18  C   UNL     1      -4.833 -10.780  18.056  0.00  0.00    +0.000 A 
ATOM     19  C   UNL     1      -5.616 -10.551  18.182  0.00  0.00    +0.010 A 
ATOM     20  C   UNL     1      -6.055 -10.228  17.562  0.00  0.00    +0.068 A 
ATOM     21  C   UNL     1      -5.712 -10.136  16.818  0.00  0.00    +0.007 A 
BRANCH  20  22
ATOM     22  C   UNL     1      -6.838  -9.999  17.687  0.00  0.00    +0.100 C 
ATOM     23  N   UNL     1      -7.620  -9.769  17.812  0.00  0.00    -0.191 NA
ENDBRANCH  20  22
ENDBRANCH  15  16
ENDBRANCH  14  15
ENDBRANCH  13  14
TORSDOF 8
ENDMDL
