MODEL 1
REMARK VINA RESULT:     -14.1      0.000      0.000
REMARK  Name = 
REMARK  6 active torsions:
REMARK  status: ('A' for Active; 'I' for Inactive)
REMARK    1  A    between atoms: C_2  and  C_3
REMARK    2  A    between atoms: C_2  and  C_25
REMARK    3  A    between atoms: C_10  and  N_11
REMARK    4  A    between atoms: C_12  and  C_14
REMARK    5  A    between atoms: N_27  and  C_28
REMARK    6  A    between atoms: C_28  and  C_29
REMARK                            x       y       z     vdW  Elec       q    Type
REMARK                         _______ _______ _______ _____ _____    ______ ____
ROOT
ATOM      3  C   UNL     1      -3.981   3.159  24.588  0.00  0.00    +0.039 C 
ATOM      4  C   UNL     1      -4.608   3.279  25.113  0.00  0.00    +0.003 C 
ATOM      5  C   UNL     1      -5.058   2.638  25.370  0.00  0.00    +0.000 C 
ATOM      6  C   UNL     1      -4.883   1.878  25.104  0.00  0.00    +0.002 C 
ATOM      7  C   UNL     1      -5.508   1.997  25.627  0.00  0.00    +0.000 C 
ATOM      8  C   UNL     1      -5.333   1.236  25.361  0.00  0.00    +0.002 C 
ATOM      9  C   UNL     1      -5.158   0.475  25.095  0.00  0.00    +0.022 C 
ATOM     10  C   UNL     1      -4.531   0.356  24.571  0.00  0.00    +0.095 C 
ATOM     20  C   UNL     1      -4.081   0.997  24.314  0.00  0.00    +0.022 C 
ATOM     21  C   UNL     1      -3.455   0.877  23.790  0.00  0.00    +0.002 C 
ATOM     22  C   UNL     1      -4.256   1.758  24.579  0.00  0.00    +0.032 C 
ATOM     23  C   UNL     1      -3.806   2.399  24.322  0.00  0.00    +0.152 C 
ATOM     24  O   UNL     1      -3.179   2.279  23.799  0.00  0.00    -0.223 OA
ENDROOT
BRANCH  10  11
ATOM     11  N   UNL     1      -4.356  -0.406  24.305  0.00  0.00    -0.207 NA
ATOM     12  C   UNL     1      -4.134  -0.990  24.842  0.00  0.00    +0.241 C 
ATOM     13  O   UNL     1      -4.087  -0.814  25.648  0.00  0.00    -0.273 OA
BRANCH  12  14
ATOM     14  C   UNL     1      -3.959  -1.751  24.576  0.00  0.00    +0.078 C 
ATOM     15  C   UNL     1      -4.337  -2.053  23.909  0.00  0.00    +0.009 C 
ATOM     16  C   UNL     1      -4.162  -2.814  23.643  0.00  0.00    +0.000 C 
ATOM     17  C   UNL     1      -3.608  -3.274  24.046  0.00  0.00    +0.000 C 
ATOM     18  C   UNL     1      -3.229  -2.972  24.715  0.00  0.00    +0.000 C 
ATOM     19  C   UNL     1      -3.405  -2.211  24.980  0.00  0.00    +0.009 C 
ENDBRANCH  12  14
ENDBRANCH  10  11
BRANCH   3   2
ATOM      1  C   UNL     1      -3.702   4.165  23.611  0.00  0.00    +0.010 C 
ATOM      2  C   UNL     1      -3.531   3.801  24.331  0.00  0.00    +0.081 C 
BRANCH   2  25
ATOM     25  C   UNL     1      -2.908   4.079  24.795  0.00  0.00    +0.241 C 
ATOM     26  O   UNL     1      -3.015   4.742  25.276  0.00  0.00    -0.273 OA
ATOM     27  N   UNL     1      -2.177   3.695  24.779  0.00  0.00    -0.199 NA
BRANCH  27  28
ATOM     28  C   UNL     1      -1.555   3.973  25.242  0.00  0.00    +0.160 C 
BRANCH  28  29
ATOM     29  C   UNL     1      -0.924   3.475  25.428  0.00  0.00    +0.081 A 
ATOM     30  N   UNL     1      -0.351   3.305  24.860  0.00  0.00    -0.246 NA
ATOM     31  C   UNL     1       0.280   2.807  25.047  0.00  0.00    +0.099 A 
ATOM     32  C   UNL     1       0.337   2.479  25.802  0.00  0.00    +0.021 A 
ATOM     33  C   UNL     1      -0.236   2.650  26.370  0.00  0.00    +0.003 A 
ATOM     34  C   UNL     1      -0.868   3.148  26.183  0.00  0.00    +0.017 A 
ENDBRANCH  28  29
ENDBRANCH  27  28
ENDBRANCH   2  25
ENDBRANCH   3   2
TORSDOF 6
ENDMDL
MODEL 2
REMARK VINA RESULT:     -12.7      1.442      4.982
REMARK  Name = 
REMARK  6 active torsions:
REMARK  status: ('A' for Active; 'I' for Inactive)
REMARK    1  A    between atoms: C_2  and  C_3
REMARK    2  A    between atoms: C_2  and  C_25
REMARK    3  A    between atoms: C_10  and  N_11
REMARK    4  A    between atoms: C_12  and  C_14
REMARK    5  A    between atoms: N_27  and  C_28
REMARK    6  A    between atoms: C_28  and  C_29
REMARK                            x       y       z     vdW  Elec       q    Type
REMARK                         _______ _______ _______ _____ _____    ______ ____
ROOT
ATOM      3  C   UNL     1      -4.287   0.304  24.521  0.00  0.00    +0.039 C 
ATOM      4  C   UNL     1      -4.969   0.480  24.952  0.00  0.00    +0.003 C 
ATOM      5  C   UNL     1      -5.091   1.244  25.236  0.00  0.00    +0.000 C 
ATOM      6  C   UNL     1      -4.533   1.833  25.089  0.00  0.00    +0.002 C 
ATOM      7  C   UNL     1      -5.214   2.009  25.520  0.00  0.00    +0.000 C 
ATOM      8  C   UNL     1      -4.655   2.598  25.373  0.00  0.00    +0.002 C 
ATOM      9  C   UNL     1      -4.097   3.187  25.227  0.00  0.00    +0.022 C 
ATOM     10  C   UNL     1      -3.415   3.011  24.795  0.00  0.00    +0.095 C 
ATOM     20  C   UNL     1      -3.292   2.246  24.512  0.00  0.00    +0.022 C 
ATOM     21  C   UNL     1      -2.611   2.071  24.081  0.00  0.00    +0.002 C 
ATOM     22  C   UNL     1      -3.851   1.657  24.658  0.00  0.00    +0.032 C 
ATOM     23  C   UNL     1      -3.729   0.893  24.374  0.00  0.00    +0.152 C 
ATOM     24  O   UNL     1      -3.047   0.717  23.944  0.00  0.00    -0.223 OA
ENDROOT
BRANCH  10  11
ATOM     11  N   UNL     1      -2.856   3.600  24.649  0.00  0.00    -0.207 NA
ATOM     12  C   UNL     1      -2.481   3.979  25.278  0.00  0.00    +0.241 C 
ATOM     13  O   UNL     1      -2.665   3.769  26.055  0.00  0.00    -0.273 OA
BRANCH  12  14
ATOM     14  C   UNL     1      -1.923   4.569  25.131  0.00  0.00    +0.078 C 
ATOM     15  C   UNL     1      -2.155   5.360  25.103  0.00  0.00    +0.009 C 
ATOM     16  C   UNL     1      -1.596   5.949  24.956  0.00  0.00    +0.000 C 
ATOM     17  C   UNL     1      -0.805   5.747  24.839  0.00  0.00    +0.000 C 
ATOM     18  C   UNL     1      -0.572   4.955  24.867  0.00  0.00    +0.000 C 
ATOM     19  C   UNL     1      -1.132   4.367  25.014  0.00  0.00    +0.009 C 
ENDBRANCH  12  14
ENDBRANCH  10  11
BRANCH   3   2
ATOM      1  C   UNL     1      -4.394  -0.659  23.469  0.00  0.00    +0.010 C 
ATOM      2  C   UNL     1      -4.165  -0.461  24.237  0.00  0.00    +0.081 C 
BRANCH   2  25
ATOM     25  C   UNL     1      -3.814  -1.029  24.721  0.00  0.00    +0.241 C 
ATOM     26  O   UNL     1      -4.244  -1.369  25.339  0.00  0.00    -0.273 OA
ATOM     27  N   UNL     1      -3.031  -1.258  24.589  0.00  0.00    -0.199 NA
BRANCH  27  28
ATOM     28  C   UNL     1      -2.681  -1.825  25.073  0.00  0.00    +0.160 C 
BRANCH  28  29
ATOM     29  C   UNL     1      -1.860  -1.912  25.080  0.00  0.00    +0.081 A 
ATOM     30  N   UNL     1      -1.397  -1.423  25.557  0.00  0.00    -0.246 NA
ATOM     31  C   UNL     1      -0.578  -1.510  25.563  0.00  0.00    +0.099 A 
ATOM     32  C   UNL     1      -0.219  -2.086  25.093  0.00  0.00    +0.021 A 
ATOM     33  C   UNL     1      -0.682  -2.574  24.616  0.00  0.00    +0.003 A 
ATOM     34  C   UNL     1      -1.503  -2.487  24.609  0.00  0.00    +0.017 A 
ENDBRANCH  28  29
ENDBRANCH  27  28
ENDBRANCH   2  25
ENDBRANCH   3   2
TORSDOF 6
ENDMDL
MODEL 3
REMARK VINA RESULT:     -12.5      2.973      4.926
REMARK  Name = 
REMARK  6 active torsions:
REMARK  status: ('A' for Active; 'I' for Inactive)
REMARK    1  A    between atoms: C_2  and  C_3
REMARK    2  A    between atoms: C_2  and  C_25
REMARK    3  A    between atoms: C_10  and  N_11
REMARK    4  A    between atoms: C_12  and  C_14
REMARK    5  A    between atoms: N_27  and  C_28
REMARK    6  A    between atoms: C_28  and  C_29
REMARK                            x       y       z     vdW  Elec       q    Type
REMARK                         _______ _______ _______ _____ _____    ______ ____
ROOT
ATOM      3  C   UNL     1      -0.018   0.645  23.968  0.00  0.00    +0.039 C 
ATOM      4  C   UNL     1       0.385   1.364  24.030  0.00  0.00    +0.003 C 
ATOM      5  C   UNL     1      -0.013   2.039  24.287  0.00  0.00    +0.000 C 
ATOM      6  C   UNL     1      -0.812   1.997  24.483  0.00  0.00    +0.002 C 
ATOM      7  C   UNL     1      -0.410   2.713  24.544  0.00  0.00    +0.000 C 
ATOM      8  C   UNL     1      -1.211   2.672  24.740  0.00  0.00    +0.002 C 
ATOM      9  C   UNL     1      -2.010   2.630  24.936  0.00  0.00    +0.022 C 
ATOM     10  C   UNL     1      -2.413   1.912  24.874  0.00  0.00    +0.095 C 
ATOM     20  C   UNL     1      -2.016   1.237  24.617  0.00  0.00    +0.022 C 
ATOM     21  C   UNL     1      -2.418   0.519  24.555  0.00  0.00    +0.002 C 
ATOM     22  C   UNL     1      -1.215   1.278  24.421  0.00  0.00    +0.032 C 
ATOM     23  C   UNL     1      -0.818   0.604  24.164  0.00  0.00    +0.152 C 
ATOM     24  O   UNL     1      -1.220  -0.114  24.102  0.00  0.00    -0.223 OA
ENDROOT
BRANCH  10  11
ATOM     11  N   UNL     1      -3.214   1.870  25.070  0.00  0.00    -0.207 NA
ATOM     12  C   UNL     1      -3.723   2.482  24.857  0.00  0.00    +0.241 C 
ATOM     13  O   UNL     1      -3.433   3.138  24.447  0.00  0.00    -0.273 OA
BRANCH  12  14
ATOM     14  C   UNL     1      -4.524   2.441  25.053  0.00  0.00    +0.078 C 
ATOM     15  C   UNL     1      -5.023   1.925  24.646  0.00  0.00    +0.009 C 
ATOM     16  C   UNL     1      -5.823   1.884  24.842  0.00  0.00    +0.000 C 
ATOM     17  C   UNL     1      -6.125   2.359  25.446  0.00  0.00    +0.000 C 
ATOM     18  C   UNL     1      -5.626   2.875  25.853  0.00  0.00    +0.000 C 
ATOM     19  C   UNL     1      -4.826   2.916  25.656  0.00  0.00    +0.009 C 
ENDBRANCH  12  14
ENDBRANCH  10  11
BRANCH   3   2
ATOM      1  C   UNL     1       0.244  -0.756  24.078  0.00  0.00    +0.010 C 
ATOM      2  C   UNL     1       0.381  -0.030  23.711  0.00  0.00    +0.081 C 
BRANCH   2  25
ATOM     25  C   UNL     1       0.916   0.021  23.085  0.00  0.00    +0.241 C 
ATOM     26  O   UNL     1       0.641   0.060  22.308  0.00  0.00    -0.273 OA
ATOM     27  N   UNL     1       1.728   0.034  23.237  0.00  0.00    -0.199 NA
BRANCH  27  28
ATOM     28  C   UNL     1       2.263   0.086  22.612  0.00  0.00    +0.160 C 
BRANCH  28  29
ATOM     29  C   UNL     1       3.068   0.178  22.765  0.00  0.00    +0.081 A 
ATOM     30  N   UNL     1       3.502  -0.446  23.087  0.00  0.00    -0.246 NA
ATOM     31  C   UNL     1       4.307  -0.352  23.240  0.00  0.00    +0.099 A 
ATOM     32  C   UNL     1       4.679   0.364  23.070  0.00  0.00    +0.021 A 
ATOM     33  C   UNL     1       4.246   0.987  22.747  0.00  0.00    +0.003 A 
ATOM     34  C   UNL     1       3.440   0.894  22.594  0.00  0.00    +0.017 A 
ENDBRANCH  28  29
ENDBRANCH  27  28
ENDBRANCH   2  25
ENDBRANCH   3   2
TORSDOF 6
ENDMDL
MODEL 4
REMARK VINA RESULT:     -11.9      1.813      3.519
REMARK  Name = 
REMARK  6 active torsions:
REMARK  status: ('A' for Active; 'I' for Inactive)
REMARK    1  A    between atoms: C_2  and  C_3
REMARK    2  A    between atoms: C_2  and  C_25
REMARK    3  A    between atoms: C_10  and  N_11
REMARK    4  A    between atoms: C_12  and  C_14
REMARK    5  A    between atoms: N_27  and  C_28
REMARK    6  A    between atoms: C_28  and  C_29
REMARK                            x       y       z     vdW  Elec       q    Type
REMARK                         _______ _______ _______ _____ _____    ______ ____
ROOT
ATOM      3  C   UNL     1      -0.215   2.051  25.292  0.00  0.00    +0.039 C 
ATOM      4  C   UNL     1       0.295   2.055  24.642  0.00  0.00    +0.003 C 
ATOM      5  C   UNL     1       0.318   1.406  24.134  0.00  0.00    +0.000 C 
ATOM      6  C   UNL     1      -0.167   0.754  24.274  0.00  0.00    +0.002 C 
ATOM      7  C   UNL     1       0.342   0.758  23.625  0.00  0.00    +0.000 C 
ATOM      8  C   UNL     1      -0.144   0.105  23.765  0.00  0.00    +0.002 C 
ATOM      9  C   UNL     1      -0.628  -0.547  23.905  0.00  0.00    +0.022 C 
ATOM     10  C   UNL     1      -1.138  -0.550  24.555  0.00  0.00    +0.095 C 
ATOM     20  C   UNL     1      -1.162   0.098  25.063  0.00  0.00    +0.022 C 
ATOM     21  C   UNL     1      -1.671   0.095  25.713  0.00  0.00    +0.002 C 
ATOM     22  C   UNL     1      -0.676   0.751  24.924  0.00  0.00    +0.032 C 
ATOM     23  C   UNL     1      -0.700   1.399  25.432  0.00  0.00    +0.152 C 
ATOM     24  O   UNL     1      -1.209   1.396  26.081  0.00  0.00    -0.223 OA
ENDROOT
BRANCH  10  11
ATOM     11  N   UNL     1      -1.623  -1.203  24.695  0.00  0.00    -0.207 NA
ATOM     12  C   UNL     1      -2.246  -1.372  24.182  0.00  0.00    +0.241 C 
ATOM     13  O   UNL     1      -2.385  -0.887  23.527  0.00  0.00    -0.273 OA
BRANCH  12  14
ATOM     14  C   UNL     1      -2.731  -2.025  24.322  0.00  0.00    +0.078 C 
ATOM     15  C   UNL     1      -2.405  -2.731  24.595  0.00  0.00    +0.009 C 
ATOM     16  C   UNL     1      -2.890  -3.383  24.734  0.00  0.00    +0.000 C 
ATOM     17  C   UNL     1      -3.702  -3.329  24.600  0.00  0.00    +0.000 C 
ATOM     18  C   UNL     1      -4.030  -2.622  24.327  0.00  0.00    +0.000 C 
ATOM     19  C   UNL     1      -3.543  -1.970  24.188  0.00  0.00    +0.009 C 
ENDBRANCH  12  14
ENDBRANCH  10  11
BRANCH   3   2
ATOM      1  C   UNL     1       0.165   2.677  26.521  0.00  0.00    +0.010 C 
ATOM      2  C   UNL     1      -0.238   2.700  25.801  0.00  0.00    +0.081 C 
BRANCH   2  25
ATOM     25  C   UNL     1      -0.665   3.374  25.590  0.00  0.00    +0.241 C 
ATOM     26  O   UNL     1      -0.277   4.020  25.253  0.00  0.00    -0.273 OA
ATOM     27  N   UNL     1      -1.481   3.402  25.716  0.00  0.00    -0.199 NA
BRANCH  27  28
ATOM     28  C   UNL     1      -1.907   4.075  25.505  0.00  0.00    +0.160 C 
BRANCH  28  29
ATOM     29  C   UNL     1      -2.725   4.032  25.406  0.00  0.00    +0.081 A 
ATOM     30  N   UNL     1      -3.045   3.937  24.652  0.00  0.00    -0.246 NA
ATOM     31  C   UNL     1      -3.863   3.893  24.554  0.00  0.00    +0.099 A 
ATOM     32  C   UNL     1      -4.361   3.945  25.209  0.00  0.00    +0.021 A 
ATOM     33  C   UNL     1      -4.040   4.041  25.964  0.00  0.00    +0.003 A 
ATOM     34  C   UNL     1      -3.222   4.084  26.062  0.00  0.00    +0.017 A 
ENDBRANCH  28  29
ENDBRANCH  27  28
ENDBRANCH   2  25
ENDBRANCH   3   2
TORSDOF 6
ENDMDL
MODEL 5
REMARK VINA RESULT:     -11.7      2.112      6.166
REMARK  Name = 
REMARK  6 active torsions:
REMARK  status: ('A' for Active; 'I' for Inactive)
REMARK    1  A    between atoms: C_2  and  C_3
REMARK    2  A    between atoms: C_2  and  C_25
REMARK    3  A    between atoms: C_10  and  N_11
REMARK    4  A    between atoms: C_12  and  C_14
REMARK    5  A    between atoms: N_27  and  C_28
REMARK    6  A    between atoms: C_28  and  C_29
REMARK                            x       y       z     vdW  Elec       q    Type
REMARK                         _______ _______ _______ _____ _____    ______ ____
ROOT
ATOM      3  C   UNL     1      -0.497  -0.911  24.875  0.00  0.00    +0.039 C 
ATOM      4  C   UNL     1      -0.082  -0.989  24.165  0.00  0.00    +0.003 C 
ATOM      5  C   UNL     1       0.144  -0.317  23.744  0.00  0.00    +0.000 C 
ATOM      6  C   UNL     1      -0.044   0.433  24.032  0.00  0.00    +0.002 C 
ATOM      7  C   UNL     1       0.370   0.355  23.323  0.00  0.00    +0.000 C 
ATOM      8  C   UNL     1       0.182   1.106  23.611  0.00  0.00    +0.002 C 
ATOM      9  C   UNL     1      -0.005   1.855  23.899  0.00  0.00    +0.022 C 
ATOM     10  C   UNL     1      -0.420   1.932  24.609  0.00  0.00    +0.095 C 
ATOM     20  C   UNL     1      -0.646   1.260  25.030  0.00  0.00    +0.022 C 
ATOM     21  C   UNL     1      -1.060   1.338  25.739  0.00  0.00    +0.002 C 
ATOM     22  C   UNL     1      -0.458   0.510  24.742  0.00  0.00    +0.032 C 
ATOM     23  C   UNL     1      -0.684  -0.162  25.163  0.00  0.00    +0.152 C 
ATOM     24  O   UNL     1      -1.099  -0.084  25.872  0.00  0.00    -0.223 OA
ENDROOT
BRANCH  10  11
ATOM     11  N   UNL     1      -0.608   2.683  24.897  0.00  0.00    -0.207 NA
ATOM     12  C   UNL     1      -1.039   3.208  24.430  0.00  0.00    +0.241 C 
ATOM     13  O   UNL     1      -1.283   2.983  23.674  0.00  0.00    -0.273 OA
BRANCH  12  14
ATOM     14  C   UNL     1      -1.226   3.958  24.718  0.00  0.00    +0.078 C 
ATOM     15  C   UNL     1      -1.953   4.090  25.084  0.00  0.00    +0.009 C 
ATOM     16  C   UNL     1      -2.140   4.841  25.372  0.00  0.00    +0.000 C 
ATOM     17  C   UNL     1      -1.600   5.459  25.293  0.00  0.00    +0.000 C 
ATOM     18  C   UNL     1      -0.873   5.327  24.925  0.00  0.00    +0.000 C 
ATOM     19  C   UNL     1      -0.686   4.577  24.638  0.00  0.00    +0.009 C 
ENDBRANCH  12  14
ENDBRANCH  10  11
BRANCH   3   2
ATOM      1  C   UNL     1      -0.415  -1.724  26.048  0.00  0.00    +0.010 C 
ATOM      2  C   UNL     1      -0.723  -1.584  25.295  0.00  0.00    +0.081 C 
BRANCH   2  25
ATOM     25  C   UNL     1      -1.257  -2.117  24.963  0.00  0.00    +0.241 C 
ATOM     26  O   UNL     1      -0.982  -2.809  24.606  0.00  0.00    -0.273 OA
ATOM     27  N   UNL     1      -2.067  -1.959  24.987  0.00  0.00    -0.199 NA
BRANCH  27  28
ATOM     28  C   UNL     1      -2.601  -2.492  24.655  0.00  0.00    +0.160 C 
BRANCH  28  29
ATOM     29  C   UNL     1      -3.335  -2.228  24.386  0.00  0.00    +0.081 A 
ATOM     30  N   UNL     1      -3.630  -1.501  24.640  0.00  0.00    -0.246 NA
ATOM     31  C   UNL     1      -4.364  -1.237  24.371  0.00  0.00    +0.099 A 
ATOM     32  C   UNL     1      -4.803  -1.701  23.848  0.00  0.00    +0.021 A 
ATOM     33  C   UNL     1      -4.507  -2.428  23.594  0.00  0.00    +0.003 A 
ATOM     34  C   UNL     1      -3.773  -2.692  23.864  0.00  0.00    +0.017 A 
ENDBRANCH  28  29
ENDBRANCH  27  28
ENDBRANCH   2  25
ENDBRANCH   3   2
TORSDOF 6
ENDMDL
MODEL 6
REMARK VINA RESULT:     -11.6      1.458      3.053
REMARK  Name = 
REMARK  6 active torsions:
REMARK  status: ('A' for Active; 'I' for Inactive)
REMARK    1  A    between atoms: C_2  and  C_3
REMARK    2  A    between atoms: C_2  and  C_25
REMARK    3  A    between atoms: C_10  and  N_11
REMARK    4  A    between atoms: C_12  and  C_14
REMARK    5  A    between atoms: N_27  and  C_28
REMARK    6  A    between atoms: C_28  and  C_29
REMARK                            x       y       z     vdW  Elec       q    Type
REMARK                         _______ _______ _______ _____ _____    ______ ____
ROOT
ATOM      3  C   UNL     1      -0.889   2.431  24.886  0.00  0.00    +0.039 C 
ATOM      4  C   UNL     1      -0.458   2.283  25.575  0.00  0.00    +0.003 C 
ATOM      5  C   UNL     1      -0.467   1.531  25.913  0.00  0.00    +0.000 C 
ATOM      6  C   UNL     1      -0.905   0.927  25.563  0.00  0.00    +0.002 C 
ATOM      7  C   UNL     1      -0.476   0.779  26.250  0.00  0.00    +0.000 C 
ATOM      8  C   UNL     1      -0.915   0.174  25.900  0.00  0.00    +0.002 C 
ATOM      9  C   UNL     1      -1.353  -0.430  25.550  0.00  0.00    +0.022 C 
ATOM     10  C   UNL     1      -1.783  -0.282  24.861  0.00  0.00    +0.095 C 
ATOM     20  C   UNL     1      -1.774   0.470  24.523  0.00  0.00    +0.022 C 
ATOM     21  C   UNL     1      -2.204   0.618  23.835  0.00  0.00    +0.002 C 
ATOM     22  C   UNL     1      -1.336   1.075  24.873  0.00  0.00    +0.032 C 
ATOM     23  C   UNL     1      -1.327   1.827  24.536  0.00  0.00    +0.152 C 
ATOM     24  O   UNL     1      -1.757   1.975  23.847  0.00  0.00    -0.223 OA
ENDROOT
BRANCH  10  11
ATOM     11  N   UNL     1      -2.222  -0.887  24.511  0.00  0.00    -0.207 NA
ATOM     12  C   UNL     1      -2.802  -1.281  24.944  0.00  0.00    +0.241 C 
ATOM     13  O   UNL     1      -2.945  -1.069  25.730  0.00  0.00    -0.273 OA
BRANCH  12  14
ATOM     14  C   UNL     1      -3.241  -1.886  24.594  0.00  0.00    +0.078 C 
ATOM     15  C   UNL     1      -2.996  -2.669  24.669  0.00  0.00    +0.009 C 
ATOM     16  C   UNL     1      -3.434  -3.274  24.319  0.00  0.00    +0.000 C 
ATOM     17  C   UNL     1      -4.118  -3.095  23.894  0.00  0.00    +0.000 C 
ATOM     18  C   UNL     1      -4.364  -2.310  23.819  0.00  0.00    +0.000 C 
ATOM     19  C   UNL     1      -3.924  -1.706  24.169  0.00  0.00    +0.009 C 
ENDBRANCH  12  14
ENDBRANCH  10  11
BRANCH   3   2
ATOM      1  C   UNL     1      -0.385   3.345  23.908  0.00  0.00    +0.010 C 
ATOM      2  C   UNL     1      -0.880   3.184  24.548  0.00  0.00    +0.081 C 
BRANCH   2  25
ATOM     25  C   UNL     1      -1.366   3.777  24.851  0.00  0.00    +0.241 C 
ATOM     26  O   UNL     1      -1.033   4.455  25.184  0.00  0.00    -0.273 OA
ATOM     27  N   UNL     1      -2.187   3.693  24.822  0.00  0.00    -0.199 NA
BRANCH  27  28
ATOM     28  C   UNL     1      -2.673   4.286  25.125  0.00  0.00    +0.160 C 
BRANCH  28  29
ATOM     29  C   UNL     1      -3.472   4.134  25.263  0.00  0.00    +0.081 A 
ATOM     30  N   UNL     1      -4.007   4.136  24.635  0.00  0.00    -0.246 NA
ATOM     31  C   UNL     1      -4.806   3.985  24.773  0.00  0.00    +0.099 A 
ATOM     32  C   UNL     1      -5.071   3.831  25.539  0.00  0.00    +0.021 A 
ATOM     33  C   UNL     1      -4.536   3.829  26.167  0.00  0.00    +0.003 A 
ATOM     34  C   UNL     1      -3.736   3.981  26.029  0.00  0.00    +0.017 A 
ENDBRANCH  28  29
ENDBRANCH  27  28
ENDBRANCH   2  25
ENDBRANCH   3   2
TORSDOF 6
ENDMDL
MODEL 7
REMARK VINA RESULT:     -11.5      2.411      4.622
REMARK  Name = 
REMARK  6 active torsions:
REMARK  status: ('A' for Active; 'I' for Inactive)
REMARK    1  A    between atoms: C_2  and  C_3
REMARK    2  A    between atoms: C_2  and  C_25
REMARK    3  A    between atoms: C_10  and  N_11
REMARK    4  A    between atoms: C_12  and  C_14
REMARK    5  A    between atoms: N_27  and  C_28
REMARK    6  A    between atoms: C_28  and  C_29
REMARK                            x       y       z     vdW  Elec       q    Type
REMARK                         _______ _______ _______ _____ _____    ______ ____
ROOT
ATOM      3  C   UNL     1      -1.718  -1.143  24.693  0.00  0.00    +0.039 C 
ATOM      4  C   UNL     1      -2.231  -1.738  24.436  0.00  0.00    +0.003 C 
ATOM      5  C   UNL     1      -3.044  -1.602  24.419  0.00  0.00    +0.000 C 
ATOM      6  C   UNL     1      -3.346  -0.874  24.659  0.00  0.00    +0.002 C 
ATOM      7  C   UNL     1      -3.857  -1.467  24.403  0.00  0.00    +0.000 C 
ATOM      8  C   UNL     1      -4.159  -0.738  24.643  0.00  0.00    +0.002 C 
ATOM      9  C   UNL     1      -4.461  -0.009  24.882  0.00  0.00    +0.022 C 
ATOM     10  C   UNL     1      -3.949   0.586  25.139  0.00  0.00    +0.095 C 
ATOM     20  C   UNL     1      -3.136   0.451  25.155  0.00  0.00    +0.022 C 
ATOM     21  C   UNL     1      -2.624   1.045  25.411  0.00  0.00    +0.002 C 
ATOM     22  C   UNL     1      -2.833  -0.279  24.916  0.00  0.00    +0.032 C 
ATOM     23  C   UNL     1      -2.020  -0.414  24.932  0.00  0.00    +0.152 C 
ATOM     24  O   UNL     1      -1.508   0.180  25.188  0.00  0.00    -0.223 OA
ENDROOT
BRANCH  10  11
ATOM     11  N   UNL     1      -4.251   1.315  25.378  0.00  0.00    -0.207 NA
ATOM     12  C   UNL     1      -4.760   1.734  24.883  0.00  0.00    +0.241 C 
ATOM     13  O   UNL     1      -4.967   1.424  24.146  0.00  0.00    -0.273 OA
BRANCH  12  14
ATOM     14  C   UNL     1      -5.063   2.464  25.123  0.00  0.00    +0.078 C 
ATOM     15  C   UNL     1      -5.774   2.499  25.539  0.00  0.00    +0.009 C 
ATOM     16  C   UNL     1      -6.076   3.229  25.778  0.00  0.00    +0.000 C 
ATOM     17  C   UNL     1      -5.667   3.923  25.601  0.00  0.00    +0.000 C 
ATOM     18  C   UNL     1      -4.955   3.887  25.185  0.00  0.00    +0.000 C 
ATOM     19  C   UNL     1      -4.653   3.158  24.946  0.00  0.00    +0.009 C 
ENDBRANCH  12  14
ENDBRANCH  10  11
BRANCH   3   2
ATOM      1  C   UNL     1      -0.527  -1.443  25.424  0.00  0.00    +0.010 C 
ATOM      2  C   UNL     1      -0.905  -1.279  24.709  0.00  0.00    +0.081 C 
BRANCH   2  25
ATOM     25  C   UNL     1      -0.468  -1.250  24.010  0.00  0.00    +0.241 C 
ATOM     26  O   UNL     1      -0.596  -1.813  23.419  0.00  0.00    -0.273 OA
ATOM     27  N   UNL     1       0.097  -0.658  23.900  0.00  0.00    -0.199 NA
BRANCH  27  28
ATOM     28  C   UNL     1       0.533  -0.629  23.201  0.00  0.00    +0.160 C 
BRANCH  28  29
ATOM     29  C   UNL     1       1.168  -0.107  23.132  0.00  0.00    +0.081 A 
ATOM     30  N   UNL     1       1.119   0.649  23.459  0.00  0.00    -0.246 NA
ATOM     31  C   UNL     1       1.754   1.170  23.389  0.00  0.00    +0.099 A 
ATOM     32  C   UNL     1       2.438   0.937  22.992  0.00  0.00    +0.021 A 
ATOM     33  C   UNL     1       2.487   0.182  22.664  0.00  0.00    +0.003 A 
ATOM     34  C   UNL     1       1.852  -0.341  22.734  0.00  0.00    +0.017 A 
ENDBRANCH  28  29
ENDBRANCH  27  28
ENDBRANCH   2  25
ENDBRANCH   3   2
TORSDOF 6
ENDMDL
MODEL 8
REMARK VINA RESULT:     -11.2      1.904      5.193
REMARK  Name = 
REMARK  6 active torsions:
REMARK  status: ('A' for Active; 'I' for Inactive)
REMARK    1  A    between atoms: C_2  and  C_3
REMARK    2  A    between atoms: C_2  and  C_25
REMARK    3  A    between atoms: C_10  and  N_11
REMARK    4  A    between atoms: C_12  and  C_14
REMARK    5  A    between atoms: N_27  and  C_28
REMARK    6  A    between atoms: C_28  and  C_29
REMARK                            x       y       z     vdW  Elec       q    Type
REMARK                         _______ _______ _______ _____ _____    ______ ____
ROOT
ATOM      3  C   UNL     1      -0.585   0.875  24.429  0.00  0.00    +0.039 C 
ATOM      4  C   UNL     1      -0.044   1.223  24.948  0.00  0.00    +0.003 C 
ATOM      5  C   UNL     1      -0.256   1.898  25.371  0.00  0.00    +0.000 C 
ATOM      6  C   UNL     1      -1.007   2.225  25.277  0.00  0.00    +0.002 C 
ATOM      7  C   UNL     1      -0.468   2.572  25.795  0.00  0.00    +0.000 C 
ATOM      8  C   UNL     1      -1.220   2.900  25.701  0.00  0.00    +0.002 C 
ATOM      9  C   UNL     1      -1.970   3.227  25.607  0.00  0.00    +0.022 C 
ATOM     10  C   UNL     1      -2.511   2.879  25.089  0.00  0.00    +0.095 C 
ATOM     20  C   UNL     1      -2.299   2.204  24.665  0.00  0.00    +0.022 C 
ATOM     21  C   UNL     1      -2.838   1.856  24.147  0.00  0.00    +0.002 C 
ATOM     22  C   UNL     1      -1.547   1.876  24.759  0.00  0.00    +0.032 C 
ATOM     23  C   UNL     1      -1.335   1.202  24.335  0.00  0.00    +0.152 C 
ATOM     24  O   UNL     1      -1.875   0.854  23.817  0.00  0.00    -0.223 OA
ENDROOT
BRANCH  10  11
ATOM     11  N   UNL     1      -3.262   3.207  24.995  0.00  0.00    -0.207 NA
ATOM     12  C   UNL     1      -3.729   3.366  25.656  0.00  0.00    +0.241 C 
ATOM     13  O   UNL     1      -3.444   3.196  26.413  0.00  0.00    -0.273 OA
BRANCH  12  14
ATOM     14  C   UNL     1      -4.480   3.693  25.562  0.00  0.00    +0.078 C 
ATOM     15  C   UNL     1      -4.562   4.476  25.316  0.00  0.00    +0.009 C 
ATOM     16  C   UNL     1      -5.313   4.804  25.222  0.00  0.00    +0.000 C 
ATOM     17  C   UNL     1      -5.983   4.348  25.375  0.00  0.00    +0.000 C 
ATOM     18  C   UNL     1      -5.902   3.564  25.622  0.00  0.00    +0.000 C 
ATOM     19  C   UNL     1      -5.151   3.237  25.715  0.00  0.00    +0.009 C 
ENDBRANCH  12  14
ENDBRANCH  10  11
BRANCH   3   2
ATOM      1  C   UNL     1      -0.091   0.267  23.232  0.00  0.00    +0.010 C 
ATOM      2  C   UNL     1      -0.372   0.199  24.005  0.00  0.00    +0.081 C 
BRANCH   2  25
ATOM     25  C   UNL     1      -0.441  -0.545  24.355  0.00  0.00    +0.241 C 
ATOM     26  O   UNL     1       0.207  -0.883  24.738  0.00  0.00    -0.273 OA
ATOM     27  N   UNL     1      -1.159  -0.952  24.321  0.00  0.00    -0.199 NA
BRANCH  27  28
ATOM     28  C   UNL     1      -1.227  -1.695  24.670  0.00  0.00    +0.160 C 
BRANCH  28  29
ATOM     29  C   UNL     1      -1.963  -2.066  24.710  0.00  0.00    +0.081 A 
ATOM     30  N   UNL     1      -2.180  -2.616  24.134  0.00  0.00    -0.246 NA
ATOM     31  C   UNL     1      -2.916  -2.986  24.175  0.00  0.00    +0.099 A 
ATOM     32  C   UNL     1      -3.435  -2.808  24.791  0.00  0.00    +0.021 A 
ATOM     33  C   UNL     1      -3.218  -2.258  25.366  0.00  0.00    +0.003 A 
ATOM     34  C   UNL     1      -2.481  -1.887  25.326  0.00  0.00    +0.017 A 
ENDBRANCH  28  29
ENDBRANCH  27  28
ENDBRANCH   2  25
ENDBRANCH   3   2
TORSDOF 6
ENDMDL
MODEL 9
REMARK VINA RESULT:     -10.8      1.755      3.604
REMARK  Name = 
REMARK  6 active torsions:
REMARK  status: ('A' for Active; 'I' for Inactive)
REMARK    1  A    between atoms: C_2  and  C_3
REMARK    2  A    between atoms: C_2  and  C_25
REMARK    3  A    between atoms: C_10  and  N_11
REMARK    4  A    between atoms: C_12  and  C_14
REMARK    5  A    between atoms: N_27  and  C_28
REMARK    6  A    between atoms: C_28  and  C_29
REMARK                            x       y       z     vdW  Elec       q    Type
REMARK                         _______ _______ _______ _____ _____    ______ ____
ROOT
ATOM      3  C   UNL     1      -2.172   3.421  25.192  0.00  0.00    +0.039 C 
ATOM      4  C   UNL     1      -1.589   3.650  25.731  0.00  0.00    +0.003 C 
ATOM      5  C   UNL     1      -1.020   3.108  25.977  0.00  0.00    +0.000 C 
ATOM      6  C   UNL     1      -1.031   2.337  25.686  0.00  0.00    +0.002 C 
ATOM      7  C   UNL     1      -0.450   2.565  26.223  0.00  0.00    +0.000 C 
ATOM      8  C   UNL     1      -0.461   1.793  25.932  0.00  0.00    +0.002 C 
ATOM      9  C   UNL     1      -0.473   1.022  25.641  0.00  0.00    +0.022 C 
ATOM     10  C   UNL     1      -1.055   0.793  25.102  0.00  0.00    +0.095 C 
ATOM     20  C   UNL     1      -1.625   1.336  24.855  0.00  0.00    +0.022 C 
ATOM     21  C   UNL     1      -2.207   1.107  24.317  0.00  0.00    +0.002 C 
ATOM     22  C   UNL     1      -1.614   2.108  25.147  0.00  0.00    +0.032 C 
ATOM     23  C   UNL     1      -2.183   2.650  24.900  0.00  0.00    +0.152 C 
ATOM     24  O   UNL     1      -2.765   2.421  24.362  0.00  0.00    -0.223 OA
ENDROOT
BRANCH  10  11
ATOM     11  N   UNL     1      -1.066   0.021  24.810  0.00  0.00    -0.207 NA
ATOM     12  C   UNL     1      -1.203  -0.611  25.321  0.00  0.00    +0.241 C 
ATOM     13  O   UNL     1      -1.329  -0.472  26.125  0.00  0.00    -0.273 OA
BRANCH  12  14
ATOM     14  C   UNL     1      -1.214  -1.383  25.030  0.00  0.00    +0.078 C 
ATOM     15  C   UNL     1      -1.918  -1.709  24.749  0.00  0.00    +0.009 C 
ATOM     16  C   UNL     1      -1.929  -2.481  24.458  0.00  0.00    +0.000 C 
ATOM     17  C   UNL     1      -1.235  -2.927  24.447  0.00  0.00    +0.000 C 
ATOM     18  C   UNL     1      -0.530  -2.601  24.728  0.00  0.00    +0.000 C 
ATOM     19  C   UNL     1      -0.520  -1.829  25.019  0.00  0.00    +0.009 C 
ENDBRANCH  12  14
ENDBRANCH  10  11
BRANCH   3   2
ATOM      1  C   UNL     1      -2.616   4.417  24.267  0.00  0.00    +0.010 C 
ATOM      2  C   UNL     1      -2.742   3.965  24.946  0.00  0.00    +0.081 C 
BRANCH   2  25
ATOM     25  C   UNL     1      -3.438   4.056  25.378  0.00  0.00    +0.241 C 
ATOM     26  O   UNL     1      -3.457   4.564  26.029  0.00  0.00    -0.273 OA
ATOM     27  N   UNL     1      -4.117   3.639  25.161  0.00  0.00    -0.199 NA
BRANCH  27  28
ATOM     28  C   UNL     1      -4.813   3.730  25.593  0.00  0.00    +0.160 C 
BRANCH  28  29
ATOM     29  C   UNL     1      -5.354   3.109  25.639  0.00  0.00    +0.081 A 
ATOM     30  N   UNL     1      -5.580   2.812  26.375  0.00  0.00    -0.246 NA
ATOM     31  C   UNL     1      -6.121   2.192  26.420  0.00  0.00    +0.099 A 
ATOM     32  C   UNL     1      -6.438   1.868  25.730  0.00  0.00    +0.021 A 
ATOM     33  C   UNL     1      -6.212   2.166  24.995  0.00  0.00    +0.003 A 
ATOM     34  C   UNL     1      -5.670   2.787  24.949  0.00  0.00    +0.017 A 
ENDBRANCH  28  29
ENDBRANCH  27  28
ENDBRANCH   2  25
ENDBRANCH   3   2
TORSDOF 6
ENDMDL
MODEL 10
REMARK VINA RESULT:     -10.8      2.738      5.122
REMARK  Name = 
REMARK  6 active torsions:
REMARK  status: ('A' for Active; 'I' for Inactive)
REMARK    1  A    between atoms: C_2  and  C_3
REMARK    2  A    between atoms: C_2  and  C_25
REMARK    3  A    between atoms: C_10  and  N_11
REMARK    4  A    between atoms: C_12  and  C_14
REMARK    5  A    between atoms: N_27  and  C_28
REMARK    6  A    between atoms: C_28  and  C_29
REMARK                            x       y       z     vdW  Elec       q    Type
REMARK                         _______ _______ _______ _____ _____    ______ ____
ROOT
ATOM      3  C   UNL     1      -1.718   2.239  25.103  0.00  0.00    +0.039 C 
ATOM      4  C   UNL     1      -2.078   1.505  25.222  0.00  0.00    +0.003 C 
ATOM      5  C   UNL     1      -1.696   0.815  24.984  0.00  0.00    +0.000 C 
ATOM      6  C   UNL     1      -0.954   0.856  24.627  0.00  0.00    +0.002 C 
ATOM      7  C   UNL     1      -1.314   0.124  24.746  0.00  0.00    +0.000 C 
ATOM      8  C   UNL     1      -0.571   0.165  24.388  0.00  0.00    +0.002 C 
ATOM      9  C   UNL     1       0.170   0.207  24.031  0.00  0.00    +0.022 C 
ATOM     10  C   UNL     1       0.531   0.940  23.911  0.00  0.00    +0.095 C 
ATOM     20  C   UNL     1       0.149   1.631  24.149  0.00  0.00    +0.022 C 
ATOM     21  C   UNL     1       0.508   2.363  24.030  0.00  0.00    +0.002 C 
ATOM     22  C   UNL     1      -0.594   1.590  24.507  0.00  0.00    +0.032 C 
ATOM     23  C   UNL     1      -0.976   2.280  24.745  0.00  0.00    +0.152 C 
ATOM     24  O   UNL     1      -0.616   3.013  24.626  0.00  0.00    -0.223 OA
ENDROOT
BRANCH  10  11
ATOM     11  N   UNL     1       1.273   0.981  23.554  0.00  0.00    -0.207 NA
ATOM     12  C   UNL     1       1.575   0.327  23.153  0.00  0.00    +0.241 C 
ATOM     13  O   UNL     1       1.134  -0.370  23.110  0.00  0.00    -0.273 OA
BRANCH  12  14
ATOM     14  C   UNL     1       2.318   0.368  22.795  0.00  0.00    +0.078 C 
ATOM     15  C   UNL     1       2.427   0.069  22.035  0.00  0.00    +0.009 C 
ATOM     16  C   UNL     1       3.169   0.110  21.677  0.00  0.00    +0.000 C 
ATOM     17  C   UNL     1       3.803   0.450  22.081  0.00  0.00    +0.000 C 
ATOM     18  C   UNL     1       3.694   0.749  22.843  0.00  0.00    +0.000 C 
ATOM     19  C   UNL     1       2.952   0.708  23.199  0.00  0.00    +0.009 C 
ENDBRANCH  12  14
ENDBRANCH  10  11
BRANCH   3   2
ATOM      1  C   UNL     1      -1.774   3.401  25.934  0.00  0.00    +0.010 C 
ATOM      2  C   UNL     1      -2.101   2.930  25.341  0.00  0.00    +0.081 C 
BRANCH   2  25
ATOM     25  C   UNL     1      -2.812   3.150  24.986  0.00  0.00    +0.241 C 
ATOM     26  O   UNL     1      -2.806   3.600  24.293  0.00  0.00    -0.273 OA
ATOM     27  N   UNL     1      -3.530   2.921  25.323  0.00  0.00    -0.199 NA
BRANCH  27  28
ATOM     28  C   UNL     1      -4.241   3.141  24.968  0.00  0.00    +0.160 C 
BRANCH  28  29
ATOM     29  C   UNL     1      -4.943   2.766  25.182  0.00  0.00    +0.081 A 
ATOM     30  N   UNL     1      -5.316   2.962  25.892  0.00  0.00    -0.246 NA
ATOM     31  C   UNL     1      -6.018   2.586  26.106  0.00  0.00    +0.099 A 
ATOM     32  C   UNL     1      -6.348   2.014  25.611  0.00  0.00    +0.021 A 
ATOM     33  C   UNL     1      -5.975   1.818  24.902  0.00  0.00    +0.003 A 
ATOM     34  C   UNL     1      -5.272   2.194  24.687  0.00  0.00    +0.017 A 
ENDBRANCH  28  29
ENDBRANCH  27  28
ENDBRANCH   2  25
ENDBRANCH   3   2
TORSDOF 6
ENDMDL
