REMARK  Name = 
REMARK  11 active torsions:
REMARK  status: ('A' for Active; 'I' for Inactive)
REMARK    1  A    between atoms: N_2  and  C_3
REMARK    2  A    between atoms: N_2  and  C_11
REMARK    3  A    between atoms: C_3  and  C_4
REMARK    4  A    between atoms: C_4  and  C_5
REMARK    5  A    between atoms: C_12  and  C_13
REMARK    6  A    between atoms: C_13  and  N_14
REMARK    7  A    between atoms: N_14  and  C_15
REMARK    8  A    between atoms: N_14  and  C_23
REMARK    9  A    between atoms: C_15  and  C_16
REMARK   10  A    between atoms: C_23  and  C_24
REMARK   11  A    between atoms: C_32  and  C_33
REMARK                            x       y       z     vdW  Elec       q    Type
REMARK                         _______ _______ _______ _____ _____    ______ ____
ROOT
ATOM     11  C   UNL     1       1.322  -2.537   0.000  0.00  0.00    +0.120 C 
ATOM     12  C   UNL     1       1.990  -3.022   0.000  0.00  0.00    +0.148 C 
ATOM     31  O   UNL     1       1.735  -3.806   0.000  0.00  0.00    -0.350 OA
ATOM     32  C   UNL     1       0.910  -3.806   0.000  0.00  0.00    +0.180 C 
ATOM     35  C   UNL     1       0.655  -3.022   0.000  0.00  0.00    +0.198 C 
ATOM     36  O   UNL     1      -0.130  -2.767   0.000  0.00  0.00    -0.219 OA
ENDROOT
BRANCH  11   2
ATOM      1  C   UNL     1       2.037  -1.299   0.000  0.00  0.00    +0.090 C 
ATOM      2  N   UNL     1       1.322  -1.712   0.000  0.00  0.00    -0.268 NA
BRANCH   2   3
ATOM      3  C   UNL     1       0.608  -1.299   0.000  0.00  0.00    +0.079 C 
BRANCH   3   4
ATOM      4  C   UNL     1       0.608  -0.474   0.000  0.00  0.00    +0.063 C 
BRANCH   4   5
ATOM      5  C   UNL     1      -0.107  -0.062   0.000  0.00  0.00    +0.060 A 
ATOM      6  N   UNL     1      -0.821  -0.474   0.000  0.00  0.00    -0.248 NA
ATOM      7  C   UNL     1      -1.536  -0.062   0.000  0.00  0.00    +0.098 A 
ATOM      8  C   UNL     1      -1.536   0.763   0.000  0.00  0.00    +0.021 A 
ATOM      9  C   UNL     1      -0.821   1.176   0.000  0.00  0.00    +0.003 A 
ATOM     10  C   UNL     1      -0.107   0.763   0.000  0.00  0.00    +0.015 A 
ENDBRANCH   4   5
ENDBRANCH   3   4
ENDBRANCH   2   3
ENDBRANCH  11   2
BRANCH  32  33
ATOM     33  C   UNL     1       0.425  -4.474   0.000  0.00  0.00    +0.214 C 
ATOM     34  O   UNL     1       0.760  -5.227   0.000  0.00  0.00    -0.218 OA
ENDBRANCH  32  33
BRANCH  12  13
ATOM     13  C   UNL     1       2.774  -2.767   0.000  0.00  0.00    +0.104 C 
BRANCH  13  14
ATOM     14  N   UNL     1       3.387  -3.319   0.000  0.00  0.00    -0.263 NA
BRANCH  14  15
ATOM     15  C   UNL     1       4.172  -3.064   0.000  0.00  0.00    +0.099 C 
BRANCH  15  16
ATOM     16  C   UNL     1       4.343  -2.257   0.000  0.00  0.00    -0.006 A 
ATOM     17  C   UNL     1       3.730  -1.705   0.000  0.00  0.00    -0.001 A 
ATOM     18  C   UNL     1       3.902  -0.898   0.000  0.00  0.00    +0.029 A 
ATOM     19  C   UNL     1       4.687  -0.643   0.000  0.00  0.00    +0.140 A 
ATOM     20  F   UNL     1       4.858   0.164   0.000  0.00  0.00    -0.204 F 
ATOM     21  C   UNL     1       5.300  -1.195   0.000  0.00  0.00    +0.029 A 
ATOM     22  C   UNL     1       5.128  -2.002   0.000  0.00  0.00    -0.001 A 
ENDBRANCH  15  16
ENDBRANCH  14  15
BRANCH  14  23
ATOM     23  C   UNL     1       3.216  -4.126   0.000  0.00  0.00    +0.099 C 
BRANCH  23  24
ATOM     24  C   UNL     1       3.829  -4.678   0.000  0.00  0.00    -0.006 A 
ATOM     25  C   UNL     1       4.614  -4.423   0.000  0.00  0.00    -0.001 A 
ATOM     26  C   UNL     1       5.227  -4.975   0.000  0.00  0.00    +0.029 A 
ATOM     27  C   UNL     1       5.055  -5.782   0.000  0.00  0.00    +0.140 A 
ATOM     28  F   UNL     1       5.668  -6.334   0.000  0.00  0.00    -0.204 F 
ATOM     29  C   UNL     1       4.271  -6.037   0.000  0.00  0.00    +0.029 A 
ATOM     30  C   UNL     1       3.657  -5.485   0.000  0.00  0.00    -0.001 A 
ENDBRANCH  23  24
ENDBRANCH  14  23
ENDBRANCH  13  14
ENDBRANCH  12  13
TORSDOF 11
