REMARK  Name = 
REMARK  4 active torsions:
REMARK  status: ('A' for Active; 'I' for Inactive)
REMARK    1  A    between atoms: C_5  and  N_8
REMARK    2  A    between atoms: C_12  and  C_13
REMARK    3  A    between atoms: C_15  and  C_18
REMARK    4  A    between atoms: C_22  and  N_24
REMARK                            x       y       z     vdW  Elec       q    Type
REMARK                         _______ _______ _______ _____ _____    ______ ____
ROOT
ATOM     13  C   UNL     1       2.206  -4.803   0.000  0.00  0.00    +0.251 A 
ATOM     14  N   UNL     1       1.538  -5.287   0.000  0.00  0.00    -0.190 NA
ATOM     15  C   UNL     1       0.871  -4.803   0.000  0.00  0.00    +0.203 A 
ATOM     16  N   UNL     1       1.126  -4.018   0.000  0.00  0.00    -0.056 NA
ATOM     17  O   UNL     1       1.951  -4.018   0.000  0.00  0.00    -0.336 OA
ENDROOT
BRANCH  15  18
ATOM     18  C   UNL     1       0.086  -5.057   0.000  0.00  0.00    +0.043 A 
ATOM     19  C   UNL     1      -0.086  -5.864   0.000  0.00  0.00    +0.024 A 
ATOM     20  C   UNL     1      -0.870  -6.119   0.000  0.00  0.00    +0.100 A 
ATOM     21  N   UNL     1      -1.483  -5.567   0.000  0.00  0.00    -0.229 NA
ATOM     22  C   UNL     1      -1.312  -4.760   0.000  0.00  0.00    +0.132 A 
ATOM     23  C   UNL     1      -0.527  -4.505   0.000  0.00  0.00    +0.037 A 
BRANCH  22  24
ATOM     24  N   UNL     1      -1.925  -4.208   0.000  0.00  0.00    -0.290 N 
ATOM     25  C   UNL     1      -2.709  -4.463   0.000  0.00  0.00    +0.114 C 
ATOM     26  C   UNL     1      -3.322  -3.911   0.000  0.00  0.00    +0.115 C 
ATOM     27  N   UNL     1      -3.151  -3.104   0.000  0.00  0.00    -0.276 N 
ATOM     28  C   UNL     1      -2.366  -2.849   0.000  0.00  0.00    +0.115 C 
ATOM     29  C   UNL     1      -1.753  -3.401   0.000  0.00  0.00    +0.114 C 
ATOM     30  C   UNL     1      -3.764  -2.552   0.000  0.00  0.00    +0.226 C 
ATOM     31  C   UNL     1      -4.549  -2.807   0.000  0.00  0.00    +0.095 C 
ATOM     32  O   UNL     1      -3.592  -1.745   0.000  0.00  0.00    -0.275 OA
ENDBRANCH  22  24
ENDBRANCH  15  18
BRANCH  13  12
ATOM      8  N   UNL     1       3.658  -4.572   0.000  0.00  0.00    -0.268 NA
ATOM      9  C   UNL     1       4.325  -5.057   0.000  0.00  0.00    +0.072 C 
ATOM     10  C   UNL     1       4.070  -5.842   0.000  0.00  0.00    +0.019 C 
ATOM     11  C   UNL     1       3.245  -5.842   0.000  0.00  0.00    +0.027 C 
ATOM     12  C   UNL     1       2.990  -5.057   0.000  0.00  0.00    +0.138 C 
BRANCH   8   5
ATOM      1  C   UNL     1       3.658  -1.272   0.000  0.00  0.00    +0.090 C 
ATOM      2  N   UNL     1       3.658  -2.098   0.000  0.00  0.00    -0.271 NA
ATOM      3  C   UNL     1       4.372  -2.510   0.000  0.00  0.00    +0.074 C 
ATOM      4  C   UNL     1       4.372  -3.335   0.000  0.00  0.00    +0.033 C 
ATOM      5  C   UNL     1       3.658  -3.748   0.000  0.00  0.00    +0.061 C 
ATOM      6  C   UNL     1       2.943  -3.335   0.000  0.00  0.00    +0.033 C 
ATOM      7  C   UNL     1       2.943  -2.510   0.000  0.00  0.00    +0.074 C 
ENDBRANCH   8   5
ENDBRANCH  13  12
TORSDOF 4
