MODEL 1
REMARK VINA RESULT:     -11.0      0.000      0.000
REMARK  Name = 
REMARK  8 active torsions:
REMARK  status: ('A' for Active; 'I' for Inactive)
REMARK    1  A    between atoms: N_2  and  C_4
REMARK    2  A    between atoms: C_7  and  C_10
REMARK    3  A    between atoms: N_12  and  C_13
REMARK    4  A    between atoms: C_18  and  C_19
REMARK    5  A    between atoms: C_19  and  C_20
REMARK    6  A    between atoms: C_20  and  C_21
REMARK    7  A    between atoms: N_23  and  C_24
REMARK    8  A    between atoms: C_24  and  C_25
REMARK                            x       y       z     vdW  Elec       q    Type
REMARK                         _______ _______ _______ _____ _____    ______ ____
ROOT
ATOM     13  C   UNL     1      -4.742   1.513  24.933  0.00  0.00    +0.113 C 
ATOM     14  C   UNL     1      -5.434   1.805  25.276  0.00  0.00    +0.048 C 
ATOM     15  C   UNL     1      -5.330   2.612  25.412  0.00  0.00    +0.138 C 
ATOM     16  N   UNL     1      -4.573   2.819  25.154  0.00  0.00    -0.265 NA
ATOM     17  C   UNL     1      -4.211   2.139  24.858  0.00  0.00    +0.094 C 
ATOM     18  C   UNL     1      -4.314   3.599  25.222  0.00  0.00    +0.080 C 
ATOM     31  C   UNL     1      -4.810   4.172  25.548  0.00  0.00    +0.131 C 
ATOM     32  N   UNL     1      -5.565   3.965  25.806  0.00  0.00    -0.203 NA
ATOM     33  C   UNL     1      -5.825   3.185  25.739  0.00  0.00    +0.256 C 
ATOM     34  O   UNL     1      -6.580   2.978  25.997  0.00  0.00    -0.272 OA
ENDROOT
BRANCH  13  12
ATOM     10  C   UNL     1      -4.057   0.272  25.115  0.00  0.00    +0.265 C 
ATOM     11  O   UNL     1      -3.643   0.593  25.751  0.00  0.00    -0.268 OA
ATOM     12  N   UNL     1      -4.606   0.732  24.706  0.00  0.00    -0.202 NA
BRANCH  10   7
ATOM      4  C   UNL     1      -3.653  -2.072  24.431  0.00  0.00    +0.048 A 
ATOM      5  C   UNL     1      -3.980  -1.537  23.895  0.00  0.00    +0.015 A 
ATOM      6  C   UNL     1      -4.115  -0.756  24.124  0.00  0.00    +0.006 A 
ATOM      7  C   UNL     1      -3.923  -0.509  24.887  0.00  0.00    +0.055 A 
ATOM      8  C   UNL     1      -3.595  -1.045  25.422  0.00  0.00    +0.006 A 
ATOM      9  C   UNL     1      -3.460  -1.826  25.195  0.00  0.00    +0.015 A 
BRANCH   4   2
ATOM      1  C   UNL     1      -4.124  -3.294  23.858  0.00  0.00    +0.112 C 
ATOM      2  N   UNL     1      -3.518  -2.854  24.204  0.00  0.00    -0.304 N 
ATOM      3  C   UNL     1      -2.776  -3.195  24.323  0.00  0.00    +0.112 C 
ENDBRANCH   4   2
ENDBRANCH  10   7
ENDBRANCH  13  12
BRANCH  18  19
ATOM     19  C   UNL     1      -3.558   3.805  24.964  0.00  0.00    +0.027 C 
BRANCH  19  20
ATOM     20  C   UNL     1      -3.063   4.251  25.451  0.00  0.00    +0.088 C 
BRANCH  20  21
ATOM     21  C   UNL     1      -2.262   4.325  25.268  0.00  0.00    +0.242 C 
ATOM     22  O   UNL     1      -1.963   5.050  25.011  0.00  0.00    -0.273 OA
ATOM     23  N   UNL     1      -1.760   3.675  25.341  0.00  0.00    -0.200 NA
BRANCH  23  24
ATOM     24  C   UNL     1      -0.959   3.750  25.158  0.00  0.00    +0.143 C 
BRANCH  24  25
ATOM     25  C   UNL     1      -0.489   3.076  25.078  0.00  0.00    +0.019 A 
ATOM     26  C   UNL     1      -0.233   2.838  24.331  0.00  0.00    +0.096 A 
ATOM     27  N   UNL     1       0.237   2.164  24.252  0.00  0.00    -0.243 NA
ATOM     28  C   UNL     1       0.450   1.729  24.920  0.00  0.00    +0.099 A 
ATOM     29  C   UNL     1       0.193   1.968  25.666  0.00  0.00    +0.020 A 
ATOM     30  C   UNL     1      -0.276   2.641  25.746  0.00  0.00    +0.001 A 
ENDBRANCH  24  25
ENDBRANCH  23  24
ENDBRANCH  20  21
ENDBRANCH  19  20
ENDBRANCH  18  19
TORSDOF 8
ENDMDL
MODEL 2
REMARK VINA RESULT:     -10.4      1.405      3.828
REMARK  Name = 
REMARK  8 active torsions:
REMARK  status: ('A' for Active; 'I' for Inactive)
REMARK    1  A    between atoms: N_2  and  C_4
REMARK    2  A    between atoms: C_7  and  C_10
REMARK    3  A    between atoms: N_12  and  C_13
REMARK    4  A    between atoms: C_18  and  C_19
REMARK    5  A    between atoms: C_19  and  C_20
REMARK    6  A    between atoms: C_20  and  C_21
REMARK    7  A    between atoms: N_23  and  C_24
REMARK    8  A    between atoms: C_24  and  C_25
REMARK                            x       y       z     vdW  Elec       q    Type
REMARK                         _______ _______ _______ _____ _____    ______ ____
ROOT
ATOM     13  C   UNL     1      -1.207   0.880  25.018  0.00  0.00    +0.113 C 
ATOM     14  C   UNL     1      -0.460   1.032  24.701  0.00  0.00    +0.048 C 
ATOM     15  C   UNL     1      -0.284   1.827  24.833  0.00  0.00    +0.138 C 
ATOM     16  N   UNL     1      -0.922   2.167  25.232  0.00  0.00    -0.265 NA
ATOM     17  C   UNL     1      -1.492   1.581  25.345  0.00  0.00    +0.094 C 
ATOM     18  C   UNL     1      -0.901   2.965  25.439  0.00  0.00    +0.080 C 
ATOM     31  C   UNL     1      -0.243   3.424  25.248  0.00  0.00    +0.131 C 
ATOM     32  N   UNL     1       0.394   3.085  24.850  0.00  0.00    -0.203 NA
ATOM     33  C   UNL     1       0.374   2.286  24.642  0.00  0.00    +0.256 C 
ATOM     34  O   UNL     1       1.012   1.947  24.244  0.00  0.00    -0.272 OA
ENDROOT
BRANCH  13  12
ATOM     10  C   UNL     1      -2.208   0.021  24.468  0.00  0.00    +0.265 C 
ATOM     11  O   UNL     1      -2.426   0.614  23.938  0.00  0.00    -0.268 OA
ATOM     12  N   UNL     1      -1.598   0.154  25.008  0.00  0.00    -0.202 NA
BRANCH  10   7
ATOM      4  C   UNL     1      -3.381  -2.158  24.442  0.00  0.00    +0.048 A 
ATOM      5  C   UNL     1      -2.566  -2.130  24.564  0.00  0.00    +0.015 A 
ATOM      6  C   UNL     1      -2.175  -1.404  24.573  0.00  0.00    +0.006 A 
ATOM      7  C   UNL     1      -2.599  -0.706  24.459  0.00  0.00    +0.055 A 
ATOM      8  C   UNL     1      -3.414  -0.733  24.337  0.00  0.00    +0.006 A 
ATOM      9  C   UNL     1      -3.806  -1.459  24.328  0.00  0.00    +0.015 A 
BRANCH   4   2
ATOM      1  C   UNL     1      -3.594  -3.457  24.998  0.00  0.00    +0.112 C 
ATOM      2  N   UNL     1      -3.773  -2.884  24.433  0.00  0.00    -0.304 N 
ATOM      3  C   UNL     1      -4.345  -3.037  23.856  0.00  0.00    +0.112 C 
ENDBRANCH   4   2
ENDBRANCH  10   7
ENDBRANCH  13  12
BRANCH  18  19
ATOM     19  C   UNL     1      -1.539   3.304  25.837  0.00  0.00    +0.027 C 
BRANCH  19  20
ATOM     20  C   UNL     1      -1.968   3.915  25.484  0.00  0.00    +0.088 C 
BRANCH  20  21
ATOM     21  C   UNL     1      -2.742   4.069  25.727  0.00  0.00    +0.242 C 
ATOM     22  O   UNL     1      -2.884   4.610  26.332  0.00  0.00    -0.273 OA
ATOM     23  N   UNL     1      -3.373   3.682  25.363  0.00  0.00    -0.200 NA
BRANCH  23  24
ATOM     24  C   UNL     1      -4.146   3.837  25.605  0.00  0.00    +0.143 C 
BRANCH  24  25
ATOM     25  C   UNL     1      -4.737   3.274  25.481  0.00  0.00    +0.019 A 
ATOM     26  C   UNL     1      -5.256   3.081  26.092  0.00  0.00    +0.096 A 
ATOM     27  N   UNL     1      -5.848   2.518  25.968  0.00  0.00    -0.243 NA
ATOM     28  C   UNL     1      -5.919   2.149  25.234  0.00  0.00    +0.099 A 
ATOM     29  C   UNL     1      -5.399   2.343  24.623  0.00  0.00    +0.020 A 
ATOM     30  C   UNL     1      -4.808   2.905  24.747  0.00  0.00    +0.001 A 
ENDBRANCH  24  25
ENDBRANCH  23  24
ENDBRANCH  20  21
ENDBRANCH  19  20
ENDBRANCH  18  19
TORSDOF 8
ENDMDL
MODEL 3
REMARK VINA RESULT:     -10.2      1.666      4.630
REMARK  Name = 
REMARK  8 active torsions:
REMARK  status: ('A' for Active; 'I' for Inactive)
REMARK    1  A    between atoms: N_2  and  C_4
REMARK    2  A    between atoms: C_7  and  C_10
REMARK    3  A    between atoms: N_12  and  C_13
REMARK    4  A    between atoms: C_18  and  C_19
REMARK    5  A    between atoms: C_19  and  C_20
REMARK    6  A    between atoms: C_20  and  C_21
REMARK    7  A    between atoms: N_23  and  C_24
REMARK    8  A    between atoms: C_24  and  C_25
REMARK                            x       y       z     vdW  Elec       q    Type
REMARK                         _______ _______ _______ _____ _____    ______ ____
ROOT
ATOM     13  C   UNL     1      -1.397   2.609  24.326  0.00  0.00    +0.113 C 
ATOM     14  C   UNL     1      -1.335   3.292  24.787  0.00  0.00    +0.048 C 
ATOM     15  C   UNL     1      -2.086   3.476  25.072  0.00  0.00    +0.138 C 
ATOM     16  N   UNL     1      -2.613   2.908  24.788  0.00  0.00    -0.265 NA
ATOM     17  C   UNL     1      -2.187   2.372  24.327  0.00  0.00    +0.094 C 
ATOM     18  C   UNL     1      -3.413   2.952  24.986  0.00  0.00    +0.080 C 
ATOM     31  C   UNL     1      -3.686   3.564  25.468  0.00  0.00    +0.131 C 
ATOM     32  N   UNL     1      -3.159   4.131  25.751  0.00  0.00    -0.203 NA
ATOM     33  C   UNL     1      -2.359   4.088  25.553  0.00  0.00    +0.256 C 
ATOM     34  O   UNL     1      -1.833   4.656  25.837  0.00  0.00    -0.272 OA
ENDROOT
BRANCH  13  12
ATOM     10  C   UNL     1      -0.443   1.548  24.253  0.00  0.00    +0.265 C 
ATOM     11  O   UNL     1      -0.729   1.242  24.963  0.00  0.00    -0.268 OA
ATOM     12  N   UNL     1      -0.777   2.231  23.934  0.00  0.00    -0.202 NA
BRANCH  10   7
ATOM      4  C   UNL     1       1.417   0.417  23.074  0.00  0.00    +0.048 A 
ATOM      5  C   UNL     1       0.673   0.062  23.107  0.00  0.00    +0.015 A 
ATOM      6  C   UNL     1       0.053   0.439  23.500  0.00  0.00    +0.006 A 
ATOM      7  C   UNL     1       0.176   1.170  23.860  0.00  0.00    +0.055 A 
ATOM      8  C   UNL     1       0.920   1.526  23.827  0.00  0.00    +0.006 A 
ATOM      9  C   UNL     1       1.541   1.150  23.434  0.00  0.00    +0.015 A 
BRANCH   4   2
ATOM      1  C   UNL     1       2.798   0.059  22.999  0.00  0.00    +0.112 C 
ATOM      2  N   UNL     1       2.037   0.041  22.681  0.00  0.00    -0.304 N 
ATOM      3  C   UNL     1       1.896  -0.353  21.970  0.00  0.00    +0.112 C 
ENDBRANCH   4   2
ENDBRANCH  10   7
ENDBRANCH  13  12
BRANCH  18  19
ATOM     19  C   UNL     1      -3.939   2.384  24.702  0.00  0.00    +0.027 C 
BRANCH  19  20
ATOM     20  C   UNL     1      -4.376   1.925  25.232  0.00  0.00    +0.088 C 
BRANCH  20  21
ATOM     21  C   UNL     1      -4.722   1.220  24.979  0.00  0.00    +0.242 C 
ATOM     22  O   UNL     1      -5.484   1.224  24.667  0.00  0.00    -0.273 OA
ATOM     23  N   UNL     1      -4.304   0.511  25.039  0.00  0.00    -0.200 NA
BRANCH  23  24
ATOM     24  C   UNL     1      -4.650  -0.193  24.786  0.00  0.00    +0.143 C 
BRANCH  24  25
ATOM     25  C   UNL     1      -4.207  -0.890  24.775  0.00  0.00    +0.019 A 
ATOM     26  C   UNL     1      -3.755  -1.100  25.432  0.00  0.00    +0.096 A 
ATOM     27  N   UNL     1      -3.312  -1.797  25.421  0.00  0.00    -0.243 NA
ATOM     28  C   UNL     1      -3.321  -2.282  24.754  0.00  0.00    +0.099 A 
ATOM     29  C   UNL     1      -3.774  -2.070  24.097  0.00  0.00    +0.020 A 
ATOM     30  C   UNL     1      -4.216  -1.375  24.107  0.00  0.00    +0.001 A 
ENDBRANCH  24  25
ENDBRANCH  23  24
ENDBRANCH  20  21
ENDBRANCH  19  20
ENDBRANCH  18  19
TORSDOF 8
ENDMDL
MODEL 4
REMARK VINA RESULT:      -9.8      1.487      4.737
REMARK  Name = 
REMARK  8 active torsions:
REMARK  status: ('A' for Active; 'I' for Inactive)
REMARK    1  A    between atoms: N_2  and  C_4
REMARK    2  A    between atoms: C_7  and  C_10
REMARK    3  A    between atoms: N_12  and  C_13
REMARK    4  A    between atoms: C_18  and  C_19
REMARK    5  A    between atoms: C_19  and  C_20
REMARK    6  A    between atoms: C_20  and  C_21
REMARK    7  A    between atoms: N_23  and  C_24
REMARK    8  A    between atoms: C_24  and  C_25
REMARK                            x       y       z     vdW  Elec       q    Type
REMARK                         _______ _______ _______ _____ _____    ______ ____
ROOT
ATOM     13  C   UNL     1      -4.032  -0.458  24.849  0.00  0.00    +0.113 C 
ATOM     14  C   UNL     1      -4.431  -1.076  24.475  0.00  0.00    +0.048 C 
ATOM     15  C   UNL     1      -3.894  -1.692  24.358  0.00  0.00    +0.138 C 
ATOM     16  N   UNL     1      -3.164  -1.453  24.660  0.00  0.00    -0.265 NA
ATOM     17  C   UNL     1      -3.250  -0.691  24.963  0.00  0.00    +0.094 C 
ATOM     18  C   UNL     1      -2.516  -1.962  24.619  0.00  0.00    +0.080 C 
ATOM     31  C   UNL     1      -2.597  -2.708  24.277  0.00  0.00    +0.131 C 
ATOM     32  N   UNL     1      -3.327  -2.946  23.975  0.00  0.00    -0.203 NA
ATOM     33  C   UNL     1      -3.976  -2.438  24.016  0.00  0.00    +0.256 C 
ATOM     34  O   UNL     1      -4.706  -2.675  23.714  0.00  0.00    -0.272 OA
ENDROOT
BRANCH  13  12
ATOM     10  C   UNL     1      -4.213   0.941  24.619  0.00  0.00    +0.265 C 
ATOM     11  O   UNL     1      -3.739   0.892  23.946  0.00  0.00    -0.268 OA
ATOM     12  N   UNL     1      -4.360   0.266  25.070  0.00  0.00    -0.202 NA
BRANCH  10   7
ATOM      4  C   UNL     1      -5.198   3.112  25.284  0.00  0.00    +0.048 A 
ATOM      5  C   UNL     1      -5.675   2.442  25.233  0.00  0.00    +0.015 A 
ATOM      6  C   UNL     1      -5.347   1.718  25.012  0.00  0.00    +0.006 A 
ATOM      7  C   UNL     1      -4.542   1.665  24.840  0.00  0.00    +0.055 A 
ATOM      8  C   UNL     1      -4.064   2.336  24.891  0.00  0.00    +0.006 A 
ATOM      9  C   UNL     1      -4.392   3.059  25.113  0.00  0.00    +0.015 A 
BRANCH   4   2
ATOM      1  C   UNL     1      -5.068   4.523  25.475  0.00  0.00    +0.112 C 
ATOM      2  N   UNL     1      -5.525   3.836  25.506  0.00  0.00    -0.304 N 
ATOM      3  C   UNL     1      -6.310   3.874  25.759  0.00  0.00    +0.112 C 
ENDBRANCH   4   2
ENDBRANCH  10   7
ENDBRANCH  13  12
BRANCH  18  19
ATOM     19  C   UNL     1      -1.786  -1.724  24.921  0.00  0.00    +0.027 C 
BRANCH  19  20
ATOM     20  C   UNL     1      -1.163  -1.554  24.406  0.00  0.00    +0.088 C 
BRANCH  20  21
ATOM     21  C   UNL     1      -0.565  -1.034  24.639  0.00  0.00    +0.242 C 
ATOM     22  O   UNL     1       0.096  -1.320  25.040  0.00  0.00    -0.273 OA
ATOM     23  N   UNL     1      -0.630  -0.230  24.470  0.00  0.00    -0.200 NA
BRANCH  23  24
ATOM     24  C   UNL     1      -0.033   0.289  24.703  0.00  0.00    +0.143 C 
BRANCH  24  25
ATOM     25  C   UNL     1      -0.171   1.103  24.702  0.00  0.00    +0.019 A 
ATOM     26  C   UNL     1      -0.191   1.516  23.989  0.00  0.00    +0.096 A 
ATOM     27  N   UNL     1      -0.329   2.331  23.987  0.00  0.00    -0.243 NA
ATOM     28  C   UNL     1      -0.446   2.730  24.699  0.00  0.00    +0.099 A 
ATOM     29  C   UNL     1      -0.426   2.316  25.413  0.00  0.00    +0.020 A 
ATOM     30  C   UNL     1      -0.288   1.503  25.414  0.00  0.00    +0.001 A 
ENDBRANCH  24  25
ENDBRANCH  23  24
ENDBRANCH  20  21
ENDBRANCH  19  20
ENDBRANCH  18  19
TORSDOF 8
ENDMDL
MODEL 5
REMARK VINA RESULT:      -9.5      2.691      5.218
REMARK  Name = 
REMARK  8 active torsions:
REMARK  status: ('A' for Active; 'I' for Inactive)
REMARK    1  A    between atoms: N_2  and  C_4
REMARK    2  A    between atoms: C_7  and  C_10
REMARK    3  A    between atoms: N_12  and  C_13
REMARK    4  A    between atoms: C_18  and  C_19
REMARK    5  A    between atoms: C_19  and  C_20
REMARK    6  A    between atoms: C_20  and  C_21
REMARK    7  A    between atoms: N_23  and  C_24
REMARK    8  A    between atoms: C_24  and  C_25
REMARK                            x       y       z     vdW  Elec       q    Type
REMARK                         _______ _______ _______ _____ _____    ______ ____
ROOT
ATOM     13  C   UNL     1      -2.503  -0.004  24.990  0.00  0.00    +0.113 C 
ATOM     14  C   UNL     1      -2.653  -0.810  25.086  0.00  0.00    +0.048 C 
ATOM     15  C   UNL     1      -2.000  -1.226  24.800  0.00  0.00    +0.138 C 
ATOM     16  N   UNL     1      -1.447  -0.677  24.529  0.00  0.00    -0.265 NA
ATOM     17  C   UNL     1      -1.758   0.078  24.646  0.00  0.00    +0.094 C 
ATOM     18  C   UNL     1      -0.732  -0.937  24.210  0.00  0.00    +0.080 C 
ATOM     31  C   UNL     1      -0.570  -1.745  24.162  0.00  0.00    +0.131 C 
ATOM     32  N   UNL     1      -1.123  -2.293  24.433  0.00  0.00    -0.203 NA
ATOM     33  C   UNL     1      -1.839  -2.034  24.753  0.00  0.00    +0.256 C 
ATOM     34  O   UNL     1      -2.392  -2.582  25.024  0.00  0.00    -0.272 OA
ENDROOT
BRANCH  13  12
ATOM     10  C   UNL     1      -3.524   0.934  24.644  0.00  0.00    +0.265 C 
ATOM     11  O   UNL     1      -3.532   0.641  23.874  0.00  0.00    -0.268 OA
ATOM     12  N   UNL     1      -3.009   0.611  25.203  0.00  0.00    -0.202 NA
BRANCH  10   7
ATOM      4  C   UNL     1      -5.044   2.779  25.285  0.00  0.00    +0.048 A 
ATOM      5  C   UNL     1      -4.274   2.946  25.040  0.00  0.00    +0.015 A 
ATOM      6  C   UNL     1      -3.767   2.330  24.827  0.00  0.00    +0.006 A 
ATOM      7  C   UNL     1      -4.030   1.549  24.858  0.00  0.00    +0.055 A 
ATOM      8  C   UNL     1      -4.800   1.383  25.102  0.00  0.00    +0.006 A 
ATOM      9  C   UNL     1      -5.308   1.997  25.316  0.00  0.00    +0.015 A 
BRANCH   4   2
ATOM      1  C   UNL     1      -6.291   3.225  25.821  0.00  0.00    +0.112 C 
ATOM      2  N   UNL     1      -5.551   3.394  25.498  0.00  0.00    -0.304 N 
ATOM      3  C   UNL     1      -5.317   4.178  25.389  0.00  0.00    +0.112 C 
ENDBRANCH   4   2
ENDBRANCH  10   7
ENDBRANCH  13  12
BRANCH  18  19
ATOM     19  C   UNL     1      -0.179  -0.388  23.938  0.00  0.00    +0.027 C 
BRANCH  19  20
ATOM     20  C   UNL     1       0.486  -0.645  23.521  0.00  0.00    +0.088 C 
BRANCH  20  21
ATOM     21  C   UNL     1       0.967  -0.097  23.134  0.00  0.00    +0.242 C 
ATOM     22  O   UNL     1       0.630   0.557  22.762  0.00  0.00    -0.273 OA
ATOM     23  N   UNL     1       1.785  -0.204  23.120  0.00  0.00    -0.200 NA
BRANCH  23  24
ATOM     24  C   UNL     1       2.265   0.344  22.734  0.00  0.00    +0.143 C 
BRANCH  24  25
ATOM     25  C   UNL     1       3.083   0.322  22.839  0.00  0.00    +0.019 A 
ATOM     26  C   UNL     1       3.449  -0.378  23.079  0.00  0.00    +0.096 A 
ATOM     27  N   UNL     1       4.267  -0.400  23.184  0.00  0.00    -0.243 NA
ATOM     28  C   UNL     1       4.719   0.277  23.051  0.00  0.00    +0.099 A 
ATOM     29  C   UNL     1       4.352   0.977  22.812  0.00  0.00    +0.020 A 
ATOM     30  C   UNL     1       3.535   0.999  22.706  0.00  0.00    +0.001 A 
ENDBRANCH  24  25
ENDBRANCH  23  24
ENDBRANCH  20  21
ENDBRANCH  19  20
ENDBRANCH  18  19
TORSDOF 8
ENDMDL
MODEL 6
REMARK VINA RESULT:      -9.1      1.600      5.632
REMARK  Name = 
REMARK  8 active torsions:
REMARK  status: ('A' for Active; 'I' for Inactive)
REMARK    1  A    between atoms: N_2  and  C_4
REMARK    2  A    between atoms: C_7  and  C_10
REMARK    3  A    between atoms: N_12  and  C_13
REMARK    4  A    between atoms: C_18  and  C_19
REMARK    5  A    between atoms: C_19  and  C_20
REMARK    6  A    between atoms: C_20  and  C_21
REMARK    7  A    between atoms: N_23  and  C_24
REMARK    8  A    between atoms: C_24  and  C_25
REMARK                            x       y       z     vdW  Elec       q    Type
REMARK                         _______ _______ _______ _____ _____    ______ ____
ROOT
ATOM     13  C   UNL     1      -1.615   2.024  24.935  0.00  0.00    +0.113 C 
ATOM     14  C   UNL     1      -0.992   2.397  24.542  0.00  0.00    +0.048 C 
ATOM     15  C   UNL     1      -0.399   1.837  24.418  0.00  0.00    +0.138 C 
ATOM     16  N   UNL     1      -0.655   1.119  24.734  0.00  0.00    -0.265 NA
ATOM     17  C   UNL     1      -1.407   1.235  25.054  0.00  0.00    +0.094 C 
ATOM     18  C   UNL     1      -0.170   0.453  24.690  0.00  0.00    +0.080 C 
ATOM     31  C   UNL     1       0.570   0.505  24.330  0.00  0.00    +0.131 C 
ATOM     32  N   UNL     1       0.826   1.222  24.014  0.00  0.00    -0.203 NA
ATOM     33  C   UNL     1       0.342   1.889  24.058  0.00  0.00    +0.256 C 
ATOM     34  O   UNL     1       0.597   2.606  23.742  0.00  0.00    -0.272 OA
ENDROOT
BRANCH  13  12
ATOM     10  C   UNL     1      -2.984   2.343  24.677  0.00  0.00    +0.265 C 
ATOM     11  O   UNL     1      -2.940   1.951  23.954  0.00  0.00    -0.268 OA
ATOM     12  N   UNL     1      -2.322   2.380  25.168  0.00  0.00    -0.202 NA
BRANCH  10   7
ATOM      4  C   UNL     1      -5.105   3.410  25.379  0.00  0.00    +0.048 A 
ATOM      5  C   UNL     1      -4.385   3.783  25.532  0.00  0.00    +0.015 A 
ATOM      6  C   UNL     1      -3.678   3.427  25.298  0.00  0.00    +0.006 A 
ATOM      7  C   UNL     1      -3.691   2.699  24.911  0.00  0.00    +0.055 A 
ATOM      8  C   UNL     1      -4.411   2.326  24.759  0.00  0.00    +0.006 A 
ATOM      9  C   UNL     1      -5.118   2.681  24.992  0.00  0.00    +0.015 A 
BRANCH   4   2
ATOM      1  C   UNL     1      -6.408   3.310  25.956  0.00  0.00    +0.112 C 
ATOM      2  N   UNL     1      -5.812   3.765  25.613  0.00  0.00    -0.304 N 
ATOM      3  C   UNL     1      -5.922   4.576  25.503  0.00  0.00    +0.112 C 
ENDBRANCH   4   2
ENDBRANCH  10   7
ENDBRANCH  13  12
BRANCH  18  19
ATOM     19  C   UNL     1      -0.427  -0.264  25.006  0.00  0.00    +0.027 C 
BRANCH  19  20
ATOM     20  C   UNL     1      -0.489  -0.930  24.521  0.00  0.00    +0.088 C 
BRANCH  20  21
ATOM     21  C   UNL     1      -0.981  -1.555  24.740  0.00  0.00    +0.242 C 
ATOM     22  O   UNL     1      -0.706  -2.135  25.257  0.00  0.00    -0.273 OA
ATOM     23  N   UNL     1      -1.749  -1.599  24.441  0.00  0.00    -0.200 NA
BRANCH  23  24
ATOM     24  C   UNL     1      -2.240  -2.224  24.660  0.00  0.00    +0.143 C 
BRANCH  24  25
ATOM     25  C   UNL     1      -3.022  -2.246  24.396  0.00  0.00    +0.019 A 
ATOM     26  C   UNL     1      -3.366  -2.965  24.185  0.00  0.00    +0.096 A 
ATOM     27  N   UNL     1      -4.148  -2.987  23.922  0.00  0.00    -0.243 NA
ATOM     28  C   UNL     1      -4.585  -2.289  23.869  0.00  0.00    +0.099 A 
ATOM     29  C   UNL     1      -4.240  -1.570  24.080  0.00  0.00    +0.020 A 
ATOM     30  C   UNL     1      -3.459  -1.548  24.344  0.00  0.00    +0.001 A 
ENDBRANCH  24  25
ENDBRANCH  23  24
ENDBRANCH  20  21
ENDBRANCH  19  20
ENDBRANCH  18  19
TORSDOF 8
ENDMDL
MODEL 7
REMARK VINA RESULT:      -9.0      1.742      5.916
REMARK  Name = 
REMARK  8 active torsions:
REMARK  status: ('A' for Active; 'I' for Inactive)
REMARK    1  A    between atoms: N_2  and  C_4
REMARK    2  A    between atoms: C_7  and  C_10
REMARK    3  A    between atoms: N_12  and  C_13
REMARK    4  A    between atoms: C_18  and  C_19
REMARK    5  A    between atoms: C_19  and  C_20
REMARK    6  A    between atoms: C_20  and  C_21
REMARK    7  A    between atoms: N_23  and  C_24
REMARK    8  A    between atoms: C_24  and  C_25
REMARK                            x       y       z     vdW  Elec       q    Type
REMARK                         _______ _______ _______ _____ _____    ______ ____
ROOT
ATOM     13  C   UNL     1      -1.166   0.489  24.645  0.00  0.00    +0.113 C 
ATOM     14  C   UNL     1      -0.614  -0.065  24.908  0.00  0.00    +0.048 C 
ATOM     15  C   UNL     1      -0.969  -0.809  24.886  0.00  0.00    +0.138 C 
ATOM     16  N   UNL     1      -1.741  -0.715  24.609  0.00  0.00    -0.265 NA
ATOM     17  C   UNL     1      -1.862   0.088  24.461  0.00  0.00    +0.094 C 
ATOM     18  C   UNL     1      -2.233  -1.372  24.529  0.00  0.00    +0.080 C 
ATOM     31  C   UNL     1      -1.953  -2.123  24.724  0.00  0.00    +0.131 C 
ATOM     32  N   UNL     1      -1.182  -2.217  25.001  0.00  0.00    -0.203 NA
ATOM     33  C   UNL     1      -0.690  -1.560  25.082  0.00  0.00    +0.256 C 
ATOM     34  O   UNL     1       0.081  -1.654  25.358  0.00  0.00    -0.272 OA
ENDROOT
BRANCH  13  12
ATOM     10  C   UNL     1      -1.356   1.815  25.145  0.00  0.00    +0.265 C 
ATOM     11  O   UNL     1      -1.792   1.515  25.777  0.00  0.00    -0.268 OA
ATOM     12  N   UNL     1      -1.043   1.302  24.579  0.00  0.00    -0.202 NA
BRANCH  10   7
ATOM      4  C   UNL     1      -0.984   4.254  24.944  0.00  0.00    +0.048 A 
ATOM      5  C   UNL     1      -0.643   3.738  24.398  0.00  0.00    +0.015 A 
ATOM      6  C   UNL     1      -0.767   2.925  24.465  0.00  0.00    +0.006 A 
ATOM      7  C   UNL     1      -1.232   2.628  25.078  0.00  0.00    +0.055 A 
ATOM      8  C   UNL     1      -1.573   3.143  25.624  0.00  0.00    +0.006 A 
ATOM      9  C   UNL     1      -1.449   3.956  25.558  0.00  0.00    +0.015 A 
BRANCH   4   2
ATOM      1  C   UNL     1      -0.136   5.354  24.609  0.00  0.00    +0.112 C 
ATOM      2  N   UNL     1      -0.861   5.067  24.878  0.00  0.00    -0.304 N 
ATOM      3  C   UNL     1      -1.464   5.593  25.081  0.00  0.00    +0.112 C 
ENDBRANCH   4   2
ENDBRANCH  10   7
ENDBRANCH  13  12
BRANCH  18  19
ATOM     19  C   UNL     1      -3.004  -1.278  24.252  0.00  0.00    +0.027 C 
BRANCH  19  20
ATOM     20  C   UNL     1      -3.633  -1.254  24.786  0.00  0.00    +0.088 C 
BRANCH  20  21
ATOM     21  C   UNL     1      -4.326  -0.851  24.589  0.00  0.00    +0.242 C 
ATOM     22  O   UNL     1      -4.857  -1.180  24.051  0.00  0.00    -0.273 OA
ATOM     23  N   UNL     1      -4.488  -0.118  24.932  0.00  0.00    -0.200 NA
BRANCH  23  24
ATOM     24  C   UNL     1      -5.180   0.285  24.735  0.00  0.00    +0.143 C 
BRANCH  24  25
ATOM     25  C   UNL     1      -5.288   1.065  24.983  0.00  0.00    +0.019 A 
ATOM     26  C   UNL     1      -5.700   1.223  25.680  0.00  0.00    +0.096 A 
ATOM     27  N   UNL     1      -5.807   2.003  25.928  0.00  0.00    -0.243 NA
ATOM     28  C   UNL     1      -5.503   2.624  25.478  0.00  0.00    +0.099 A 
ATOM     29  C   UNL     1      -5.091   2.465  24.781  0.00  0.00    +0.020 A 
ATOM     30  C   UNL     1      -4.983   1.686  24.533  0.00  0.00    +0.001 A 
ENDBRANCH  24  25
ENDBRANCH  23  24
ENDBRANCH  20  21
ENDBRANCH  19  20
ENDBRANCH  18  19
TORSDOF 8
ENDMDL
MODEL 8
REMARK VINA RESULT:      -8.9      1.844      3.947
REMARK  Name = 
REMARK  8 active torsions:
REMARK  status: ('A' for Active; 'I' for Inactive)
REMARK    1  A    between atoms: N_2  and  C_4
REMARK    2  A    between atoms: C_7  and  C_10
REMARK    3  A    between atoms: N_12  and  C_13
REMARK    4  A    between atoms: C_18  and  C_19
REMARK    5  A    between atoms: C_19  and  C_20
REMARK    6  A    between atoms: C_20  and  C_21
REMARK    7  A    between atoms: N_23  and  C_24
REMARK    8  A    between atoms: C_24  and  C_25
REMARK                            x       y       z     vdW  Elec       q    Type
REMARK                         _______ _______ _______ _____ _____    ______ ____
ROOT
ATOM     13  C   UNL     1      -2.223   0.253  24.104  0.00  0.00    +0.113 C 
ATOM     14  C   UNL     1      -2.632  -0.394  24.414  0.00  0.00    +0.048 C 
ATOM     15  C   UNL     1      -3.345  -0.119  24.726  0.00  0.00    +0.138 C 
ATOM     16  N   UNL     1      -3.376   0.698  24.609  0.00  0.00    -0.265 NA
ATOM     17  C   UNL     1      -2.682   0.927  24.225  0.00  0.00    +0.094 C 
ATOM     18  C   UNL     1      -4.031   1.127  24.868  0.00  0.00    +0.080 C 
ATOM     31  C   UNL     1      -4.656   0.740  25.243  0.00  0.00    +0.131 C 
ATOM     32  N   UNL     1      -4.625  -0.076  25.359  0.00  0.00    -0.203 NA
ATOM     33  C   UNL     1      -3.969  -0.506  25.101  0.00  0.00    +0.256 C 
ATOM     34  O   UNL     1      -3.938  -1.321  25.217  0.00  0.00    -0.272 OA
ENDROOT
BRANCH  13  12
ATOM     10  C   UNL     1      -0.800   0.367  24.179  0.00  0.00    +0.265 C 
ATOM     11  O   UNL     1      -0.856   0.531  24.985  0.00  0.00    -0.268 OA
ATOM     12  N   UNL     1      -1.484   0.228  23.739  0.00  0.00    -0.202 NA
BRANCH  10   7
ATOM      4  C   UNL     1       1.416   0.292  23.079  0.00  0.00    +0.048 A 
ATOM      5  C   UNL     1       0.912  -0.360  23.036  0.00  0.00    +0.015 A 
ATOM      6  C   UNL     1       0.173  -0.334  23.403  0.00  0.00    +0.006 A 
ATOM      7  C   UNL     1      -0.062   0.342  23.812  0.00  0.00    +0.055 A 
ATOM      8  C   UNL     1       0.442   0.994  23.855  0.00  0.00    +0.006 A 
ATOM      9  C   UNL     1       1.181   0.970  23.488  0.00  0.00    +0.015 A 
BRANCH   4   2
ATOM      1  C   UNL     1       2.786   0.695  23.028  0.00  0.00    +0.112 C 
ATOM      2  N   UNL     1       2.154   0.269  22.712  0.00  0.00    -0.304 N 
ATOM      3  C   UNL     1       2.261  -0.183  22.029  0.00  0.00    +0.112 C 
ENDBRANCH   4   2
ENDBRANCH  10   7
ENDBRANCH  13  12
BRANCH  18  19
ATOM     19  C   UNL     1      -4.061   1.943  24.751  0.00  0.00    +0.027 C 
BRANCH  19  20
ATOM     20  C   UNL     1      -4.235   2.443  25.384  0.00  0.00    +0.088 C 
BRANCH  20  21
ATOM     21  C   UNL     1      -4.001   3.235  25.360  0.00  0.00    +0.242 C 
ATOM     22  O   UNL     1      -4.554   3.824  25.199  0.00  0.00    -0.273 OA
ATOM     23  N   UNL     1      -3.213   3.435  25.499  0.00  0.00    -0.200 NA
BRANCH  23  24
ATOM     24  C   UNL     1      -2.979   4.226  25.475  0.00  0.00    +0.143 C 
BRANCH  24  25
ATOM     25  C   UNL     1      -2.188   4.418  25.339  0.00  0.00    +0.019 A 
ATOM     26  C   UNL     1      -1.596   3.869  25.508  0.00  0.00    +0.096 A 
ATOM     27  N   UNL     1      -0.805   4.061  25.373  0.00  0.00    -0.243 NA
ATOM     28  C   UNL     1      -0.606   4.801  25.069  0.00  0.00    +0.099 A 
ATOM     29  C   UNL     1      -1.199   5.350  24.900  0.00  0.00    +0.020 A 
ATOM     30  C   UNL     1      -1.989   5.159  25.035  0.00  0.00    +0.001 A 
ENDBRANCH  24  25
ENDBRANCH  23  24
ENDBRANCH  20  21
ENDBRANCH  19  20
ENDBRANCH  18  19
TORSDOF 8
ENDMDL
