MODEL 1
REMARK VINA RESULT:      -9.3      0.000      0.000
REMARK  Name = 
REMARK  7 active torsions:
REMARK  status: ('A' for Active; 'I' for Inactive)
REMARK    1  A    between atoms: C_2  and  C_4
REMARK    2  A    between atoms: C_6  and  C_7
REMARK    3  A    between atoms: C_7  and  C_8
REMARK    4  A    between atoms: C_19  and  C_20
REMARK    5  A    between atoms: C_20  and  N_21
REMARK    6  A    between atoms: N_21  and  S_22
REMARK    7  A    between atoms: S_22  and  C_25
REMARK                            x       y       z     vdW  Elec       q    Type
REMARK                         _______ _______ _______ _____ _____    ______ ____
ROOT
ATOM      4  C   UNL     1      -2.315   0.582  24.794  0.00  0.00    +0.006 C 
ATOM      5  C   UNL     1      -2.768  -0.104  24.745  0.00  0.00    +0.005 C 
ATOM      6  C   UNL     1      -3.586  -0.066  24.843  0.00  0.00    +0.027 C 
ATOM     16  C   UNL     1      -3.951   0.659  24.990  0.00  0.00    -0.048 C 
ATOM     17  C   UNL     1      -4.769   0.697  25.088  0.00  0.00    +0.026 C 
ATOM     18  C   UNL     1      -3.497   1.345  25.040  0.00  0.00    -0.033 C 
ATOM     19  C   UNL     1      -2.679   1.307  24.942  0.00  0.00    +0.041 C 
ENDROOT
BRANCH   4   2
ATOM      1  C   UNL     1      -1.006   0.454  25.353  0.00  0.00    +0.000 C 
ATOM      2  C   UNL     1      -1.496   0.544  24.696  0.00  0.00    +0.000 C 
ATOM      3  C   UNL     1      -1.168   0.597  23.942  0.00  0.00    +0.000 C 
ENDBRANCH   4   2
BRANCH   6   7
ATOM      7  C   UNL     1      -4.041  -0.754  24.793  0.00  0.00    +0.089 C 
BRANCH   7   8
ATOM      8  C   UNL     1      -3.770  -1.453  25.138  0.00  0.00    +0.226 C 
ATOM      9  O   UNL     1      -3.473  -1.445  25.908  0.00  0.00    -0.275 OA
ATOM     10  N   UNL     1      -3.797  -2.160  24.714  0.00  0.00    -0.274 N 
ATOM     11  C   UNL     1      -4.095  -2.167  23.944  0.00  0.00    +0.125 C 
ATOM     12  C   UNL     1      -4.122  -2.875  23.520  0.00  0.00    +0.164 C 
ATOM     13  O   UNL     1      -3.852  -3.573  23.865  0.00  0.00    -0.350 OA
ATOM     14  C   UNL     1      -3.554  -3.565  24.634  0.00  0.00    +0.164 C 
ATOM     15  C   UNL     1      -3.527  -2.859  25.059  0.00  0.00    +0.125 C 
ENDBRANCH   7   8
ENDBRANCH   6   7
BRANCH  19  20
ATOM     20  C   UNL     1      -2.225   1.995  24.991  0.00  0.00    +0.120 C 
BRANCH  20  21
ATOM     21  N   UNL     1      -2.570   2.701  25.243  0.00  0.00    -0.077 NA
BRANCH  21  22
ATOM     22  S   UNL     1      -2.162   3.412  25.161  0.00  0.00    +0.077 S 
ATOM     23  O   UNL     1      -1.852   3.321  25.920  0.00  0.00    -0.152 OA
ATOM     24  O   UNL     1      -2.473   3.503  24.403  0.00  0.00    -0.152 OA
BRANCH  22  25
ATOM     25  C   UNL     1      -1.754   4.124  25.079  0.00  0.00    +0.124 A 
ATOM     26  C   UNL     1      -2.137   4.840  25.226  0.00  0.00    +0.021 A 
ATOM     27  C   UNL     1      -1.729   5.551  25.144  0.00  0.00    +0.013 A 
ATOM     28  C   UNL     1      -0.936   5.548  24.915  0.00  0.00    +0.058 A 
ATOM     29 CL   UNL     1      -0.527   6.260  24.833  0.00  0.00    -0.082 Cl
ATOM     30  C   UNL     1      -0.552   4.833  24.768  0.00  0.00    +0.013 A 
ATOM     31  C   UNL     1      -0.960   4.121  24.849  0.00  0.00    +0.021 A 
ENDBRANCH  22  25
ENDBRANCH  21  22
ENDBRANCH  20  21
ENDBRANCH  19  20
TORSDOF 7
ENDMDL
MODEL 2
REMARK VINA RESULT:      -9.0      2.399      6.171
REMARK  Name = 
REMARK  7 active torsions:
REMARK  status: ('A' for Active; 'I' for Inactive)
REMARK    1  A    between atoms: C_2  and  C_4
REMARK    2  A    between atoms: C_6  and  C_7
REMARK    3  A    between atoms: C_7  and  C_8
REMARK    4  A    between atoms: C_19  and  C_20
REMARK    5  A    between atoms: C_20  and  N_21
REMARK    6  A    between atoms: N_21  and  S_22
REMARK    7  A    between atoms: S_22  and  C_25
REMARK                            x       y       z     vdW  Elec       q    Type
REMARK                         _______ _______ _______ _____ _____    ______ ____
ROOT
ATOM      4  C   UNL     1      -2.678   1.841  24.545  0.00  0.00    +0.006 C 
ATOM      5  C   UNL     1      -2.284   2.538  24.741  0.00  0.00    +0.005 C 
ATOM      6  C   UNL     1      -1.625   2.513  25.237  0.00  0.00    +0.027 C 
ATOM     16  C   UNL     1      -1.359   1.791  25.536  0.00  0.00    -0.048 C 
ATOM     17  C   UNL     1      -0.700   1.767  26.031  0.00  0.00    +0.026 C 
ATOM     18  C   UNL     1      -1.754   1.094  25.339  0.00  0.00    -0.033 C 
ATOM     19  C   UNL     1      -2.413   1.119  24.843  0.00  0.00    +0.041 C 
ENDROOT
BRANCH   4   2
ATOM      1  C   UNL     1      -3.240   1.826  23.231  0.00  0.00    +0.000 C 
ATOM      2  C   UNL     1      -3.337   1.865  24.049  0.00  0.00    +0.000 C 
ATOM      3  C   UNL     1      -4.093   1.930  24.371  0.00  0.00    +0.000 C 
ENDBRANCH   4   2
BRANCH   6   7
ATOM      7  C   UNL     1      -1.230   3.211  25.434  0.00  0.00    +0.089 C 
BRANCH   7   8
ATOM      8  C   UNL     1      -1.658   3.901  25.577  0.00  0.00    +0.226 C 
ATOM      9  O   UNL     1      -2.340   3.875  26.042  0.00  0.00    -0.275 OA
ATOM     10  N   UNL     1      -1.406   4.618  25.257  0.00  0.00    -0.274 N 
ATOM     11  C   UNL     1      -0.724   4.644  24.792  0.00  0.00    +0.125 C 
ATOM     12  C   UNL     1      -0.472   5.361  24.471  0.00  0.00    +0.164 C 
ATOM     13  O   UNL     1      -0.900   6.051  24.614  0.00  0.00    -0.350 OA
ATOM     14  C   UNL     1      -1.581   6.025  25.078  0.00  0.00    +0.164 C 
ATOM     15  C   UNL     1      -1.835   5.308  25.400  0.00  0.00    +0.125 C 
ENDBRANCH   7   8
ENDBRANCH   6   7
BRANCH  19  20
ATOM     20  C   UNL     1      -2.807   0.421  24.647  0.00  0.00    +0.120 C 
BRANCH  20  21
ATOM     21  N   UNL     1      -2.620  -0.283  25.034  0.00  0.00    -0.077 NA
BRANCH  21  22
ATOM     22  S   UNL     1      -2.965  -0.992  24.792  0.00  0.00    +0.077 S 
ATOM     23  O   UNL     1      -3.567  -0.886  25.346  0.00  0.00    -0.152 OA
ATOM     24  O   UNL     1      -2.363  -1.096  24.238  0.00  0.00    -0.152 OA
BRANCH  22  25
ATOM     25  C   UNL     1      -3.310  -1.700  24.550  0.00  0.00    +0.124 A 
ATOM     26  C   UNL     1      -3.011  -2.420  24.823  0.00  0.00    +0.021 A 
ATOM     27  C   UNL     1      -3.356  -3.128  24.581  0.00  0.00    +0.013 A 
ATOM     28  C   UNL     1      -4.002  -3.118  24.066  0.00  0.00    +0.058 A 
ATOM     29 CL   UNL     1      -4.347  -3.828  23.825  0.00  0.00    -0.082 Cl
ATOM     30  C   UNL     1      -4.301  -2.400  23.794  0.00  0.00    +0.013 A 
ATOM     31  C   UNL     1      -3.956  -1.690  24.035  0.00  0.00    +0.021 A 
ENDBRANCH  22  25
ENDBRANCH  21  22
ENDBRANCH  20  21
ENDBRANCH  19  20
TORSDOF 7
ENDMDL
MODEL 3
REMARK VINA RESULT:      -8.4      2.903      4.686
REMARK  Name = 
REMARK  7 active torsions:
REMARK  status: ('A' for Active; 'I' for Inactive)
REMARK    1  A    between atoms: C_2  and  C_4
REMARK    2  A    between atoms: C_6  and  C_7
REMARK    3  A    between atoms: C_7  and  C_8
REMARK    4  A    between atoms: C_19  and  C_20
REMARK    5  A    between atoms: C_20  and  N_21
REMARK    6  A    between atoms: N_21  and  S_22
REMARK    7  A    between atoms: S_22  and  C_25
REMARK                            x       y       z     vdW  Elec       q    Type
REMARK                         _______ _______ _______ _____ _____    ______ ____
ROOT
ATOM      4  C   UNL     1      -1.682   1.940  24.808  0.00  0.00    +0.006 C 
ATOM      5  C   UNL     1      -2.480   2.103  24.939  0.00  0.00    +0.005 C 
ATOM      6  C   UNL     1      -3.059   1.646  24.570  0.00  0.00    +0.027 C 
ATOM     16  C   UNL     1      -2.842   1.026  24.072  0.00  0.00    -0.048 C 
ATOM     17  C   UNL     1      -3.422   0.569  23.704  0.00  0.00    +0.026 C 
ATOM     18  C   UNL     1      -2.044   0.864  23.941  0.00  0.00    -0.033 C 
ATOM     19  C   UNL     1      -1.464   1.321  24.309  0.00  0.00    +0.041 C 
ENDROOT
BRANCH   4   2
ATOM      1  C   UNL     1      -0.808   2.175  25.914  0.00  0.00    +0.000 C 
ATOM      2  C   UNL     1      -1.102   2.397  25.176  0.00  0.00    +0.000 C 
ATOM      3  C   UNL     1      -0.816   3.077  24.806  0.00  0.00    +0.000 C 
ENDBRANCH   4   2
BRANCH   6   7
ATOM      7  C   UNL     1      -3.858   1.809  24.701  0.00  0.00    +0.089 C 
BRANCH   7   8
ATOM      8  C   UNL     1      -4.136   2.583  24.645  0.00  0.00    +0.226 C 
ATOM      9  O   UNL     1      -3.784   3.111  24.116  0.00  0.00    -0.275 OA
ATOM     10  N   UNL     1      -4.766   2.832  25.116  0.00  0.00    -0.274 N 
ATOM     11  C   UNL     1      -5.119   2.304  25.644  0.00  0.00    +0.125 C 
ATOM     12  C   UNL     1      -5.749   2.552  26.115  0.00  0.00    +0.164 C 
ATOM     13  O   UNL     1      -6.027   3.327  26.058  0.00  0.00    -0.350 OA
ATOM     14  C   UNL     1      -5.675   3.853  25.531  0.00  0.00    +0.164 C 
ATOM     15  C   UNL     1      -5.044   3.606  25.059  0.00  0.00    +0.125 C 
ENDBRANCH   7   8
ENDBRANCH   6   7
BRANCH  19  20
ATOM     20  C   UNL     1      -0.666   1.157  24.178  0.00  0.00    +0.120 C 
BRANCH  20  21
ATOM     21  N   UNL     1      -0.446   0.502  23.728  0.00  0.00    -0.077 NA
BRANCH  21  22
ATOM     22  S   UNL     1       0.327   0.431  23.450  0.00  0.00    +0.077 S 
ATOM     23  O   UNL     1       0.514  -0.048  24.094  0.00  0.00    -0.152 OA
ATOM     24  O   UNL     1       0.139   0.911  22.806  0.00  0.00    -0.152 OA
BRANCH  22  25
ATOM     25  C   UNL     1       1.100   0.361  23.172  0.00  0.00    +0.124 A 
ATOM     26  C   UNL     1       1.693   0.848  23.475  0.00  0.00    +0.021 A 
ATOM     27  C   UNL     1       2.466   0.778  23.197  0.00  0.00    +0.013 A 
ATOM     28  C   UNL     1       2.647   0.220  22.615  0.00  0.00    +0.058 A 
ATOM     29 CL   UNL     1       3.421   0.150  22.338  0.00  0.00    -0.082 Cl
ATOM     30  C   UNL     1       2.054  -0.267  22.313  0.00  0.00    +0.013 A 
ATOM     31  C   UNL     1       1.280  -0.197  22.591  0.00  0.00    +0.021 A 
ENDBRANCH  22  25
ENDBRANCH  21  22
ENDBRANCH  20  21
ENDBRANCH  19  20
TORSDOF 7
ENDMDL
MODEL 4
REMARK VINA RESULT:      -8.0      3.007      4.838
REMARK  Name = 
REMARK  7 active torsions:
REMARK  status: ('A' for Active; 'I' for Inactive)
REMARK    1  A    between atoms: C_2  and  C_4
REMARK    2  A    between atoms: C_6  and  C_7
REMARK    3  A    between atoms: C_7  and  C_8
REMARK    4  A    between atoms: C_19  and  C_20
REMARK    5  A    between atoms: C_20  and  N_21
REMARK    6  A    between atoms: N_21  and  S_22
REMARK    7  A    between atoms: S_22  and  C_25
REMARK                            x       y       z     vdW  Elec       q    Type
REMARK                         _______ _______ _______ _____ _____    ______ ____
ROOT
ATOM      4  C   UNL     1      -1.082   0.391  24.594  0.00  0.00    +0.006 C 
ATOM      5  C   UNL     1      -0.291   0.335  24.368  0.00  0.00    +0.005 C 
ATOM      6  C   UNL     1       0.093   0.990  24.047  0.00  0.00    +0.027 C 
ATOM     16  C   UNL     1      -0.312   1.702  23.953  0.00  0.00    -0.048 C 
ATOM     17  C   UNL     1       0.072   2.358  23.632  0.00  0.00    +0.026 C 
ATOM     18  C   UNL     1      -1.104   1.758  24.179  0.00  0.00    -0.033 C 
ATOM     19  C   UNL     1      -1.489   1.102  24.500  0.00  0.00    +0.041 C 
ENDROOT
BRANCH   4   2
ATOM      1  C   UNL     1      -1.450  -0.396  25.729  0.00  0.00    +0.000 C 
ATOM      2  C   UNL     1      -1.467  -0.264  24.915  0.00  0.00    +0.000 C 
ATOM      3  C   UNL     1      -1.870  -0.789  24.422  0.00  0.00    +0.000 C 
ENDBRANCH   4   2
BRANCH   6   7
ATOM      7  C   UNL     1       0.885   0.934  23.821  0.00  0.00    +0.089 C 
BRANCH   7   8
ATOM      8  C   UNL     1       1.105   0.424  23.211  0.00  0.00    +0.226 C 
ATOM      9  O   UNL     1       0.545  -0.078  22.870  0.00  0.00    -0.275 OA
ATOM     10  N   UNL     1       1.884   0.415  22.940  0.00  0.00    -0.274 N 
ATOM     11  C   UNL     1       2.444   0.917  23.281  0.00  0.00    +0.125 C 
ATOM     12  C   UNL     1       3.224   0.908  23.010  0.00  0.00    +0.164 C 
ATOM     13  O   UNL     1       3.443   0.398  22.400  0.00  0.00    -0.350 OA
ATOM     14  C   UNL     1       2.884  -0.103  22.060  0.00  0.00    +0.164 C 
ATOM     15  C   UNL     1       2.104  -0.095  22.330  0.00  0.00    +0.125 C 
ENDBRANCH   7   8
ENDBRANCH   6   7
BRANCH  19  20
ATOM     20  C   UNL     1      -2.280   1.159  24.726  0.00  0.00    +0.120 C 
BRANCH  20  21
ATOM     21  N   UNL     1      -2.719   1.830  24.532  0.00  0.00    -0.077 NA
BRANCH  21  22
ATOM     22  S   UNL     1      -3.516   1.876  24.736  0.00  0.00    +0.077 S 
ATOM     23  O   UNL     1      -3.308   2.154  25.484  0.00  0.00    -0.152 OA
ATOM     24  O   UNL     1      -3.724   1.598  23.988  0.00  0.00    -0.152 OA
BRANCH  22  25
ATOM     25  C   UNL     1      -4.314   1.922  24.940  0.00  0.00    +0.124 A 
ATOM     26  C   UNL     1      -4.777   1.239  24.951  0.00  0.00    +0.021 A 
ATOM     27  C   UNL     1      -5.574   1.285  25.155  0.00  0.00    +0.013 A 
ATOM     28  C   UNL     1      -5.910   2.014  25.349  0.00  0.00    +0.058 A 
ATOM     29 CL   UNL     1      -6.708   2.059  25.553  0.00  0.00    -0.082 Cl
ATOM     30  C   UNL     1      -5.447   2.696  25.337  0.00  0.00    +0.013 A 
ATOM     31  C   UNL     1      -4.649   2.651  25.133  0.00  0.00    +0.021 A 
ENDBRANCH  22  25
ENDBRANCH  21  22
ENDBRANCH  20  21
ENDBRANCH  19  20
TORSDOF 7
ENDMDL
MODEL 5
REMARK VINA RESULT:      -6.1     14.399     16.968
REMARK  Name = 
REMARK  7 active torsions:
REMARK  status: ('A' for Active; 'I' for Inactive)
REMARK    1  A    between atoms: C_2  and  C_4
REMARK    2  A    between atoms: C_6  and  C_7
REMARK    3  A    between atoms: C_7  and  C_8
REMARK    4  A    between atoms: C_19  and  C_20
REMARK    5  A    between atoms: C_20  and  N_21
REMARK    6  A    between atoms: N_21  and  S_22
REMARK    7  A    between atoms: S_22  and  C_25
REMARK                            x       y       z     vdW  Elec       q    Type
REMARK                         _______ _______ _______ _____ _____    ______ ____
ROOT
ATOM      4  C   UNL     1      -5.949  -9.956  12.733  0.00  0.00    +0.006 C 
ATOM      5  C   UNL     1      -5.577 -10.021  12.000  0.00  0.00    +0.005 C 
ATOM      6  C   UNL     1      -4.768 -10.181  11.961  0.00  0.00    +0.027 C 
ATOM     16  C   UNL     1      -4.332 -10.275  12.655  0.00  0.00    -0.048 C 
ATOM     17  C   UNL     1      -3.523 -10.435  12.616  0.00  0.00    +0.026 C 
ATOM     18  C   UNL     1      -4.705 -10.209  13.387  0.00  0.00    -0.033 C 
ATOM     19  C   UNL     1      -5.513 -10.049  13.426  0.00  0.00    +0.041 C 
ENDROOT
BRANCH   4   2
ATOM      1  C   UNL     1      -7.300 -10.417  12.792  0.00  0.00    +0.000 C 
ATOM      2  C   UNL     1      -6.757  -9.796  12.772  0.00  0.00    +0.000 C 
ATOM      3  C   UNL     1      -7.023  -9.016  12.792  0.00  0.00    +0.000 C 
ENDBRANCH   4   2
BRANCH   6   7
ATOM      7  C   UNL     1      -4.395 -10.247  11.227  0.00  0.00    +0.089 C 
BRANCH   7   8
ATOM      8  C   UNL     1      -4.465  -9.640  10.673  0.00  0.00    +0.226 C 
ATOM      9  O   UNL     1      -4.515  -8.855  10.924  0.00  0.00    -0.275 OA
ATOM     10  N   UNL     1      -4.484  -9.816   9.868  0.00  0.00    -0.274 N 
ATOM     11  C   UNL     1      -4.434 -10.601   9.616  0.00  0.00    +0.125 C 
ATOM     12  C   UNL     1      -4.453 -10.778   8.811  0.00  0.00    +0.164 C 
ATOM     13  O   UNL     1      -4.523 -10.171   8.256  0.00  0.00    -0.350 OA
ATOM     14  C   UNL     1      -4.573  -9.387   8.508  0.00  0.00    +0.164 C 
ATOM     15  C   UNL     1      -4.554  -9.209   9.313  0.00  0.00    +0.125 C 
ENDBRANCH   7   8
ENDBRANCH   6   7
BRANCH  19  20
ATOM     20  C   UNL     1      -5.885  -9.984  14.160  0.00  0.00    +0.120 C 
BRANCH  20  21
ATOM     21  N   UNL     1      -5.445 -10.052  14.855  0.00  0.00    -0.077 NA
BRANCH  21  22
ATOM     22  S   UNL     1      -5.824 -10.037  15.587  0.00  0.00    +0.077 S 
ATOM     23  O   UNL     1      -6.167 -10.769  15.423  0.00  0.00    -0.152 OA
ATOM     24  O   UNL     1      -5.480  -9.306  15.750  0.00  0.00    -0.152 OA
BRANCH  22  25
ATOM     25  C   UNL     1      -6.203 -10.023  16.319  0.00  0.00    +0.124 A 
ATOM     26  C   UNL     1      -5.870 -10.415  16.964  0.00  0.00    +0.021 A 
ATOM     27  C   UNL     1      -6.249 -10.400  17.696  0.00  0.00    +0.013 A 
ATOM     28  C   UNL     1      -6.962  -9.993  17.784  0.00  0.00    +0.058 A 
ATOM     29 CL   UNL     1      -7.341  -9.978  18.517  0.00  0.00    -0.082 Cl
ATOM     30  C   UNL     1      -7.295  -9.601  17.140  0.00  0.00    +0.013 A 
ATOM     31  C   UNL     1      -6.916  -9.615  16.407  0.00  0.00    +0.021 A 
ENDBRANCH  22  25
ENDBRANCH  21  22
ENDBRANCH  20  21
ENDBRANCH  19  20
TORSDOF 7
ENDMDL
