MODEL 1
REMARK VINA RESULT:      -9.9      0.000      0.000
REMARK  Name = 
REMARK  6 active torsions:
REMARK  status: ('A' for Active; 'I' for Inactive)
REMARK    1  A    between atoms: O_2  and  C_3
REMARK    2  A    between atoms: C_5  and  S_6
REMARK    3  A    between atoms: C_10  and  C_11
REMARK    4  A    between atoms: N_13  and  C_14
REMARK    5  A    between atoms: C_16  and  C_23
REMARK    6  A    between atoms: N_25  and  C_26
REMARK                            x       y       z     vdW  Elec       q    Type
REMARK                         _______ _______ _______ _____ _____    ______ ____
ROOT
ATOM     14  C   UNL     1      -4.035   1.438  24.774  0.00  0.00    +0.131 C 
ATOM     15  C   UNL     1      -3.362   1.824  24.492  0.00  0.00    +0.064 C 
ATOM     16  C   UNL     1      -3.246   2.624  24.658  0.00  0.00    +0.200 C 
ATOM     17  O   UNL     1      -2.568   2.469  24.214  0.00  0.00    -0.216 OA
ATOM     18  C   UNL     1      -3.802   3.038  25.105  0.00  0.00    +0.075 C 
ATOM     19  C   UNL     1      -4.474   2.652  25.388  0.00  0.00    +0.187 C 
ATOM     20  O   UNL     1      -5.030   3.066  25.835  0.00  0.00    -0.220 OA
ATOM     21  C   UNL     1      -4.591   1.852  25.222  0.00  0.00    +0.202 C 
ATOM     22  O   UNL     1      -5.264   1.466  25.505  0.00  0.00    -0.219 OA
ENDROOT
BRANCH  14  13
ATOM     11  C   UNL     1      -3.562   0.089  24.793  0.00  0.00    +0.268 C 
ATOM     12  O   UNL     1      -2.858   0.341  25.142  0.00  0.00    -0.268 OA
ATOM     13  N   UNL     1      -4.151   0.638  24.609  0.00  0.00    -0.201 NA
BRANCH  11  10
ATOM      3  C   UNL     1      -3.501  -1.279  25.198  0.00  0.00    +0.144 A 
ATOM      4  C   UNL     1      -3.618  -2.079  25.033  0.00  0.00    +0.043 A 
ATOM      5  C   UNL     1      -3.912  -2.310  24.297  0.00  0.00    +0.028 A 
ATOM      8  C   UNL     1      -4.089  -1.741  23.727  0.00  0.00    +0.006 A 
ATOM      9  C   UNL     1      -3.973  -0.941  23.892  0.00  0.00    +0.008 A 
ATOM     10  C   UNL     1      -3.679  -0.710  24.627  0.00  0.00    +0.089 A 
BRANCH   3   2
ATOM      1  C   UNL     1      -3.043  -1.617  26.510  0.00  0.00    +0.252 C 
ATOM      2  O   UNL     1      -3.207  -1.048  25.934  0.00  0.00    -0.471 OA
ENDBRANCH   3   2
BRANCH   5   6
ATOM      6  S   UNL     1      -4.028  -3.110  24.133  0.00  0.00    -0.113 S 
ATOM      7  C   UNL     1      -4.391  -3.338  23.428  0.00  0.00    +0.074 C 
ENDBRANCH   5   6
ENDBRANCH  11  10
ENDBRANCH  14  13
BRANCH  16  23
ATOM     23  C   UNL     1      -2.894   3.370  24.669  0.00  0.00    +0.269 C 
ATOM     24  O   UNL     1      -3.295   4.020  24.355  0.00  0.00    -0.271 OA
ATOM     25  N   UNL     1      -2.142   3.467  24.993  0.00  0.00    -0.196 NA
BRANCH  25  26
ATOM     26  C   UNL     1      -1.791   4.213  25.004  0.00  0.00    +0.173 C 
ATOM     27  C   UNL     1      -2.258   4.888  25.092  0.00  0.00    +0.033 C 
ATOM     28  C   UNL     1      -1.908   5.634  25.103  0.00  0.00    +0.026 C 
ATOM     29  C   UNL     1      -1.090   5.707  25.026  0.00  0.00    +0.115 C 
ATOM     30  N   UNL     1      -0.623   5.033  24.937  0.00  0.00    -0.204 NA
ATOM     31  C   UNL     1      -0.973   4.286  24.926  0.00  0.00    +0.261 C 
ATOM     32  O   UNL     1      -0.505   3.612  24.838  0.00  0.00    -0.271 OA
ENDBRANCH  25  26
ENDBRANCH  16  23
TORSDOF 6
ENDMDL
MODEL 2
REMARK VINA RESULT:      -9.9      2.004      5.554
REMARK  Name = 
REMARK  6 active torsions:
REMARK  status: ('A' for Active; 'I' for Inactive)
REMARK    1  A    between atoms: O_2  and  C_3
REMARK    2  A    between atoms: C_5  and  S_6
REMARK    3  A    between atoms: C_10  and  C_11
REMARK    4  A    between atoms: N_13  and  C_14
REMARK    5  A    between atoms: C_16  and  C_23
REMARK    6  A    between atoms: N_25  and  C_26
REMARK                            x       y       z     vdW  Elec       q    Type
REMARK                         _______ _______ _______ _____ _____    ______ ____
ROOT
ATOM     14  C   UNL     1      -3.608   1.840  24.744  0.00  0.00    +0.131 C 
ATOM     15  C   UNL     1      -3.300   1.155  24.401  0.00  0.00    +0.064 C 
ATOM     16  C   UNL     1      -3.726   0.450  24.434  0.00  0.00    +0.200 C 
ATOM     17  O   UNL     1      -3.059   0.196  24.021  0.00  0.00    -0.216 OA
ATOM     18  C   UNL     1      -4.461   0.429  24.808  0.00  0.00    +0.075 C 
ATOM     19  C   UNL     1      -4.770   1.113  25.151  0.00  0.00    +0.187 C 
ATOM     20  O   UNL     1      -5.504   1.092  25.525  0.00  0.00    -0.220 OA
ATOM     21  C   UNL     1      -4.343   1.819  25.118  0.00  0.00    +0.202 C 
ATOM     22  O   UNL     1      -4.652   2.504  25.461  0.00  0.00    -0.219 OA
ENDROOT
BRANCH  14  13
ATOM     11  C   UNL     1      -2.471   2.617  25.125  0.00  0.00    +0.268 C 
ATOM     12  O   UNL     1      -2.187   1.983  25.570  0.00  0.00    -0.268 OA
ATOM     13  N   UNL     1      -3.181   2.546  24.712  0.00  0.00    -0.201 NA
BRANCH  11  10
ATOM      3  C   UNL     1      -1.276   3.326  24.790  0.00  0.00    +0.144 A 
ATOM      4  C   UNL     1      -0.850   4.032  24.758  0.00  0.00    +0.043 A 
ATOM      5  C   UNL     1      -1.192   4.733  25.027  0.00  0.00    +0.028 A 
ATOM      8  C   UNL     1      -1.959   4.729  25.328  0.00  0.00    +0.006 A 
ATOM      9  C   UNL     1      -2.386   4.024  25.361  0.00  0.00    +0.008 A 
ATOM     10  C   UNL     1      -2.045   3.323  25.092  0.00  0.00    +0.089 A 
BRANCH   3   2
ATOM      1  C   UNL     1      -0.147   2.617  24.275  0.00  0.00    +0.252 C 
ATOM      2  O   UNL     1      -0.935   2.625  24.522  0.00  0.00    -0.471 OA
ENDBRANCH   3   2
BRANCH   5   6
ATOM      6  S   UNL     1      -0.764   5.438  24.993  0.00  0.00    -0.113 S 
ATOM      7  C   UNL     1      -1.114   6.118  24.682  0.00  0.00    +0.074 C 
ENDBRANCH   5   6
ENDBRANCH  11  10
ENDBRANCH  14  13
BRANCH  16  23
ATOM     23  C   UNL     1      -3.921  -0.343  24.322  0.00  0.00    +0.269 C 
ATOM     24  O   UNL     1      -4.617  -0.547  23.928  0.00  0.00    -0.271 OA
ATOM     25  N   UNL     1      -3.420  -0.935  24.605  0.00  0.00    -0.196 NA
BRANCH  25  26
ATOM     26  C   UNL     1      -3.615  -1.729  24.493  0.00  0.00    +0.173 C 
ATOM     27  C   UNL     1      -4.061  -1.955  23.836  0.00  0.00    +0.033 C 
ATOM     28  C   UNL     1      -4.256  -2.748  23.724  0.00  0.00    +0.026 C 
ATOM     29  C   UNL     1      -4.007  -3.315  24.268  0.00  0.00    +0.115 C 
ATOM     30  N   UNL     1      -3.561  -3.090  24.924  0.00  0.00    -0.204 NA
ATOM     31  C   UNL     1      -3.365  -2.296  25.037  0.00  0.00    +0.261 C 
ATOM     32  O   UNL     1      -2.920  -2.070  25.694  0.00  0.00    -0.271 OA
ENDBRANCH  25  26
ENDBRANCH  16  23
TORSDOF 6
ENDMDL
MODEL 3
REMARK VINA RESULT:      -9.4      3.290      4.580
REMARK  Name = 
REMARK  6 active torsions:
REMARK  status: ('A' for Active; 'I' for Inactive)
REMARK    1  A    between atoms: O_2  and  C_3
REMARK    2  A    between atoms: C_5  and  S_6
REMARK    3  A    between atoms: C_10  and  C_11
REMARK    4  A    between atoms: N_13  and  C_14
REMARK    5  A    between atoms: C_16  and  C_23
REMARK    6  A    between atoms: N_25  and  C_26
REMARK                            x       y       z     vdW  Elec       q    Type
REMARK                         _______ _______ _______ _____ _____    ______ ____
ROOT
ATOM     14  C   UNL     1      -1.806   0.257  24.834  0.00  0.00    +0.131 C 
ATOM     15  C   UNL     1      -1.344   0.549  24.215  0.00  0.00    +0.064 C 
ATOM     16  C   UNL     1      -0.633   0.177  24.022  0.00  0.00    +0.200 C 
ATOM     17  O   UNL     1      -0.635   0.784  23.463  0.00  0.00    -0.216 OA
ATOM     18  C   UNL     1      -0.384  -0.485  24.447  0.00  0.00    +0.075 C 
ATOM     19  C   UNL     1      -0.846  -0.777  25.065  0.00  0.00    +0.187 C 
ATOM     20  O   UNL     1      -0.598  -1.438  25.489  0.00  0.00    -0.220 OA
ATOM     21  C   UNL     1      -1.558  -0.405  25.258  0.00  0.00    +0.202 C 
ATOM     22  O   UNL     1      -2.020  -0.697  25.877  0.00  0.00    -0.219 OA
ENDROOT
BRANCH  14  13
ATOM     11  C   UNL     1      -3.124   0.674  24.469  0.00  0.00    +0.268 C 
ATOM     12  O   UNL     1      -3.019   0.350  23.718  0.00  0.00    -0.268 OA
ATOM     13  N   UNL     1      -2.518   0.628  25.027  0.00  0.00    -0.201 NA
BRANCH  11  10
ATOM      3  C   UNL     1      -4.000   1.799  24.368  0.00  0.00    +0.144 A 
ATOM      4  C   UNL     1      -4.710   2.170  24.562  0.00  0.00    +0.043 A 
ATOM      5  C   UNL     1      -5.256   1.789  25.050  0.00  0.00    +0.028 A 
ATOM      8  C   UNL     1      -5.090   1.037  25.344  0.00  0.00    +0.006 A 
ATOM      9  C   UNL     1      -4.379   0.664  25.151  0.00  0.00    +0.008 A 
ATOM     10  C   UNL     1      -3.834   1.045  24.663  0.00  0.00    +0.089 A 
BRANCH   3   2
ATOM      1  C   UNL     1      -3.625   2.927  23.574  0.00  0.00    +0.252 C 
ATOM      2  O   UNL     1      -3.455   2.180  23.880  0.00  0.00    -0.471 OA
ENDBRANCH   3   2
BRANCH   5   6
ATOM      6  S   UNL     1      -5.966   2.161  25.243  0.00  0.00    -0.113 S 
ATOM      7  C   UNL     1      -6.230   2.166  26.025  0.00  0.00    +0.074 C 
ENDBRANCH   5   6
ENDBRANCH  11  10
ENDBRANCH  14  13
BRANCH  16  23
ATOM     23  C   UNL     1       0.077   0.017  23.635  0.00  0.00    +0.269 C 
ATOM     24  O   UNL     1       0.242  -0.749  23.375  0.00  0.00    -0.271 OA
ATOM     25  N   UNL     1       0.623   0.623  23.506  0.00  0.00    -0.196 NA
BRANCH  25  26
ATOM     26  C   UNL     1       1.333   0.461  23.118  0.00  0.00    +0.173 C 
ATOM     27  C   UNL     1       1.370  -0.146  22.560  0.00  0.00    +0.033 C 
ATOM     28  C   UNL     1       2.079  -0.307  22.172  0.00  0.00    +0.026 C 
ATOM     29  C   UNL     1       2.752   0.138  22.341  0.00  0.00    +0.115 C 
ATOM     30  N   UNL     1       2.716   0.744  22.899  0.00  0.00    -0.204 NA
ATOM     31  C   UNL     1       2.006   0.907  23.287  0.00  0.00    +0.261 C 
ATOM     32  O   UNL     1       1.970   1.513  23.845  0.00  0.00    -0.271 OA
ENDBRANCH  25  26
ENDBRANCH  16  23
TORSDOF 6
ENDMDL
MODEL 4
REMARK VINA RESULT:      -9.4      2.338      5.995
REMARK  Name = 
REMARK  6 active torsions:
REMARK  status: ('A' for Active; 'I' for Inactive)
REMARK    1  A    between atoms: O_2  and  C_3
REMARK    2  A    between atoms: C_5  and  S_6
REMARK    3  A    between atoms: C_10  and  C_11
REMARK    4  A    between atoms: N_13  and  C_14
REMARK    5  A    between atoms: C_16  and  C_23
REMARK    6  A    between atoms: N_25  and  C_26
REMARK                            x       y       z     vdW  Elec       q    Type
REMARK                         _______ _______ _______ _____ _____    ______ ____
ROOT
ATOM     14  C   UNL     1      -1.317   0.982  24.958  0.00  0.00    +0.131 C 
ATOM     15  C   UNL     1      -2.015   0.577  25.132  0.00  0.00    +0.064 C 
ATOM     16  C   UNL     1      -2.070  -0.233  24.982  0.00  0.00    +0.200 C 
ATOM     17  O   UNL     1      -2.822  -0.093  25.290  0.00  0.00    -0.216 OA
ATOM     18  C   UNL     1      -1.427  -0.637  24.659  0.00  0.00    +0.075 C 
ATOM     19  C   UNL     1      -0.729  -0.233  24.486  0.00  0.00    +0.187 C 
ATOM     20  O   UNL     1      -0.088  -0.637  24.163  0.00  0.00    -0.220 OA
ATOM     21  C   UNL     1      -0.675   0.577  24.635  0.00  0.00    +0.202 C 
ATOM     22  O   UNL     1       0.024   0.982  24.461  0.00  0.00    -0.219 OA
ENDROOT
BRANCH  14  13
ATOM     11  C   UNL     1      -1.697   2.325  24.652  0.00  0.00    +0.268 C 
ATOM     12  O   UNL     1      -2.186   2.049  24.048  0.00  0.00    -0.268 OA
ATOM     13  N   UNL     1      -1.262   1.792  25.107  0.00  0.00    -0.201 NA
BRANCH  11  10
ATOM      3  C   UNL     1      -2.320   3.566  24.989  0.00  0.00    +0.144 A 
ATOM      4  C   UNL     1      -2.265   4.375  25.138  0.00  0.00    +0.043 A 
ATOM      5  C   UNL     1      -1.533   4.753  25.101  0.00  0.00    +0.028 A 
ATOM      8  C   UNL     1      -0.856   4.322  24.914  0.00  0.00    +0.006 A 
ATOM      9  C   UNL     1      -0.910   3.512  24.764  0.00  0.00    +0.008 A 
ATOM     10  C   UNL     1      -1.642   3.134  24.802  0.00  0.00    +0.089 A 
BRANCH   3   2
ATOM      1  C   UNL     1      -3.727   3.614  25.239  0.00  0.00    +0.252 C 
ATOM      2  O   UNL     1      -3.053   3.188  25.026  0.00  0.00    -0.471 OA
ENDBRANCH   3   2
BRANCH   5   6
ATOM      6  S   UNL     1      -1.479   5.563  25.251  0.00  0.00    -0.113 S 
ATOM      7  C   UNL     1      -1.072   6.053  24.727  0.00  0.00    +0.074 C 
ENDBRANCH   5   6
ENDBRANCH  11  10
ENDBRANCH  14  13
BRANCH  16  23
ATOM     23  C   UNL     1      -2.386  -0.993  24.940  0.00  0.00    +0.269 C 
ATOM     24  O   UNL     1      -2.053  -1.605  25.385  0.00  0.00    -0.271 OA
ATOM     25  N   UNL     1      -3.036  -1.144  24.454  0.00  0.00    -0.196 NA
BRANCH  25  26
ATOM     26  C   UNL     1      -3.351  -1.905  24.413  0.00  0.00    +0.173 C 
ATOM     27  C   UNL     1      -3.038  -2.508  24.881  0.00  0.00    +0.033 C 
ATOM     28  C   UNL     1      -3.353  -3.269  24.841  0.00  0.00    +0.026 C 
ATOM     29  C   UNL     1      -3.981  -3.428  24.331  0.00  0.00    +0.115 C 
ATOM     30  N   UNL     1      -4.295  -2.826  23.862  0.00  0.00    -0.204 NA
ATOM     31  C   UNL     1      -3.980  -2.064  23.903  0.00  0.00    +0.261 C 
ATOM     32  O   UNL     1      -4.294  -1.462  23.434  0.00  0.00    -0.271 OA
ENDBRANCH  25  26
ENDBRANCH  16  23
TORSDOF 6
ENDMDL
MODEL 5
REMARK VINA RESULT:      -8.8      3.277      4.662
REMARK  Name = 
REMARK  6 active torsions:
REMARK  status: ('A' for Active; 'I' for Inactive)
REMARK    1  A    between atoms: O_2  and  C_3
REMARK    2  A    between atoms: C_5  and  S_6
REMARK    3  A    between atoms: C_10  and  C_11
REMARK    4  A    between atoms: N_13  and  C_14
REMARK    5  A    between atoms: C_16  and  C_23
REMARK    6  A    between atoms: N_25  and  C_26
REMARK                            x       y       z     vdW  Elec       q    Type
REMARK                         _______ _______ _______ _____ _____    ______ ____
ROOT
ATOM     14  C   UNL     1      -1.276   1.766  24.994  0.00  0.00    +0.131 C 
ATOM     15  C   UNL     1      -0.949   1.432  24.313  0.00  0.00    +0.064 C 
ATOM     16  C   UNL     1      -0.133   1.453  24.196  0.00  0.00    +0.200 C 
ATOM     17  O   UNL     1      -0.366   1.058  23.511  0.00  0.00    -0.216 OA
ATOM     18  C   UNL     1       0.356   1.808  24.758  0.00  0.00    +0.075 C 
ATOM     19  C   UNL     1       0.030   2.141  25.438  0.00  0.00    +0.187 C 
ATOM     20  O   UNL     1       0.518   2.495  25.999  0.00  0.00    -0.220 OA
ATOM     21  C   UNL     1      -0.787   2.120  25.556  0.00  0.00    +0.202 C 
ATOM     22  O   UNL     1      -1.115   2.454  26.236  0.00  0.00    -0.219 OA
ENDROOT
BRANCH  14  13
ATOM     11  C   UNL     1      -2.598   2.085  24.555  0.00  0.00    +0.268 C 
ATOM     12  O   UNL     1      -2.288   2.446  23.881  0.00  0.00    -0.268 OA
ATOM     13  N   UNL     1      -2.093   1.745  25.111  0.00  0.00    -0.201 NA
BRANCH  11  10
ATOM      3  C   UNL     1      -3.853   2.763  24.647  0.00  0.00    +0.144 A 
ATOM      4  C   UNL     1      -4.669   2.742  24.765  0.00  0.00    +0.043 A 
ATOM      5  C   UNL     1      -5.047   2.023  24.909  0.00  0.00    +0.028 A 
ATOM      8  C   UNL     1      -4.609   1.325  24.935  0.00  0.00    +0.006 A 
ATOM      9  C   UNL     1      -3.792   1.345  24.817  0.00  0.00    +0.008 A 
ATOM     10  C   UNL     1      -3.414   2.064  24.673  0.00  0.00    +0.089 A 
BRANCH   3   2
ATOM      1  C   UNL     1      -3.904   4.187  24.532  0.00  0.00    +0.252 C 
ATOM      2  O   UNL     1      -3.475   3.482  24.503  0.00  0.00    -0.471 OA
ENDBRANCH   3   2
BRANCH   5   6
ATOM      6  S   UNL     1      -5.864   2.003  25.027  0.00  0.00    -0.113 S 
ATOM      7  C   UNL     1      -6.173   1.655  25.708  0.00  0.00    +0.074 C 
ENDBRANCH   5   6
ENDBRANCH  11  10
ENDBRANCH  14  13
BRANCH  16  23
ATOM     23  C   UNL     1       0.602   1.337  23.840  0.00  0.00    +0.269 C 
ATOM     24  O   UNL     1       1.158   1.948  23.830  0.00  0.00    -0.271 OA
ATOM     25  N   UNL     1       0.783   0.610  23.494  0.00  0.00    -0.196 NA
BRANCH  25  26
ATOM     26  C   UNL     1       1.518   0.494  23.138  0.00  0.00    +0.173 C 
ATOM     27  C   UNL     1       2.169   0.939  23.383  0.00  0.00    +0.033 C 
ATOM     28  C   UNL     1       2.904   0.824  23.028  0.00  0.00    +0.026 C 
ATOM     29  C   UNL     1       2.990   0.265  22.428  0.00  0.00    +0.115 C 
ATOM     30  N   UNL     1       2.340  -0.180  22.183  0.00  0.00    -0.204 NA
ATOM     31  C   UNL     1       1.603  -0.065  22.538  0.00  0.00    +0.261 C 
ATOM     32  O   UNL     1       0.953  -0.510  22.293  0.00  0.00    -0.271 OA
ENDBRANCH  25  26
ENDBRANCH  16  23
TORSDOF 6
ENDMDL
MODEL 6
REMARK VINA RESULT:      -8.6      1.602      2.478
REMARK  Name = 
REMARK  6 active torsions:
REMARK  status: ('A' for Active; 'I' for Inactive)
REMARK    1  A    between atoms: O_2  and  C_3
REMARK    2  A    between atoms: C_5  and  S_6
REMARK    3  A    between atoms: C_10  and  C_11
REMARK    4  A    between atoms: N_13  and  C_14
REMARK    5  A    between atoms: C_16  and  C_23
REMARK    6  A    between atoms: N_25  and  C_26
REMARK                            x       y       z     vdW  Elec       q    Type
REMARK                         _______ _______ _______ _____ _____    ______ ____
ROOT
ATOM     14  C   UNL     1      -1.239   0.715  24.237  0.00  0.00    +0.131 C 
ATOM     15  C   UNL     1      -1.678   1.415  24.230  0.00  0.00    +0.064 C 
ATOM     16  C   UNL     1      -1.292   2.143  24.276  0.00  0.00    +0.200 C 
ATOM     17  O   UNL     1      -2.076   2.397  24.235  0.00  0.00    -0.216 OA
ATOM     18  C   UNL     1      -0.469   2.172  24.327  0.00  0.00    +0.075 C 
ATOM     19  C   UNL     1      -0.031   1.473  24.333  0.00  0.00    +0.187 C 
ATOM     20  O   UNL     1       0.791   1.502  24.385  0.00  0.00    -0.220 OA
ATOM     21  C   UNL     1      -0.417   0.744  24.288  0.00  0.00    +0.202 C 
ATOM     22  O   UNL     1       0.022   0.044  24.294  0.00  0.00    -0.219 OA
ENDROOT
BRANCH  14  13
ATOM     11  C   UNL     1      -2.083  -0.277  24.825  0.00  0.00    +0.268 C 
ATOM     12  O   UNL     1      -2.156   0.186  25.503  0.00  0.00    -0.268 OA
ATOM     13  N   UNL     1      -1.625  -0.014  24.191  0.00  0.00    -0.201 NA
BRANCH  11  10
ATOM      3  C   UNL     1      -3.292  -1.038  24.803  0.00  0.00    +0.144 A 
ATOM      4  C   UNL     1      -3.677  -1.766  24.757  0.00  0.00    +0.043 A 
ATOM      5  C   UNL     1      -3.239  -2.461  24.687  0.00  0.00    +0.028 A 
ATOM      8  C   UNL     1      -2.415  -2.429  24.664  0.00  0.00    +0.006 A 
ATOM      9  C   UNL     1      -2.029  -1.701  24.710  0.00  0.00    +0.008 A 
ATOM     10  C   UNL     1      -2.468  -1.006  24.779  0.00  0.00    +0.089 A 
BRANCH   3   2
ATOM      1  C   UNL     1      -4.551  -0.360  24.775  0.00  0.00    +0.252 C 
ATOM      2  O   UNL     1      -3.731  -0.343  24.872  0.00  0.00    -0.471 OA
ENDBRANCH   3   2
BRANCH   5   6
ATOM      6  S   UNL     1      -3.625  -3.189  24.642  0.00  0.00    -0.113 S 
ATOM      7  C   UNL     1      -3.709  -3.566  23.913  0.00  0.00    +0.074 C 
ENDBRANCH   5   6
ENDBRANCH  11  10
ENDBRANCH  14  13
BRANCH  16  23
ATOM     23  C   UNL     1      -1.180   2.959  24.307  0.00  0.00    +0.269 C 
ATOM     24  O   UNL     1      -0.765   3.342  23.704  0.00  0.00    -0.271 OA
ATOM     25  N   UNL     1      -1.481   3.394  24.940  0.00  0.00    -0.196 NA
BRANCH  25  26
ATOM     26  C   UNL     1      -1.368   4.210  24.971  0.00  0.00    +0.173 C 
ATOM     27  C   UNL     1      -0.705   4.548  24.614  0.00  0.00    +0.033 C 
ATOM     28  C   UNL     1      -0.591   5.364  24.644  0.00  0.00    +0.026 C 
ATOM     29  C   UNL     1      -1.140   5.843  25.030  0.00  0.00    +0.115 C 
ATOM     30  N   UNL     1      -1.803   5.506  25.387  0.00  0.00    -0.204 NA
ATOM     31  C   UNL     1      -1.918   4.689  25.357  0.00  0.00    +0.261 C 
ATOM     32  O   UNL     1      -2.581   4.352  25.713  0.00  0.00    -0.271 OA
ENDBRANCH  25  26
ENDBRANCH  16  23
TORSDOF 6
ENDMDL
MODEL 7
REMARK VINA RESULT:      -8.6      2.860      4.374
REMARK  Name = 
REMARK  6 active torsions:
REMARK  status: ('A' for Active; 'I' for Inactive)
REMARK    1  A    between atoms: O_2  and  C_3
REMARK    2  A    between atoms: C_5  and  S_6
REMARK    3  A    between atoms: C_10  and  C_11
REMARK    4  A    between atoms: N_13  and  C_14
REMARK    5  A    between atoms: C_16  and  C_23
REMARK    6  A    between atoms: N_25  and  C_26
REMARK                            x       y       z     vdW  Elec       q    Type
REMARK                         _______ _______ _______ _____ _____    ______ ____
ROOT
ATOM     14  C   UNL     1      -2.211  -0.001  24.388  0.00  0.00    +0.131 C 
ATOM     15  C   UNL     1      -2.698   0.642  24.212  0.00  0.00    +0.064 C 
ATOM     16  C   UNL     1      -3.430   0.717  24.584  0.00  0.00    +0.200 C 
ATOM     17  O   UNL     1      -3.441   1.391  24.108  0.00  0.00    -0.216 OA
ATOM     18  C   UNL     1      -3.676   0.151  25.131  0.00  0.00    +0.075 C 
ATOM     19  C   UNL     1      -3.189  -0.491  25.307  0.00  0.00    +0.187 C 
ATOM     20  O   UNL     1      -3.434  -1.057  25.854  0.00  0.00    -0.220 OA
ATOM     21  C   UNL     1      -2.456  -0.567  24.935  0.00  0.00    +0.202 C 
ATOM     22  O   UNL     1      -1.968  -1.210  25.111  0.00  0.00    -0.219 OA
ENDROOT
BRANCH  14  13
ATOM     11  C   UNL     1      -0.843   0.391  24.257  0.00  0.00    +0.268 C 
ATOM     12  O   UNL     1      -0.940   0.935  24.870  0.00  0.00    -0.268 OA
ATOM     13  N   UNL     1      -1.477  -0.077  24.015  0.00  0.00    -0.201 NA
BRANCH  11  10
ATOM      3  C   UNL     1       0.408   0.957  23.861  0.00  0.00    +0.144 A 
ATOM      4  C   UNL     1       1.141   0.881  23.489  0.00  0.00    +0.043 A 
ATOM      5  C   UNL     1       1.355   0.164  23.141  0.00  0.00    +0.028 A 
ATOM      8  C   UNL     1       0.836  -0.476  23.165  0.00  0.00    +0.006 A 
ATOM      9  C   UNL     1       0.104  -0.401  23.537  0.00  0.00    +0.008 A 
ATOM     10  C   UNL     1      -0.110   0.315  23.885  0.00  0.00    +0.089 A 
BRANCH   3   2
ATOM      1  C   UNL     1       0.700   2.325  24.159  0.00  0.00    +0.252 C 
ATOM      2  O   UNL     1       0.194   1.674  24.209  0.00  0.00    -0.471 OA
ENDBRANCH   3   2
BRANCH   5   6
ATOM      6  S   UNL     1       2.087   0.089  22.769  0.00  0.00    -0.113 S 
ATOM      7  C   UNL     1       2.130  -0.201  21.998  0.00  0.00    +0.074 C 
ENDBRANCH   5   6
ENDBRANCH  11  10
ENDBRANCH  14  13
BRANCH  16  23
ATOM     23  C   UNL     1      -4.166   1.027  24.790  0.00  0.00    +0.269 C 
ATOM     24  O   UNL     1      -4.846   0.564  24.715  0.00  0.00    -0.271 OA
ATOM     25  N   UNL     1      -4.224   1.801  25.071  0.00  0.00    -0.196 NA
BRANCH  25  26
ATOM     26  C   UNL     1      -4.961   2.110  25.277  0.00  0.00    +0.173 C 
ATOM     27  C   UNL     1      -5.651   1.723  25.043  0.00  0.00    +0.033 C 
ATOM     28  C   UNL     1      -6.387   2.031  25.248  0.00  0.00    +0.026 C 
ATOM     29  C   UNL     1      -6.435   2.727  25.689  0.00  0.00    +0.115 C 
ATOM     30  N   UNL     1      -5.745   3.115  25.923  0.00  0.00    -0.204 NA
ATOM     31  C   UNL     1      -5.008   2.806  25.717  0.00  0.00    +0.261 C 
ATOM     32  O   UNL     1      -4.319   3.194  25.952  0.00  0.00    -0.271 OA
ENDBRANCH  25  26
ENDBRANCH  16  23
TORSDOF 6
ENDMDL
MODEL 8
REMARK VINA RESULT:      -8.4      2.866      4.310
REMARK  Name = 
REMARK  6 active torsions:
REMARK  status: ('A' for Active; 'I' for Inactive)
REMARK    1  A    between atoms: O_2  and  C_3
REMARK    2  A    between atoms: C_5  and  S_6
REMARK    3  A    between atoms: C_10  and  C_11
REMARK    4  A    between atoms: N_13  and  C_14
REMARK    5  A    between atoms: C_16  and  C_23
REMARK    6  A    between atoms: N_25  and  C_26
REMARK                            x       y       z     vdW  Elec       q    Type
REMARK                         _______ _______ _______ _____ _____    ______ ____
ROOT
ATOM     14  C   UNL     1      -1.234   2.483  24.330  0.00  0.00    +0.131 C 
ATOM     15  C   UNL     1      -2.004   2.248  24.145  0.00  0.00    +0.064 C 
ATOM     16  C   UNL     1      -2.646   2.622  24.502  0.00  0.00    +0.200 C 
ATOM     17  O   UNL     1      -3.043   2.078  24.026  0.00  0.00    -0.216 OA
ATOM     18  C   UNL     1      -2.520   3.230  25.045  0.00  0.00    +0.075 C 
ATOM     19  C   UNL     1      -1.752   3.466  25.231  0.00  0.00    +0.187 C 
ATOM     20  O   UNL     1      -1.626   4.073  25.773  0.00  0.00    -0.220 OA
ATOM     21  C   UNL     1      -1.108   3.091  24.873  0.00  0.00    +0.202 C 
ATOM     22  O   UNL     1      -0.339   3.327  25.058  0.00  0.00    -0.219 OA
ENDROOT
BRANCH  14  13
ATOM     11  C   UNL     1      -0.358   1.359  24.225  0.00  0.00    +0.268 C 
ATOM     12  O   UNL     1      -0.768   0.983  24.835  0.00  0.00    -0.268 OA
ATOM     13  N   UNL     1      -0.591   2.109  23.972  0.00  0.00    -0.201 NA
BRANCH  11  10
ATOM      3  C   UNL     1       0.244   0.182  23.682  0.00  0.00    +0.144 A 
ATOM      4  C   UNL     1       0.886  -0.191  23.324  0.00  0.00    +0.043 A 
ATOM      5  C   UNL     1       1.570   0.238  23.152  0.00  0.00    +0.028 A 
ATOM      8  C   UNL     1       1.610   1.040  23.337  0.00  0.00    +0.006 A 
ATOM      9  C   UNL     1       0.968   1.415  23.695  0.00  0.00    +0.008 A 
ATOM     10  C   UNL     1       0.285   0.986  23.867  0.00  0.00    +0.089 A 
BRANCH   3   2
ATOM      1  C   UNL     1      -0.427  -1.072  23.828  0.00  0.00    +0.252 C 
ATOM      2  O   UNL     1      -0.440  -0.247  23.855  0.00  0.00    -0.471 OA
ENDBRANCH   3   2
BRANCH   5   6
ATOM      6  S   UNL     1       2.212  -0.137  22.794  0.00  0.00    -0.113 S 
ATOM      7  C   UNL     1       2.818   0.313  22.461  0.00  0.00    +0.074 C 
ENDBRANCH   5   6
ENDBRANCH  11  10
ENDBRANCH  14  13
BRANCH  16  23
ATOM     23  C   UNL     1      -3.426   2.806  24.694  0.00  0.00    +0.269 C 
ATOM     24  O   UNL     1      -3.751   3.528  24.458  0.00  0.00    -0.271 OA
ATOM     25  N   UNL     1      -3.885   2.270  25.122  0.00  0.00    -0.196 NA
BRANCH  25  26
ATOM     26  C   UNL     1      -4.665   2.455  25.314  0.00  0.00    +0.173 C 
ATOM     27  C   UNL     1      -4.898   3.244  25.379  0.00  0.00    +0.033 C 
ATOM     28  C   UNL     1      -5.678   3.430  25.570  0.00  0.00    +0.026 C 
ATOM     29  C   UNL     1      -6.226   2.828  25.697  0.00  0.00    +0.115 C 
ATOM     30  N   UNL     1      -5.995   2.039  25.632  0.00  0.00    -0.204 NA
ATOM     31  C   UNL     1      -5.214   1.852  25.440  0.00  0.00    +0.261 C 
ATOM     32  O   UNL     1      -4.982   1.063  25.375  0.00  0.00    -0.271 OA
ENDBRANCH  25  26
ENDBRANCH  16  23
TORSDOF 6
ENDMDL
