REMARK  Name = 
REMARK  5 active torsions:
REMARK  status: ('A' for Active; 'I' for Inactive)
REMARK    1  A    between atoms: C_2  and  C_4
REMARK    2  A    between atoms: N_6  and  C_7
REMARK    3  A    between atoms: C_9  and  C_10
REMARK    4  A    between atoms: C_10  and  C_11
REMARK    5  A    between atoms: C_14  and  C_16
REMARK                            x       y       z     vdW  Elec       q    Type
REMARK                         _______ _______ _______ _____ _____    ______ ____
ROOT
ATOM      7  C   UNL     1       0.680  -2.086   0.000  0.00  0.00    +0.095 C 
ATOM      8  C   UNL     1       0.097  -2.670   0.000  0.00  0.00    +0.022 C 
ATOM      9  C   UNL     1      -0.486  -2.086   0.000  0.00  0.00    +0.009 C 
ATOM     20  C   UNL     1       0.097  -1.503   0.000  0.00  0.00    +0.019 C 
ATOM     21  C   UNL     1      -0.334  -0.799   0.000  0.00  0.00    +0.002 C 
ATOM     22  C   UNL     1       0.528  -0.799   0.000  0.00  0.00    +0.002 C 
ENDROOT
BRANCH   7   6
ATOM      4  C   UNL     1       1.918  -1.372   0.000  0.00  0.00    +0.241 C 
ATOM      5  O   UNL     1       1.506  -0.657   0.000  0.00  0.00    -0.273 OA
ATOM      6  N   UNL     1       1.506  -2.086   0.000  0.00  0.00    -0.207 NA
BRANCH   4   2
ATOM      1  C   UNL     1       3.155  -0.657   0.000  0.00  0.00    +0.010 C 
ATOM      2  C   UNL     1       2.743  -1.372   0.000  0.00  0.00    +0.078 C 
ATOM      3  C   UNL     1       3.155  -2.086   0.000  0.00  0.00    +0.010 C 
ENDBRANCH   4   2
ENDBRANCH   7   6
BRANCH   9  10
ATOM     10  C   UNL     1      -1.311  -2.086   0.000  0.00  0.00    +0.049 C 
BRANCH  10  11
ATOM     11  C   UNL     1      -1.724  -2.801   0.000  0.00  0.00    +0.100 A 
ATOM     12  N   UNL     1      -1.388  -3.554   0.000  0.00  0.00    -0.082 NA
ATOM     13  O   UNL     1      -2.001  -4.106   0.000  0.00  0.00    -0.358 OA
ATOM     14  C   UNL     1      -2.716  -3.694   0.000  0.00  0.00    +0.153 A 
ATOM     15  C   UNL     1      -2.544  -2.887   0.000  0.00  0.00    +0.054 A 
BRANCH  14  16
ATOM     16  C   UNL     1      -3.469  -4.029   0.000  0.00  0.00    +0.054 C 
ATOM     17  C   UNL     1      -4.223  -4.365   0.000  0.00  0.00    +0.008 C 
ATOM     18  C   UNL     1      -3.805  -3.276   0.000  0.00  0.00    +0.008 C 
ATOM     19  C   UNL     1      -3.134  -4.783   0.000  0.00  0.00    +0.008 C 
ENDBRANCH  14  16
ENDBRANCH  10  11
ENDBRANCH   9  10
TORSDOF 5
