MODEL 1
REMARK VINA RESULT:      -9.4      0.000      0.000
REMARK  Name = 
REMARK  7 active torsions:
REMARK  status: ('A' for Active; 'I' for Inactive)
REMARK    1  A    between atoms: O_2  and  C_3
REMARK    2  A    between atoms: C_3  and  C_4
REMARK    3  A    between atoms: C_10  and  C_13
REMARK    4  A    between atoms: C_16  and  C_18
REMARK    5  A    between atoms: N_22  and  C_23
REMARK    6  A    between atoms: C_23  and  C_24
REMARK    7  A    between atoms: C_27  and  C_30
REMARK                            x       y       z     vdW  Elec       q    Type
REMARK                         _______ _______ _______ _____ _____    ______ ____
ROOT
ATOM     13  C   UNL     1      -0.960  -0.648  24.408  0.00  0.00    +0.205 A 
ATOM     14  N   UNL     1      -1.010  -1.081  25.109  0.00  0.00    -0.056 NA
ATOM     15  O   UNL     1      -1.793  -1.326  25.201  0.00  0.00    -0.336 OA
ATOM     16  C   UNL     1      -2.225  -1.046  24.558  0.00  0.00    +0.251 A 
ATOM     17  N   UNL     1      -1.710  -0.627  24.067  0.00  0.00    -0.190 NA
ENDROOT
BRANCH  13  10
ATOM      4  C   UNL     1       2.340   0.282  22.815  0.00  0.00    +0.277 C 
ATOM      5  O   UNL     1       2.231  -0.533  22.752  0.00  0.00    -0.270 OA
ATOM      6  N   UNL     1       1.768   0.749  23.184  0.00  0.00    -0.158 NA
ATOM      7  C   UNL     1       1.086   0.399  23.490  0.00  0.00    +0.155 A 
ATOM      8  N   UNL     1       0.514   0.865  23.859  0.00  0.00    -0.227 NA
ATOM      9  C   UNL     1      -0.168   0.516  24.165  0.00  0.00    +0.103 A 
ATOM     10  C   UNL     1      -0.278  -0.299  24.102  0.00  0.00    +0.058 A 
ATOM     11  C   UNL     1       0.294  -0.766  23.733  0.00  0.00    +0.008 A 
ATOM     12  C   UNL     1       0.976  -0.416  23.427  0.00  0.00    +0.036 A 
BRANCH   4   3
ATOM      3  C   UNL     1       3.022   0.631  22.509  0.00  0.00    +0.229 C 
BRANCH   3   2
ATOM      1  C   UNL     1       4.423   0.844  22.697  0.00  0.00    +0.175 C 
ATOM      2  O   UNL     1       3.765   0.347  22.727  0.00  0.00    -0.342 OA
ENDBRANCH   3   2
ENDBRANCH   4   3
ENDBRANCH  13  10
BRANCH  16  18
ATOM     18  C   UNL     1      -3.031  -1.163  24.426  0.00  0.00    +0.138 C 
ATOM     19  C   UNL     1      -3.372  -1.819  24.060  0.00  0.00    +0.027 C 
ATOM     20  C   UNL     1      -4.189  -1.707  24.046  0.00  0.00    +0.019 C 
ATOM     21  C   UNL     1      -4.354  -0.981  24.402  0.00  0.00    +0.073 C 
ATOM     22  N   UNL     1      -3.638  -0.645  24.638  0.00  0.00    -0.263 NA
BRANCH  22  23
ATOM     23  C   UNL     1      -3.545   0.081  25.017  0.00  0.00    +0.099 C 
BRANCH  23  24
ATOM     24  C   UNL     1      -4.166   0.624  25.028  0.00  0.00    -0.006 A 
ATOM     25  C   UNL     1      -4.770   0.548  25.584  0.00  0.00    -0.003 A 
ATOM     26  C   UNL     1      -5.392   1.091  25.595  0.00  0.00    +0.006 A 
ATOM     27  C   UNL     1      -5.408   1.709  25.049  0.00  0.00    +0.080 A 
ATOM     28  C   UNL     1      -4.804   1.785  24.493  0.00  0.00    +0.006 A 
ATOM     29  C   UNL     1      -4.183   1.243  24.482  0.00  0.00    -0.003 A 
BRANCH  27  30
ATOM     30  C   UNL     1      -6.030   2.252  25.059  0.00  0.00    +0.388 C 
ATOM     31  O   UNL     1      -5.918   3.000  25.389  0.00  0.00    -0.241 OA
ATOM     32  O   UNL     1      -6.763   2.047  24.740  0.00  0.00    -0.241 OA
ENDBRANCH  27  30
ENDBRANCH  23  24
ENDBRANCH  22  23
ENDBRANCH  16  18
TORSDOF 7
ENDMDL
MODEL 2
REMARK VINA RESULT:      -8.9      1.043      1.377
REMARK  Name = 
REMARK  7 active torsions:
REMARK  status: ('A' for Active; 'I' for Inactive)
REMARK    1  A    between atoms: O_2  and  C_3
REMARK    2  A    between atoms: C_3  and  C_4
REMARK    3  A    between atoms: C_10  and  C_13
REMARK    4  A    between atoms: C_16  and  C_18
REMARK    5  A    between atoms: N_22  and  C_23
REMARK    6  A    between atoms: C_23  and  C_24
REMARK    7  A    between atoms: C_27  and  C_30
REMARK                            x       y       z     vdW  Elec       q    Type
REMARK                         _______ _______ _______ _____ _____    ______ ____
ROOT
ATOM     13  C   UNL     1      -0.931  -0.014  24.449  0.00  0.00    +0.205 A 
ATOM     14  N   UNL     1      -1.030  -0.013  25.269  0.00  0.00    -0.056 NA
ATOM     15  O   UNL     1      -1.840  -0.024  25.428  0.00  0.00    -0.336 OA
ATOM     16  C   UNL     1      -2.241  -0.032  24.707  0.00  0.00    +0.251 A 
ATOM     17  N   UNL     1      -1.679  -0.026  24.102  0.00  0.00    -0.190 NA
ENDROOT
BRANCH  13  10
ATOM      4  C   UNL     1       2.458   0.668  22.920  0.00  0.00    +0.277 C 
ATOM      5  O   UNL     1       2.243   1.307  23.395  0.00  0.00    -0.270 OA
ATOM      6  N   UNL     1       1.953   0.020  22.846  0.00  0.00    -0.158 NA
ATOM      7  C   UNL     1       1.232   0.012  23.247  0.00  0.00    +0.155 A 
ATOM      8  N   UNL     1       0.726  -0.636  23.173  0.00  0.00    -0.227 NA
ATOM      9  C   UNL     1       0.005  -0.644  23.574  0.00  0.00    +0.103 A 
ATOM     10  C   UNL     1      -0.210  -0.006  24.048  0.00  0.00    +0.058 A 
ATOM     11  C   UNL     1       0.295   0.642  24.123  0.00  0.00    +0.008 A 
ATOM     12  C   UNL     1       1.016   0.651  23.722  0.00  0.00    +0.036 A 
BRANCH   4   3
ATOM      3  C   UNL     1       3.179   0.677  22.519  0.00  0.00    +0.229 C 
BRANCH   3   2
ATOM      1  C   UNL     1       4.594   0.626  22.711  0.00  0.00    +0.175 C 
ATOM      2  O   UNL     1       3.859   0.950  22.898  0.00  0.00    -0.342 OA
ENDBRANCH   3   2
ENDBRANCH   4   3
ENDBRANCH  13  10
BRANCH  16  18
ATOM     18  C   UNL     1      -3.060  -0.043  24.607  0.00  0.00    +0.138 C 
ATOM     19  C   UNL     1      -3.533  -0.718  24.557  0.00  0.00    +0.027 C 
ATOM     20  C   UNL     1      -4.315  -0.474  24.459  0.00  0.00    +0.019 C 
ATOM     21  C   UNL     1      -4.326   0.351  24.448  0.00  0.00    +0.073 C 
ATOM     22  N   UNL     1      -3.550   0.617  24.540  0.00  0.00    -0.263 NA
BRANCH  22  23
ATOM     23  C   UNL     1      -3.307   1.405  24.560  0.00  0.00    +0.099 C 
BRANCH  23  24
ATOM     24  C   UNL     1      -3.841   1.996  24.775  0.00  0.00    -0.006 A 
ATOM     25  C   UNL     1      -4.209   2.450  24.194  0.00  0.00    -0.003 A 
ATOM     26  C   UNL     1      -4.744   3.042  24.408  0.00  0.00    +0.006 A 
ATOM     27  C   UNL     1      -4.909   3.178  25.205  0.00  0.00    +0.080 A 
ATOM     28  C   UNL     1      -4.541   2.723  25.786  0.00  0.00    +0.006 A 
ATOM     29  C   UNL     1      -4.007   2.133  25.572  0.00  0.00    -0.003 A 
BRANCH  27  30
ATOM     30  C   UNL     1      -5.444   3.769  25.419  0.00  0.00    +0.388 C 
ATOM     31  O   UNL     1      -6.151   3.569  25.793  0.00  0.00    -0.241 OA
ATOM     32  O   UNL     1      -5.270   4.560  25.260  0.00  0.00    -0.241 OA
ENDBRANCH  27  30
ENDBRANCH  23  24
ENDBRANCH  22  23
ENDBRANCH  16  18
TORSDOF 7
ENDMDL
MODEL 3
REMARK VINA RESULT:      -8.4      2.592      4.275
REMARK  Name = 
REMARK  7 active torsions:
REMARK  status: ('A' for Active; 'I' for Inactive)
REMARK    1  A    between atoms: O_2  and  C_3
REMARK    2  A    between atoms: C_3  and  C_4
REMARK    3  A    between atoms: C_10  and  C_13
REMARK    4  A    between atoms: C_16  and  C_18
REMARK    5  A    between atoms: N_22  and  C_23
REMARK    6  A    between atoms: C_23  and  C_24
REMARK    7  A    between atoms: C_27  and  C_30
REMARK                            x       y       z     vdW  Elec       q    Type
REMARK                         _______ _______ _______ _____ _____    ______ ____
ROOT
ATOM     13  C   UNL     1      -0.370   1.963  25.069  0.00  0.00    +0.205 A 
ATOM     14  N   UNL     1       0.266   2.304  25.469  0.00  0.00    -0.056 NA
ATOM     15  O   UNL     1       0.112   3.110  25.554  0.00  0.00    -0.336 OA
ATOM     16  C   UNL     1      -0.620   3.267  25.207  0.00  0.00    +0.251 A 
ATOM     17  N   UNL     1      -0.918   2.558  24.907  0.00  0.00    -0.190 NA
ENDROOT
BRANCH  13  10
ATOM      4  C   UNL     1      -1.194  -1.706  24.679  0.00  0.00    +0.277 C 
ATOM      5  O   UNL     1      -1.640  -1.394  25.298  0.00  0.00    -0.270 OA
ATOM      6  N   UNL     1      -0.672  -1.222  24.261  0.00  0.00    -0.158 NA
ATOM      7  C   UNL     1      -0.597  -0.426  24.463  0.00  0.00    +0.155 A 
ATOM      8  N   UNL     1      -0.075   0.058  24.046  0.00  0.00    -0.227 NA
ATOM      9  C   UNL     1       0.000   0.855  24.248  0.00  0.00    +0.103 A 
ATOM     10  C   UNL     1      -0.446   1.167  24.867  0.00  0.00    +0.058 A 
ATOM     11  C   UNL     1      -0.968   0.683  25.285  0.00  0.00    +0.008 A 
ATOM     12  C   UNL     1      -1.043  -0.113  25.083  0.00  0.00    +0.036 A 
BRANCH   4   3
ATOM      3  C   UNL     1      -1.269  -2.502  24.477  0.00  0.00    +0.229 C 
BRANCH   3   2
ATOM      1  C   UNL     1      -2.359  -3.311  24.028  0.00  0.00    +0.175 C 
ATOM      2  O   UNL     1      -1.973  -2.903  24.633  0.00  0.00    -0.342 OA
ENDBRANCH   3   2
ENDBRANCH   4   3
ENDBRANCH  13  10
BRANCH  16  18
ATOM     18  C   UNL     1      -0.989   4.004  25.166  0.00  0.00    +0.138 C 
ATOM     19  C   UNL     1      -0.693   4.674  24.786  0.00  0.00    +0.027 C 
ATOM     20  C   UNL     1      -1.240   5.284  24.883  0.00  0.00    +0.019 C 
ATOM     21  C   UNL     1      -1.874   4.991  25.323  0.00  0.00    +0.073 C 
ATOM     22  N   UNL     1      -1.718   4.200  25.498  0.00  0.00    -0.263 NA
BRANCH  22  23
ATOM     23  C   UNL     1      -2.207   3.694  25.929  0.00  0.00    +0.099 C 
BRANCH  23  24
ATOM     24  C   UNL     1      -3.025   3.729  25.832  0.00  0.00    -0.006 A 
ATOM     25  C   UNL     1      -3.492   4.109  26.396  0.00  0.00    -0.003 A 
ATOM     26  C   UNL     1      -4.311   4.143  26.299  0.00  0.00    +0.006 A 
ATOM     27  C   UNL     1      -4.662   3.797  25.638  0.00  0.00    +0.080 A 
ATOM     28  C   UNL     1      -4.195   3.417  25.074  0.00  0.00    +0.006 A 
ATOM     29  C   UNL     1      -3.377   3.383  25.171  0.00  0.00    -0.003 A 
BRANCH  27  30
ATOM     30  C   UNL     1      -5.481   3.832  25.541  0.00  0.00    +0.388 C 
ATOM     31  O   UNL     1      -5.902   3.150  25.346  0.00  0.00    -0.241 OA
ATOM     32  O   UNL     1      -5.878   4.549  25.639  0.00  0.00    -0.241 OA
ENDBRANCH  27  30
ENDBRANCH  23  24
ENDBRANCH  22  23
ENDBRANCH  16  18
TORSDOF 7
ENDMDL
MODEL 4
REMARK VINA RESULT:      -8.2      1.660      2.352
REMARK  Name = 
REMARK  7 active torsions:
REMARK  status: ('A' for Active; 'I' for Inactive)
REMARK    1  A    between atoms: O_2  and  C_3
REMARK    2  A    between atoms: C_3  and  C_4
REMARK    3  A    between atoms: C_10  and  C_13
REMARK    4  A    between atoms: C_16  and  C_18
REMARK    5  A    between atoms: N_22  and  C_23
REMARK    6  A    between atoms: C_23  and  C_24
REMARK    7  A    between atoms: C_27  and  C_30
REMARK                            x       y       z     vdW  Elec       q    Type
REMARK                         _______ _______ _______ _____ _____    ______ ____
ROOT
ATOM     13  C   UNL     1      -0.378   1.090  24.424  0.00  0.00    +0.205 A 
ATOM     14  N   UNL     1      -0.859   0.596  24.878  0.00  0.00    -0.056 NA
ATOM     15  O   UNL     1      -1.457   1.058  25.210  0.00  0.00    -0.336 OA
ATOM     16  C   UNL     1      -1.345   1.837  24.962  0.00  0.00    +0.251 A 
ATOM     17  N   UNL     1      -0.678   1.856  24.476  0.00  0.00    -0.190 NA
ENDROOT
BRANCH  13  10
ATOM      4  C   UNL     1       2.974   0.602  22.746  0.00  0.00    +0.277 C 
ATOM      5  O   UNL     1       3.004   1.278  23.217  0.00  0.00    -0.270 OA
ATOM      6  N   UNL     1       2.280   0.159  22.703  0.00  0.00    -0.158 NA
ATOM      7  C   UNL     1       1.615   0.391  23.133  0.00  0.00    +0.155 A 
ATOM      8  N   UNL     1       0.921  -0.051  23.092  0.00  0.00    -0.227 NA
ATOM      9  C   UNL     1       0.256   0.181  23.522  0.00  0.00    +0.103 A 
ATOM     10  C   UNL     1       0.286   0.857  23.994  0.00  0.00    +0.058 A 
ATOM     11  C   UNL     1       0.981   1.301  24.036  0.00  0.00    +0.008 A 
ATOM     12  C   UNL     1       1.645   1.068  23.606  0.00  0.00    +0.036 A 
BRANCH   4   3
ATOM      3  C   UNL     1       3.639   0.370  22.315  0.00  0.00    +0.229 C 
BRANCH   3   2
ATOM      1  C   UNL     1       4.991   0.135  22.713  0.00  0.00    +0.175 C 
ATOM      2  O   UNL     1       4.384   0.659  22.519  0.00  0.00    -0.342 OA
ENDBRANCH   3   2
ENDBRANCH   4   3
ENDBRANCH  13  10
BRANCH  16  18
ATOM     18  C   UNL     1      -1.816   2.483  25.163  0.00  0.00    +0.138 C 
ATOM     19  C   UNL     1      -1.574   3.144  25.593  0.00  0.00    +0.027 C 
ATOM     20  C   UNL     1      -2.220   3.651  25.667  0.00  0.00    +0.019 C 
ATOM     21  C   UNL     1      -2.862   3.304  25.282  0.00  0.00    +0.073 C 
ATOM     22  N   UNL     1      -2.612   2.581  24.971  0.00  0.00    -0.263 NA
BRANCH  22  23
ATOM     23  C   UNL     1      -3.077   2.051  24.543  0.00  0.00    +0.099 C 
BRANCH  23  24
ATOM     24  C   UNL     1      -3.886   1.997  24.693  0.00  0.00    -0.006 A 
ATOM     25  C   UNL     1      -4.182   1.376  25.147  0.00  0.00    -0.003 A 
ATOM     26  C   UNL     1      -4.991   1.322  25.297  0.00  0.00    +0.006 A 
ATOM     27  C   UNL     1      -5.505   1.891  24.992  0.00  0.00    +0.080 A 
ATOM     28  C   UNL     1      -5.210   2.512  24.538  0.00  0.00    +0.006 A 
ATOM     29  C   UNL     1      -4.401   2.566  24.388  0.00  0.00    -0.003 A 
BRANCH  27  30
ATOM     30  C   UNL     1      -6.315   1.837  25.142  0.00  0.00    +0.388 C 
ATOM     31  O   UNL     1      -6.842   1.713  24.520  0.00  0.00    -0.241 OA
ATOM     32  O   UNL     1      -6.598   1.907  25.915  0.00  0.00    -0.241 OA
ENDBRANCH  27  30
ENDBRANCH  23  24
ENDBRANCH  22  23
ENDBRANCH  16  18
TORSDOF 7
ENDMDL
MODEL 5
REMARK VINA RESULT:      -8.2      1.656      3.019
REMARK  Name = 
REMARK  7 active torsions:
REMARK  status: ('A' for Active; 'I' for Inactive)
REMARK    1  A    between atoms: O_2  and  C_3
REMARK    2  A    between atoms: C_3  and  C_4
REMARK    3  A    between atoms: C_10  and  C_13
REMARK    4  A    between atoms: C_16  and  C_18
REMARK    5  A    between atoms: N_22  and  C_23
REMARK    6  A    between atoms: C_23  and  C_24
REMARK    7  A    between atoms: C_27  and  C_30
REMARK                            x       y       z     vdW  Elec       q    Type
REMARK                         _______ _______ _______ _____ _____    ______ ____
ROOT
ATOM     13  C   UNL     1      -1.588   2.161  24.801  0.00  0.00    +0.205 A 
ATOM     14  N   UNL     1      -1.839   2.749  25.324  0.00  0.00    -0.056 NA
ATOM     15  O   UNL     1      -2.658   2.690  25.400  0.00  0.00    -0.336 OA
ATOM     16  C   UNL     1      -2.914   2.066  24.925  0.00  0.00    +0.251 A 
ATOM     17  N   UNL     1      -2.253   1.739  24.555  0.00  0.00    -0.190 NA
ENDROOT
BRANCH  13  10
ATOM      4  C   UNL     1       1.698   0.959  23.372  0.00  0.00    +0.277 C 
ATOM      5  O   UNL     1       1.094   0.459  23.117  0.00  0.00    -0.270 OA
ATOM      6  N   UNL     1       1.525   1.599  23.863  0.00  0.00    -0.158 NA
ATOM      7  C   UNL     1       0.747   1.740  24.097  0.00  0.00    +0.155 A 
ATOM      8  N   UNL     1       0.572   2.380  24.588  0.00  0.00    -0.227 NA
ATOM      9  C   UNL     1      -0.206   2.520  24.822  0.00  0.00    +0.103 A 
ATOM     10  C   UNL     1      -0.810   2.021  24.567  0.00  0.00    +0.058 A 
ATOM     11  C   UNL     1      -0.637   1.380  24.076  0.00  0.00    +0.008 A 
ATOM     12  C   UNL     1       0.141   1.240  23.842  0.00  0.00    +0.036 A 
BRANCH   4   3
ATOM      3  C   UNL     1       2.476   0.818  23.138  0.00  0.00    +0.229 C 
BRANCH   3   2
ATOM      1  C   UNL     1       3.404   0.195  22.247  0.00  0.00    +0.175 C 
ATOM      2  O   UNL     1       2.635   0.282  22.531  0.00  0.00    -0.342 OA
ENDBRANCH   3   2
ENDBRANCH   4   3
ENDBRANCH  13  10
BRANCH  16  18
ATOM     18  C   UNL     1      -3.694   1.813  24.836  0.00  0.00    +0.138 C 
ATOM     19  C   UNL     1      -4.327   2.274  24.576  0.00  0.00    +0.027 C 
ATOM     20  C   UNL     1      -5.002   1.801  24.570  0.00  0.00    +0.019 C 
ATOM     21  C   UNL     1      -4.787   1.046  24.826  0.00  0.00    +0.073 C 
ATOM     22  N   UNL     1      -3.978   1.054  24.990  0.00  0.00    -0.263 NA
BRANCH  22  23
ATOM     23  C   UNL     1      -3.533   0.415  25.261  0.00  0.00    +0.099 C 
BRANCH  23  24
ATOM     24  C   UNL     1      -3.678  -0.343  24.969  0.00  0.00    -0.006 A 
ATOM     25  C   UNL     1      -3.808  -0.457  24.163  0.00  0.00    -0.003 A 
ATOM     26  C   UNL     1      -3.954  -1.215  23.871  0.00  0.00    +0.006 A 
ATOM     27  C   UNL     1      -3.969  -1.859  24.387  0.00  0.00    +0.080 A 
ATOM     28  C   UNL     1      -3.839  -1.745  25.193  0.00  0.00    +0.006 A 
ATOM     29  C   UNL     1      -3.693  -0.987  25.485  0.00  0.00    -0.003 A 
BRANCH  27  30
ATOM     30  C   UNL     1      -4.114  -2.617  24.095  0.00  0.00    +0.388 C 
ATOM     31  O   UNL     1      -3.669  -3.256  24.367  0.00  0.00    -0.241 OA
ATOM     32  O   UNL     1      -4.705  -2.736  23.530  0.00  0.00    -0.241 OA
ENDBRANCH  27  30
ENDBRANCH  23  24
ENDBRANCH  22  23
ENDBRANCH  16  18
TORSDOF 7
ENDMDL
MODEL 6
REMARK VINA RESULT:      -7.7      2.449      3.009
REMARK  Name = 
REMARK  7 active torsions:
REMARK  status: ('A' for Active; 'I' for Inactive)
REMARK    1  A    between atoms: O_2  and  C_3
REMARK    2  A    between atoms: C_3  and  C_4
REMARK    3  A    between atoms: C_10  and  C_13
REMARK    4  A    between atoms: C_16  and  C_18
REMARK    5  A    between atoms: N_22  and  C_23
REMARK    6  A    between atoms: C_23  and  C_24
REMARK    7  A    between atoms: C_27  and  C_30
REMARK                            x       y       z     vdW  Elec       q    Type
REMARK                         _______ _______ _______ _____ _____    ______ ____
ROOT
ATOM     13  C   UNL     1      -0.397   0.285  23.847  0.00  0.00    +0.205 A 
ATOM     14  N   UNL     1      -0.743  -0.240  24.381  0.00  0.00    -0.056 NA
ATOM     15  O   UNL     1      -1.509   0.024  24.540  0.00  0.00    -0.336 OA
ATOM     16  C   UNL     1      -1.636   0.712  24.103  0.00  0.00    +0.251 A 
ATOM     17  N   UNL     1      -0.948   0.874  23.676  0.00  0.00    -0.190 NA
ENDROOT
BRANCH  13  10
ATOM      4  C   UNL     1       3.221   0.640  22.810  0.00  0.00    +0.277 C 
ATOM      5  O   UNL     1       3.022   1.263  23.311  0.00  0.00    -0.270 OA
ATOM      6  N   UNL     1       2.657   0.069  22.616  0.00  0.00    -0.158 NA
ATOM      7  C   UNL     1       1.894   0.123  22.924  0.00  0.00    +0.155 A 
ATOM      8  N   UNL     1       1.329  -0.446  22.731  0.00  0.00    -0.227 NA
ATOM      9  C   UNL     1       0.566  -0.392  23.038  0.00  0.00    +0.103 A 
ATOM     10  C   UNL     1       0.367   0.231  23.539  0.00  0.00    +0.058 A 
ATOM     11  C   UNL     1       0.930   0.802  23.734  0.00  0.00    +0.008 A 
ATOM     12  C   UNL     1       1.694   0.748  23.426  0.00  0.00    +0.036 A 
BRANCH   4   3
ATOM      3  C   UNL     1       3.985   0.586  22.502  0.00  0.00    +0.229 C 
BRANCH   3   2
ATOM      1  C   UNL     1       5.274   0.224  23.000  0.00  0.00    +0.175 C 
ATOM      2  O   UNL     1       4.636   0.746  22.982  0.00  0.00    -0.342 OA
ENDBRANCH   3   2
ENDBRANCH   4   3
ENDBRANCH  13  10
BRANCH  16  18
ATOM     18  C   UNL     1      -2.328   1.161  24.096  0.00  0.00    +0.138 C 
ATOM     19  C   UNL     1      -2.993   1.019  23.628  0.00  0.00    +0.027 C 
ATOM     20  C   UNL     1      -3.553   1.600  23.797  0.00  0.00    +0.019 C 
ATOM     21  C   UNL     1      -3.234   2.102  24.370  0.00  0.00    +0.073 C 
ATOM     22  N   UNL     1      -2.477   1.830  24.554  0.00  0.00    -0.263 NA
BRANCH  22  23
ATOM     23  C   UNL     1      -1.960   2.169  25.101  0.00  0.00    +0.099 C 
BRANCH  23  24
ATOM     24  C   UNL     1      -1.871   2.988  25.132  0.00  0.00    -0.006 A 
ATOM     25  C   UNL     1      -1.208   3.344  24.795  0.00  0.00    -0.003 A 
ATOM     26  C   UNL     1      -1.119   4.164  24.826  0.00  0.00    +0.006 A 
ATOM     27  C   UNL     1      -1.694   4.627  25.195  0.00  0.00    +0.080 A 
ATOM     28  C   UNL     1      -2.357   4.271  25.532  0.00  0.00    +0.006 A 
ATOM     29  C   UNL     1      -2.446   3.452  25.501  0.00  0.00    -0.003 A 
BRANCH  27  30
ATOM     30  C   UNL     1      -1.604   5.447  25.226  0.00  0.00    +0.388 C 
ATOM     31  O   UNL     1      -0.941   5.802  24.887  0.00  0.00    -0.241 OA
ATOM     32  O   UNL     1      -2.178   5.911  25.596  0.00  0.00    -0.241 OA
ENDBRANCH  27  30
ENDBRANCH  23  24
ENDBRANCH  22  23
ENDBRANCH  16  18
TORSDOF 7
ENDMDL
MODEL 7
REMARK VINA RESULT:      -7.5      2.267      5.567
REMARK  Name = 
REMARK  7 active torsions:
REMARK  status: ('A' for Active; 'I' for Inactive)
REMARK    1  A    between atoms: O_2  and  C_3
REMARK    2  A    between atoms: C_3  and  C_4
REMARK    3  A    between atoms: C_10  and  C_13
REMARK    4  A    between atoms: C_16  and  C_18
REMARK    5  A    between atoms: N_22  and  C_23
REMARK    6  A    between atoms: C_23  and  C_24
REMARK    7  A    between atoms: C_27  and  C_30
REMARK                            x       y       z     vdW  Elec       q    Type
REMARK                         _______ _______ _______ _____ _____    ______ ____
ROOT
ATOM     13  C   UNL     1      -1.241   2.002  25.213  0.00  0.00    +0.205 A 
ATOM     14  N   UNL     1      -0.531   1.983  25.633  0.00  0.00    -0.056 NA
ATOM     15  O   UNL     1      -0.086   1.347  25.353  0.00  0.00    -0.336 OA
ATOM     16  C   UNL     1      -0.521   0.973  24.760  0.00  0.00    +0.251 A 
ATOM     17  N   UNL     1      -1.235   1.378  24.673  0.00  0.00    -0.190 NA
ENDROOT
BRANCH  13  10
ATOM      4  C   UNL     1      -4.438   4.015  25.354  0.00  0.00    +0.277 C 
ATOM      5  O   UNL     1      -4.590   3.293  24.988  0.00  0.00    -0.270 OA
ATOM      6  N   UNL     1      -3.677   4.192  25.619  0.00  0.00    -0.158 NA
ATOM      7  C   UNL     1      -3.068   3.645  25.517  0.00  0.00    +0.155 A 
ATOM      8  N   UNL     1      -2.306   3.820  25.782  0.00  0.00    -0.227 NA
ATOM      9  C   UNL     1      -1.697   3.272  25.680  0.00  0.00    +0.103 A 
ATOM     10  C   UNL     1      -1.850   2.550  25.314  0.00  0.00    +0.058 A 
ATOM     11  C   UNL     1      -2.611   2.373  25.049  0.00  0.00    +0.008 A 
ATOM     12  C   UNL     1      -3.220   2.921  25.151  0.00  0.00    +0.036 A 
BRANCH   4   3
ATOM      3  C   UNL     1      -5.047   4.563  25.456  0.00  0.00    +0.229 C 
BRANCH   3   2
ATOM      1  C   UNL     1      -6.431   4.842  25.671  0.00  0.00    +0.175 C 
ATOM      2  O   UNL     1      -5.806   4.305  25.647  0.00  0.00    -0.342 OA
ENDBRANCH   3   2
ENDBRANCH   4   3
ENDBRANCH  13  10
BRANCH  16  18
ATOM     18  C   UNL     1      -0.285   0.311  24.329  0.00  0.00    +0.138 C 
ATOM     19  C   UNL     1       0.213   0.313  23.671  0.00  0.00    +0.027 C 
ATOM     20  C   UNL     1       0.301  -0.466  23.415  0.00  0.00    +0.019 C 
ATOM     21  C   UNL     1      -0.142  -0.951  23.916  0.00  0.00    +0.073 C 
ATOM     22  N   UNL     1      -0.504  -0.470  24.481  0.00  0.00    -0.263 NA
BRANCH  22  23
ATOM     23  C   UNL     1      -0.998  -0.726  25.089  0.00  0.00    +0.099 C 
BRANCH  23  24
ATOM     24  C   UNL     1      -1.610  -1.255  24.929  0.00  0.00    -0.006 A 
ATOM     25  C   UNL     1      -2.394  -1.005  24.977  0.00  0.00    -0.003 A 
ATOM     26  C   UNL     1      -3.007  -1.534  24.817  0.00  0.00    +0.006 A 
ATOM     27  C   UNL     1      -2.834  -2.314  24.609  0.00  0.00    +0.080 A 
ATOM     28  C   UNL     1      -2.049  -2.564  24.562  0.00  0.00    +0.006 A 
ATOM     29  C   UNL     1      -1.438  -2.035  24.722  0.00  0.00    -0.003 A 
BRANCH  27  30
ATOM     30  C   UNL     1      -3.447  -2.844  24.449  0.00  0.00    +0.388 C 
ATOM     31  O   UNL     1      -3.539  -3.519  24.915  0.00  0.00    -0.241 OA
ATOM     32  O   UNL     1      -3.966  -2.698  23.824  0.00  0.00    -0.241 OA
ENDBRANCH  27  30
ENDBRANCH  23  24
ENDBRANCH  22  23
ENDBRANCH  16  18
TORSDOF 7
ENDMDL
MODEL 8
REMARK VINA RESULT:      -7.4      1.304      6.347
REMARK  Name = 
REMARK  7 active torsions:
REMARK  status: ('A' for Active; 'I' for Inactive)
REMARK    1  A    between atoms: O_2  and  C_3
REMARK    2  A    between atoms: C_3  and  C_4
REMARK    3  A    between atoms: C_10  and  C_13
REMARK    4  A    between atoms: C_16  and  C_18
REMARK    5  A    between atoms: N_22  and  C_23
REMARK    6  A    between atoms: C_23  and  C_24
REMARK    7  A    between atoms: C_27  and  C_30
REMARK                            x       y       z     vdW  Elec       q    Type
REMARK                         _______ _______ _______ _____ _____    ______ ____
ROOT
ATOM     13  C   UNL     1      -3.310   0.067  24.631  0.00  0.00    +0.205 A 
ATOM     14  N   UNL     1      -3.392  -0.498  24.035  0.00  0.00    -0.056 NA
ATOM     15  O   UNL     1      -2.708  -0.961  24.028  0.00  0.00    -0.336 OA
ATOM     16  C   UNL     1      -2.204  -0.681  24.618  0.00  0.00    +0.251 A 
ATOM     17  N   UNL     1      -2.576  -0.046  24.991  0.00  0.00    -0.190 NA
ENDROOT
BRANCH  13  10
ATOM      4  C   UNL     1      -5.325   3.175  25.388  0.00  0.00    +0.277 C 
ATOM      5  O   UNL     1      -4.569   3.396  25.145  0.00  0.00    -0.270 OA
ATOM      6  N   UNL     1      -5.528   2.376  25.431  0.00  0.00    -0.158 NA
ATOM      7  C   UNL     1      -4.974   1.799  25.231  0.00  0.00    +0.155 A 
ATOM      8  N   UNL     1      -5.175   1.000  25.274  0.00  0.00    -0.227 NA
ATOM      9  C   UNL     1      -4.620   0.423  25.074  0.00  0.00    +0.103 A 
ATOM     10  C   UNL     1      -3.864   0.644  24.831  0.00  0.00    +0.058 A 
ATOM     11  C   UNL     1      -3.662   1.443  24.788  0.00  0.00    +0.008 A 
ATOM     12  C   UNL     1      -4.216   2.020  24.988  0.00  0.00    +0.036 A 
BRANCH   4   3
ATOM      3  C   UNL     1      -5.880   3.752  25.588  0.00  0.00    +0.229 C 
BRANCH   3   2
ATOM      1  C   UNL     1      -6.226   5.138  25.572  0.00  0.00    +0.175 C 
ATOM      2  O   UNL     1      -5.655   4.544  25.626  0.00  0.00    -0.342 OA
ENDBRANCH   3   2
ENDBRANCH   4   3
ENDBRANCH  13  10
BRANCH  16  18
ATOM     18  C   UNL     1      -1.460  -0.984  24.803  0.00  0.00    +0.138 C 
ATOM     19  C   UNL     1      -1.302  -1.587  25.344  0.00  0.00    +0.027 C 
ATOM     20  C   UNL     1      -0.487  -1.713  25.356  0.00  0.00    +0.019 C 
ATOM     21  C   UNL     1      -0.140  -1.186  24.823  0.00  0.00    +0.073 C 
ATOM     22  N   UNL     1      -0.742  -0.736  24.481  0.00  0.00    -0.263 NA
BRANCH  22  23
ATOM     23  C   UNL     1      -0.642  -0.142  23.918  0.00  0.00    +0.099 C 
BRANCH  23  24
ATOM     24  C   UNL     1       0.112   0.036  23.634  0.00  0.00    -0.006 A 
ATOM     25  C   UNL     1       0.447  -0.424  23.038  0.00  0.00    -0.003 A 
ATOM     26  C   UNL     1       1.202  -0.246  22.754  0.00  0.00    +0.006 A 
ATOM     27  C   UNL     1       1.620   0.392  23.068  0.00  0.00    +0.080 A 
ATOM     28  C   UNL     1       1.284   0.852  23.665  0.00  0.00    +0.006 A 
ATOM     29  C   UNL     1       0.531   0.674  23.948  0.00  0.00    -0.003 A 
BRANCH  27  30
ATOM     30  C   UNL     1       2.374   0.570  22.785  0.00  0.00    +0.388 C 
ATOM     31  O   UNL     1       2.814   1.175  23.134  0.00  0.00    -0.241 OA
ATOM     32  O   UNL     1       2.689   0.144  22.152  0.00  0.00    -0.241 OA
ENDBRANCH  27  30
ENDBRANCH  23  24
ENDBRANCH  22  23
ENDBRANCH  16  18
TORSDOF 7
ENDMDL
