MODEL 1
REMARK VINA RESULT:      -9.4      0.000      0.000
REMARK  Name = 
REMARK  8 active torsions:
REMARK  status: ('A' for Active; 'I' for Inactive)
REMARK    1  A    between atoms: O_2  and  C_3
REMARK    2  A    between atoms: C_3  and  C_4
REMARK    3  A    between atoms: C_4  and  N_5
REMARK    4  A    between atoms: N_5  and  C_6
REMARK    5  A    between atoms: C_8  and  C_12
REMARK    6  A    between atoms: C_15  and  C_17
REMARK    7  A    between atoms: N_21  and  C_22
REMARK    8  A    between atoms: C_22  and  C_23
REMARK                            x       y       z     vdW  Elec       q    Type
REMARK                         _______ _______ _______ _____ _____    ______ ____
ROOT
ATOM     12  C   UNL     1      -0.705   2.811  25.233  0.00  0.00    +0.203 A 
ATOM     13  N   UNL     1      -0.121   2.568  25.763  0.00  0.00    -0.056 NA
ATOM     14  O   UNL     1       0.211   1.869  25.474  0.00  0.00    -0.336 OA
ATOM     15  C   UNL     1      -0.168   1.681  24.766  0.00  0.00    +0.251 A 
ATOM     16  N   UNL     1      -0.734   2.264  24.617  0.00  0.00    -0.190 NA
ENDROOT
BRANCH  12   8
ATOM      6  C   UNL     1      -2.410   4.094  25.689  0.00  0.00    +0.148 A 
ATOM      7  C   UNL     1      -1.939   3.421  25.615  0.00  0.00    +0.039 A 
ATOM      8  C   UNL     1      -1.176   3.484  25.306  0.00  0.00    +0.043 A 
ATOM      9  C   UNL     1      -0.885   4.219  25.072  0.00  0.00    +0.024 A 
ATOM     10  C   UNL     1      -1.356   4.892  25.146  0.00  0.00    +0.100 A 
ATOM     11  N   UNL     1      -2.119   4.830  25.454  0.00  0.00    -0.228 NA
BRANCH   6   5
ATOM      5  N   UNL     1      -3.173   4.032  25.997  0.00  0.00    -0.218 NA
BRANCH   5   4
ATOM      4  C   UNL     1      -3.793   3.777  25.516  0.00  0.00    +0.146 C 
BRANCH   4   3
ATOM      3  C   UNL     1      -4.527   3.601  25.849  0.00  0.00    +0.166 C 
BRANCH   3   2
ATOM      1  C   UNL     1      -5.711   2.851  25.569  0.00  0.00    +0.174 C 
ATOM      2  O   UNL     1      -5.173   3.441  25.362  0.00  0.00    -0.349 OA
ENDBRANCH   3   2
ENDBRANCH   4   3
ENDBRANCH   5   4
ENDBRANCH   6   5
ENDBRANCH  12   8
BRANCH  15  17
ATOM     17  C   UNL     1      -0.009   1.027  24.289  0.00  0.00    +0.138 C 
ATOM     18  C   UNL     1       0.482   1.017  23.626  0.00  0.00    +0.027 C 
ATOM     19  C   UNL     1       0.481   0.251  23.320  0.00  0.00    +0.019 C 
ATOM     20  C   UNL     1      -0.011  -0.212  23.793  0.00  0.00    +0.073 C 
ATOM     21  N   UNL     1      -0.314   0.267  24.392  0.00  0.00    -0.263 NA
BRANCH  21  22
ATOM     22  C   UNL     1      -0.831   0.028  24.989  0.00  0.00    +0.100 C 
BRANCH  22  23
ATOM     23  C   UNL     1      -1.222  -0.695  24.931  0.00  0.00    -0.003 A 
ATOM     24  C   UNL     1      -1.992  -0.725  24.635  0.00  0.00    +0.018 A 
ATOM     25  C   UNL     1      -2.384  -1.448  24.577  0.00  0.00    +0.099 A 
ATOM     26  N   UNL     1      -2.006  -2.142  24.814  0.00  0.00    -0.242 NA
ATOM     27  C   UNL     1      -1.237  -2.113  25.110  0.00  0.00    +0.099 A 
ATOM     28  C   UNL     1      -0.845  -1.389  25.168  0.00  0.00    +0.018 A 
ENDBRANCH  22  23
ENDBRANCH  21  22
ENDBRANCH  15  17
TORSDOF 8
ENDMDL
MODEL 2
REMARK VINA RESULT:      -9.4      1.316      4.725
REMARK  Name = 
REMARK  8 active torsions:
REMARK  status: ('A' for Active; 'I' for Inactive)
REMARK    1  A    between atoms: O_2  and  C_3
REMARK    2  A    between atoms: C_3  and  C_4
REMARK    3  A    between atoms: C_4  and  N_5
REMARK    4  A    between atoms: N_5  and  C_6
REMARK    5  A    between atoms: C_8  and  C_12
REMARK    6  A    between atoms: C_15  and  C_17
REMARK    7  A    between atoms: N_21  and  C_22
REMARK    8  A    between atoms: C_22  and  C_23
REMARK                            x       y       z     vdW  Elec       q    Type
REMARK                         _______ _______ _______ _____ _____    ______ ____
ROOT
ATOM     12  C   UNL     1      -0.466   1.584  25.035  0.00  0.00    +0.203 A 
ATOM     13  N   UNL     1      -0.217   1.772  25.799  0.00  0.00    -0.056 NA
ATOM     14  O   UNL     1      -0.479   2.535  25.973  0.00  0.00    -0.336 OA
ATOM     15  C   UNL     1      -0.891   2.818  25.316  0.00  0.00    +0.251 A 
ATOM     16  N   UNL     1      -0.882   2.230  24.737  0.00  0.00    -0.190 NA
ENDROOT
BRANCH  12   8
ATOM      6  C   UNL     1      -0.535  -0.533  24.509  0.00  0.00    +0.148 A 
ATOM      7  C   UNL     1      -0.677   0.177  24.904  0.00  0.00    +0.039 A 
ATOM      8  C   UNL     1      -0.324   0.874  24.640  0.00  0.00    +0.043 A 
ATOM      9  C   UNL     1       0.171   0.862  23.980  0.00  0.00    +0.024 A 
ATOM     10  C   UNL     1       0.313   0.152  23.585  0.00  0.00    +0.100 A 
ATOM     11  N   UNL     1      -0.039  -0.546  23.849  0.00  0.00    -0.228 NA
BRANCH   6   5
ATOM      5  N   UNL     1      -0.887  -1.230  24.773  0.00  0.00    -0.218 NA
BRANCH   5   4
ATOM      4  C   UNL     1      -1.576  -1.507  24.412  0.00  0.00    +0.146 C 
BRANCH   4   3
ATOM      3  C   UNL     1      -1.988  -2.142  24.742  0.00  0.00    +0.166 C 
BRANCH   3   2
ATOM      1  C   UNL     1      -3.315  -2.671  24.717  0.00  0.00    +0.174 C 
ATOM      2  O   UNL     1      -2.610  -2.489  24.328  0.00  0.00    -0.349 OA
ENDBRANCH   3   2
ENDBRANCH   4   3
ENDBRANCH   5   4
ENDBRANCH   6   5
ENDBRANCH  12   8
BRANCH  15  17
ATOM     17  C   UNL     1      -1.247   3.559  25.250  0.00  0.00    +0.138 C 
ATOM     18  C   UNL     1      -0.862   4.269  25.082  0.00  0.00    +0.027 C 
ATOM     19  C   UNL     1      -1.429   4.869  25.068  0.00  0.00    +0.019 C 
ATOM     20  C   UNL     1      -2.164   4.530  25.227  0.00  0.00    +0.073 C 
ATOM     21  N   UNL     1      -2.052   3.720  25.339  0.00  0.00    -0.263 NA
BRANCH  21  22
ATOM     22  C   UNL     1      -2.640   3.168  25.511  0.00  0.00    +0.100 C 
BRANCH  22  23
ATOM     23  C   UNL     1      -3.432   3.353  25.373  0.00  0.00    -0.003 A 
ATOM     24  C   UNL     1      -3.894   3.667  25.981  0.00  0.00    +0.018 A 
ATOM     25  C   UNL     1      -4.686   3.852  25.844  0.00  0.00    +0.099 A 
ATOM     26  N   UNL     1      -5.016   3.724  25.099  0.00  0.00    -0.242 NA
ATOM     27  C   UNL     1      -4.555   3.411  24.491  0.00  0.00    +0.099 A 
ATOM     28  C   UNL     1      -3.763   3.225  24.629  0.00  0.00    +0.018 A 
ENDBRANCH  22  23
ENDBRANCH  21  22
ENDBRANCH  15  17
TORSDOF 8
ENDMDL
MODEL 3
REMARK VINA RESULT:      -9.3      1.952      3.288
REMARK  Name = 
REMARK  8 active torsions:
REMARK  status: ('A' for Active; 'I' for Inactive)
REMARK    1  A    between atoms: O_2  and  C_3
REMARK    2  A    between atoms: C_3  and  C_4
REMARK    3  A    between atoms: C_4  and  N_5
REMARK    4  A    between atoms: N_5  and  C_6
REMARK    5  A    between atoms: C_8  and  C_12
REMARK    6  A    between atoms: C_15  and  C_17
REMARK    7  A    between atoms: N_21  and  C_22
REMARK    8  A    between atoms: C_22  and  C_23
REMARK                            x       y       z     vdW  Elec       q    Type
REMARK                         _______ _______ _______ _____ _____    ______ ____
ROOT
ATOM     12  C   UNL     1      -4.086   1.601  24.449  0.00  0.00    +0.203 A 
ATOM     13  N   UNL     1      -3.937   1.532  23.640  0.00  0.00    -0.056 NA
ATOM     14  O   UNL     1      -3.773   0.740  23.477  0.00  0.00    -0.336 OA
ATOM     15  C   UNL     1      -3.821   0.319  24.186  0.00  0.00    +0.251 A 
ATOM     16  N   UNL     1      -4.014   0.852  24.786  0.00  0.00    -0.190 NA
ENDROOT
BRANCH  12   8
ATOM      6  C   UNL     1      -3.860   3.478  25.540  0.00  0.00    +0.148 A 
ATOM      7  C   UNL     1      -3.672   2.782  25.139  0.00  0.00    +0.039 A 
ATOM      8  C   UNL     1      -4.274   2.298  24.849  0.00  0.00    +0.043 A 
ATOM      9  C   UNL     1      -5.063   2.509  24.959  0.00  0.00    +0.024 A 
ATOM     10  C   UNL     1      -5.252   3.205  25.360  0.00  0.00    +0.100 A 
ATOM     11  N   UNL     1      -4.651   3.690  25.650  0.00  0.00    -0.228 NA
BRANCH   6   5
ATOM      5  N   UNL     1      -3.259   3.963  25.830  0.00  0.00    -0.218 NA
BRANCH   5   4
ATOM      4  C   UNL     1      -2.703   4.285  25.313  0.00  0.00    +0.146 C 
BRANCH   4   3
ATOM      3  C   UNL     1      -1.996   4.592  25.608  0.00  0.00    +0.166 C 
BRANCH   3   2
ATOM      1  C   UNL     1      -0.829   5.053  24.924  0.00  0.00    +0.174 C 
ATOM      2  O   UNL     1      -1.598   5.183  25.192  0.00  0.00    -0.349 OA
ENDBRANCH   3   2
ENDBRANCH   4   3
ENDBRANCH   5   4
ENDBRANCH   6   5
ENDBRANCH  12   8
BRANCH  15  17
ATOM     17  C   UNL     1      -3.697  -0.491  24.278  0.00  0.00    +0.138 C 
ATOM     18  C   UNL     1      -4.274  -1.078  24.230  0.00  0.00    +0.027 C 
ATOM     19  C   UNL     1      -3.908  -1.807  24.357  0.00  0.00    +0.019 C 
ATOM     20  C   UNL     1      -3.105  -1.669  24.484  0.00  0.00    +0.073 C 
ATOM     21  N   UNL     1      -2.974  -0.856  24.435  0.00  0.00    -0.263 NA
BRANCH  21  22
ATOM     22  C   UNL     1      -2.248  -0.475  24.528  0.00  0.00    +0.100 C 
BRANCH  22  23
ATOM     23  C   UNL     1      -1.606  -0.883  24.847  0.00  0.00    -0.003 A 
ATOM     24  C   UNL     1      -1.107  -1.319  24.354  0.00  0.00    +0.018 A 
ATOM     25  C   UNL     1      -0.466  -1.726  24.673  0.00  0.00    +0.099 A 
ATOM     26  N   UNL     1      -0.321  -1.699  25.485  0.00  0.00    -0.242 NA
ATOM     27  C   UNL     1      -0.819  -1.264  25.978  0.00  0.00    +0.099 A 
ATOM     28  C   UNL     1      -1.462  -0.856  25.658  0.00  0.00    +0.018 A 
ENDBRANCH  22  23
ENDBRANCH  21  22
ENDBRANCH  15  17
TORSDOF 8
ENDMDL
MODEL 4
REMARK VINA RESULT:      -9.3      1.605      3.961
REMARK  Name = 
REMARK  8 active torsions:
REMARK  status: ('A' for Active; 'I' for Inactive)
REMARK    1  A    between atoms: O_2  and  C_3
REMARK    2  A    between atoms: C_3  and  C_4
REMARK    3  A    between atoms: C_4  and  N_5
REMARK    4  A    between atoms: N_5  and  C_6
REMARK    5  A    between atoms: C_8  and  C_12
REMARK    6  A    between atoms: C_15  and  C_17
REMARK    7  A    between atoms: N_21  and  C_22
REMARK    8  A    between atoms: C_22  and  C_23
REMARK                            x       y       z     vdW  Elec       q    Type
REMARK                         _______ _______ _______ _____ _____    ______ ____
ROOT
ATOM     12  C   UNL     1      -3.116   3.307  24.695  0.00  0.00    +0.203 A 
ATOM     13  N   UNL     1      -3.560   3.461  24.016  0.00  0.00    -0.056 NA
ATOM     14  O   UNL     1      -4.233   2.983  24.038  0.00  0.00    -0.336 OA
ATOM     15  C   UNL     1      -4.204   2.533  24.729  0.00  0.00    +0.251 A 
ATOM     16  N   UNL     1      -3.513   2.733  25.135  0.00  0.00    -0.190 NA
ENDROOT
BRANCH  12   8
ATOM      6  C   UNL     1      -0.996   3.566  25.143  0.00  0.00    +0.148 A 
ATOM      7  C   UNL     1      -1.712   3.210  24.941  0.00  0.00    +0.039 A 
ATOM      8  C   UNL     1      -2.400   3.663  24.897  0.00  0.00    +0.043 A 
ATOM      9  C   UNL     1      -2.372   4.472  25.053  0.00  0.00    +0.024 A 
ATOM     10  C   UNL     1      -1.656   4.829  25.255  0.00  0.00    +0.100 A 
ATOM     11  N   UNL     1      -0.968   4.377  25.301  0.00  0.00    -0.228 NA
BRANCH   6   5
ATOM      5  N   UNL     1      -0.308   3.114  25.189  0.00  0.00    -0.218 NA
BRANCH   5   4
ATOM      4  C   UNL     1      -0.053   2.683  24.533  0.00  0.00    +0.146 C 
BRANCH   4   3
ATOM      3  C   UNL     1       0.455   2.040  24.634  0.00  0.00    +0.166 C 
BRANCH   3   2
ATOM      1  C   UNL     1       1.033   1.075  23.754  0.00  0.00    +0.174 C 
ATOM      2  O   UNL     1       0.997   1.846  24.043  0.00  0.00    -0.349 OA
ENDBRANCH   3   2
ENDBRANCH   4   3
ENDBRANCH   5   4
ENDBRANCH   6   5
ENDBRANCH  12   8
BRANCH  15  17
ATOM     17  C   UNL     1      -4.765   1.980  24.972  0.00  0.00    +0.138 C 
ATOM     18  C   UNL     1      -5.488   2.150  25.333  0.00  0.00    +0.027 C 
ATOM     19  C   UNL     1      -5.873   1.435  25.481  0.00  0.00    +0.019 C 
ATOM     20  C   UNL     1      -5.389   0.824  25.211  0.00  0.00    +0.073 C 
ATOM     21  N   UNL     1      -4.704   1.161  24.896  0.00  0.00    -0.263 NA
BRANCH  21  22
ATOM     22  C   UNL     1      -4.071   0.751  24.564  0.00  0.00    +0.100 C 
BRANCH  22  23
ATOM     23  C   UNL     1      -4.024  -0.069  24.641  0.00  0.00    -0.003 A 
ATOM     24  C   UNL     1      -4.289  -0.557  24.030  0.00  0.00    +0.018 A 
ATOM     25  C   UNL     1      -4.242  -1.376  24.107  0.00  0.00    +0.099 A 
ATOM     26  N   UNL     1      -3.931  -1.709  24.795  0.00  0.00    -0.242 NA
ATOM     27  C   UNL     1      -3.667  -1.223  25.406  0.00  0.00    +0.099 A 
ATOM     28  C   UNL     1      -3.713  -0.402  25.329  0.00  0.00    +0.018 A 
ENDBRANCH  22  23
ENDBRANCH  21  22
ENDBRANCH  15  17
TORSDOF 8
ENDMDL
MODEL 5
REMARK VINA RESULT:      -8.9      1.872      4.333
REMARK  Name = 
REMARK  8 active torsions:
REMARK  status: ('A' for Active; 'I' for Inactive)
REMARK    1  A    between atoms: O_2  and  C_3
REMARK    2  A    between atoms: C_3  and  C_4
REMARK    3  A    between atoms: C_4  and  N_5
REMARK    4  A    between atoms: N_5  and  C_6
REMARK    5  A    between atoms: C_8  and  C_12
REMARK    6  A    between atoms: C_15  and  C_17
REMARK    7  A    between atoms: N_21  and  C_22
REMARK    8  A    between atoms: C_22  and  C_23
REMARK                            x       y       z     vdW  Elec       q    Type
REMARK                         _______ _______ _______ _____ _____    ______ ____
ROOT
ATOM     12  C   UNL     1      -4.140   3.170  25.539  0.00  0.00    +0.203 A 
ATOM     13  N   UNL     1      -4.219   3.690  26.175  0.00  0.00    -0.056 NA
ATOM     14  O   UNL     1      -3.546   4.167  26.200  0.00  0.00    -0.336 OA
ATOM     15  C   UNL     1      -3.052   3.942  25.579  0.00  0.00    +0.251 A 
ATOM     16  N   UNL     1      -3.419   3.326  25.171  0.00  0.00    -0.190 NA
ENDROOT
BRANCH  12   8
ATOM      6  C   UNL     1      -4.970   1.298  24.784  0.00  0.00    +0.148 A 
ATOM      7  C   UNL     1      -4.424   1.872  25.011  0.00  0.00    +0.039 A 
ATOM      8  C   UNL     1      -4.686   2.595  25.312  0.00  0.00    +0.043 A 
ATOM      9  C   UNL     1      -5.494   2.742  25.385  0.00  0.00    +0.024 A 
ATOM     10  C   UNL     1      -6.041   2.167  25.158  0.00  0.00    +0.100 A 
ATOM     11  N   UNL     1      -5.779   1.445  24.858  0.00  0.00    -0.228 NA
BRANCH   6   5
ATOM      5  N   UNL     1      -4.709   0.575  24.483  0.00  0.00    -0.218 NA
BRANCH   5   4
ATOM      4  C   UNL     1      -4.399   0.004  24.992  0.00  0.00    +0.146 C 
BRANCH   4   3
ATOM      3  C   UNL     1      -4.079  -0.691  24.684  0.00  0.00    +0.166 C 
BRANCH   3   2
ATOM      1  C   UNL     1      -3.576  -2.014  24.883  0.00  0.00    +0.174 C 
ATOM      2  O   UNL     1      -3.855  -1.302  25.192  0.00  0.00    -0.349 OA
ENDBRANCH   3   2
ENDBRANCH   4   3
ENDBRANCH   5   4
ENDBRANCH   6   5
ENDBRANCH  12   8
BRANCH  15  17
ATOM     17  C   UNL     1      -2.319   4.275  25.398  0.00  0.00    +0.138 C 
ATOM     18  C   UNL     1      -2.187   5.052  25.152  0.00  0.00    +0.027 C 
ATOM     19  C   UNL     1      -1.375   5.146  25.033  0.00  0.00    +0.019 C 
ATOM     20  C   UNL     1      -1.007   4.428  25.204  0.00  0.00    +0.073 C 
ATOM     21  N   UNL     1      -1.590   3.889  25.429  0.00  0.00    -0.263 NA
BRANCH  21  22
ATOM     22  C   UNL     1      -1.466   3.104  25.648  0.00  0.00    +0.100 C 
BRANCH  22  23
ATOM     23  C   UNL     1      -0.742   2.742  25.491  0.00  0.00    -0.003 A 
ATOM     24  C   UNL     1      -0.588   2.436  24.740  0.00  0.00    +0.018 A 
ATOM     25  C   UNL     1       0.135   2.073  24.582  0.00  0.00    +0.099 A 
ATOM     26  N   UNL     1       0.706   2.016  25.175  0.00  0.00    -0.242 NA
ATOM     27  C   UNL     1       0.553   2.321  25.926  0.00  0.00    +0.099 A 
ATOM     28  C   UNL     1      -0.172   2.684  26.084  0.00  0.00    +0.018 A 
ENDBRANCH  22  23
ENDBRANCH  21  22
ENDBRANCH  15  17
TORSDOF 8
ENDMDL
MODEL 6
REMARK VINA RESULT:      -8.9      1.787      5.484
REMARK  Name = 
REMARK  8 active torsions:
REMARK  status: ('A' for Active; 'I' for Inactive)
REMARK    1  A    between atoms: O_2  and  C_3
REMARK    2  A    between atoms: C_3  and  C_4
REMARK    3  A    between atoms: C_4  and  N_5
REMARK    4  A    between atoms: N_5  and  C_6
REMARK    5  A    between atoms: C_8  and  C_12
REMARK    6  A    between atoms: C_15  and  C_17
REMARK    7  A    between atoms: N_21  and  C_22
REMARK    8  A    between atoms: C_22  and  C_23
REMARK                            x       y       z     vdW  Elec       q    Type
REMARK                         _______ _______ _______ _____ _____    ______ ____
ROOT
ATOM     12  C   UNL     1      -4.074   0.258  24.730  0.00  0.00    +0.203 A 
ATOM     13  N   UNL     1      -4.572   0.512  25.338  0.00  0.00    -0.056 NA
ATOM     14  O   UNL     1      -4.652   1.331  25.277  0.00  0.00    -0.336 OA
ATOM     15  C   UNL     1      -4.203   1.583  24.632  0.00  0.00    +0.251 A 
ATOM     16  N   UNL     1      -3.847   0.920  24.295  0.00  0.00    -0.190 NA
ENDROOT
BRANCH  12   8
ATOM      6  C   UNL     1      -2.871  -1.562  24.678  0.00  0.00    +0.148 A 
ATOM      7  C   UNL     1      -3.100  -0.783  24.824  0.00  0.00    +0.039 A 
ATOM      8  C   UNL     1      -3.845  -0.521  24.585  0.00  0.00    +0.043 A 
ATOM      9  C   UNL     1      -4.361  -1.037  24.201  0.00  0.00    +0.024 A 
ATOM     10  C   UNL     1      -4.131  -1.816  24.056  0.00  0.00    +0.100 A 
ATOM     11  N   UNL     1      -3.387  -2.079  24.294  0.00  0.00    -0.228 NA
BRANCH   6   5
ATOM      5  N   UNL     1      -2.126  -1.824  24.916  0.00  0.00    -0.218 NA
BRANCH   5   4
ATOM      4  C   UNL     1      -1.456  -1.617  24.481  0.00  0.00    +0.146 C 
BRANCH   4   3
ATOM      3  C   UNL     1      -0.735  -1.503  24.865  0.00  0.00    +0.166 C 
BRANCH   3   2
ATOM      1  C   UNL     1       0.190  -0.649  24.188  0.00  0.00    +0.174 C 
ATOM      2  O   UNL     1      -0.045  -1.404  24.424  0.00  0.00    -0.349 OA
ENDBRANCH   3   2
ENDBRANCH   4   3
ENDBRANCH   5   4
ENDBRANCH   6   5
ENDBRANCH  12   8
BRANCH  15  17
ATOM     17  C   UNL     1      -4.125   2.362  24.371  0.00  0.00    +0.138 C 
ATOM     18  C   UNL     1      -4.626   2.748  23.841  0.00  0.00    +0.027 C 
ATOM     19  C   UNL     1      -4.343   3.516  23.736  0.00  0.00    +0.019 C 
ATOM     20  C   UNL     1      -3.667   3.604  24.200  0.00  0.00    +0.073 C 
ATOM     21  N   UNL     1      -3.532   2.890  24.592  0.00  0.00    -0.263 NA
BRANCH  21  22
ATOM     22  C   UNL     1      -2.913   2.734  25.114  0.00  0.00    +0.100 C 
BRANCH  22  23
ATOM     23  C   UNL     1      -2.260   3.237  25.143  0.00  0.00    -0.003 A 
ATOM     24  C   UNL     1      -1.575   3.048  24.723  0.00  0.00    +0.018 A 
ATOM     25  C   UNL     1      -0.922   3.551  24.752  0.00  0.00    +0.099 A 
ATOM     26  N   UNL     1      -0.953   4.243  25.200  0.00  0.00    -0.242 NA
ATOM     27  C   UNL     1      -1.638   4.432  25.620  0.00  0.00    +0.099 A 
ATOM     28  C   UNL     1      -2.291   3.929  25.591  0.00  0.00    +0.018 A 
ENDBRANCH  22  23
ENDBRANCH  21  22
ENDBRANCH  15  17
TORSDOF 8
ENDMDL
MODEL 7
REMARK VINA RESULT:      -8.7      1.428      5.332
REMARK  Name = 
REMARK  8 active torsions:
REMARK  status: ('A' for Active; 'I' for Inactive)
REMARK    1  A    between atoms: O_2  and  C_3
REMARK    2  A    between atoms: C_3  and  C_4
REMARK    3  A    between atoms: C_4  and  N_5
REMARK    4  A    between atoms: N_5  and  C_6
REMARK    5  A    between atoms: C_8  and  C_12
REMARK    6  A    between atoms: C_15  and  C_17
REMARK    7  A    between atoms: N_21  and  C_22
REMARK    8  A    between atoms: C_22  and  C_23
REMARK                            x       y       z     vdW  Elec       q    Type
REMARK                         _______ _______ _______ _____ _____    ______ ____
ROOT
ATOM     12  C   UNL     1      -0.497   1.450  24.991  0.00  0.00    +0.203 A 
ATOM     13  N   UNL     1      -0.329   1.590  25.787  0.00  0.00    -0.056 NA
ATOM     14  O   UNL     1      -0.604   2.345  25.977  0.00  0.00    -0.336 OA
ATOM     15  C   UNL     1      -0.942   2.671  25.299  0.00  0.00    +0.251 A 
ATOM     16  N   UNL     1      -0.876   2.118  24.690  0.00  0.00    -0.190 NA
ENDROOT
BRANCH  12   8
ATOM      6  C   UNL     1       0.415   0.098  23.541  0.00  0.00    +0.148 A 
ATOM      7  C   UNL     1       0.236   0.785  23.961  0.00  0.00    +0.039 A 
ATOM      8  C   UNL     1      -0.318   0.762  24.572  0.00  0.00    +0.043 A 
ATOM      9  C   UNL     1      -0.693   0.054  24.763  0.00  0.00    +0.024 A 
ATOM     10  C   UNL     1      -0.514  -0.634  24.343  0.00  0.00    +0.100 A 
ATOM     11  N   UNL     1       0.040  -0.612  23.732  0.00  0.00    -0.228 NA
BRANCH   6   5
ATOM      5  N   UNL     1       0.969   0.119  22.931  0.00  0.00    -0.218 NA
BRANCH   5   4
ATOM      4  C   UNL     1       1.774   0.059  23.101  0.00  0.00    +0.146 C 
BRANCH   4   3
ATOM      3  C   UNL     1       2.332   0.169  22.503  0.00  0.00    +0.166 C 
BRANCH   3   2
ATOM      1  C   UNL     1       3.687   0.595  22.349  0.00  0.00    +0.174 C 
ATOM      2  O   UNL     1       3.134   0.070  22.664  0.00  0.00    -0.349 OA
ENDBRANCH   3   2
ENDBRANCH   4   3
ENDBRANCH   5   4
ENDBRANCH   6   5
ENDBRANCH  12   8
BRANCH  15  17
ATOM     17  C   UNL     1      -1.285   3.418  25.239  0.00  0.00    +0.138 C 
ATOM     18  C   UNL     1      -0.884   4.127  25.107  0.00  0.00    +0.027 C 
ATOM     19  C   UNL     1      -1.441   4.736  25.088  0.00  0.00    +0.019 C 
ATOM     20  C   UNL     1      -2.186   4.403  25.208  0.00  0.00    +0.073 C 
ATOM     21  N   UNL     1      -2.090   3.589  25.301  0.00  0.00    -0.263 NA
BRANCH  21  22
ATOM     22  C   UNL     1      -2.693   3.042  25.434  0.00  0.00    +0.100 C 
BRANCH  22  23
ATOM     23  C   UNL     1      -3.479   3.258  25.314  0.00  0.00    -0.003 A 
ATOM     24  C   UNL     1      -3.832   3.138  24.577  0.00  0.00    +0.018 A 
ATOM     25  C   UNL     1      -4.619   3.354  24.457  0.00  0.00    +0.099 A 
ATOM     26  N   UNL     1      -5.054   3.689  25.072  0.00  0.00    -0.242 NA
ATOM     27  C   UNL     1      -4.702   3.809  25.809  0.00  0.00    +0.099 A 
ATOM     28  C   UNL     1      -3.914   3.593  25.929  0.00  0.00    +0.018 A 
ENDBRANCH  22  23
ENDBRANCH  21  22
ENDBRANCH  15  17
TORSDOF 8
ENDMDL
