REMARK  Name = 
REMARK  5 active torsions:
REMARK  status: ('A' for Active; 'I' for Inactive)
REMARK    1  A    between atoms: N_2  and  C_4
REMARK    2  A    between atoms: C_7  and  C_10
REMARK    3  A    between atoms: C_13  and  C_15
REMARK    4  A    between atoms: N_18  and  S_20
REMARK    5  A    between atoms: S_20  and  C_23
REMARK                            x       y       z     vdW  Elec       q    Type
REMARK                         _______ _______ _______ _____ _____    ______ ____
ROOT
ATOM     10  C   UNL     1       2.024  -3.865   0.000  0.00  0.00    +0.250 A 
ATOM     11  N   UNL     1       2.692  -4.350   0.000  0.00  0.00    -0.107 NA
ATOM     12  N   UNL     1       2.437  -5.135   0.000  0.00  0.00    -0.111 NA
ATOM     13  C   UNL     1       1.612  -5.135   0.000  0.00  0.00    +0.227 A 
ATOM     14  O   UNL     1       1.357  -4.350   0.000  0.00  0.00    -0.419 OA
ENDROOT
BRANCH  10   7
ATOM      4  C   UNL     1       2.024  -1.391   0.000  0.00  0.00    +0.048 A 
ATOM      5  C   UNL     1       2.739  -1.803   0.000  0.00  0.00    +0.015 A 
ATOM      6  C   UNL     1       2.739  -2.628   0.000  0.00  0.00    +0.006 A 
ATOM      7  C   UNL     1       2.024  -3.041   0.000  0.00  0.00    +0.055 A 
ATOM      8  C   UNL     1       1.310  -2.628   0.000  0.00  0.00    +0.006 A 
ATOM      9  C   UNL     1       1.310  -1.803   0.000  0.00  0.00    +0.015 A 
BRANCH   4   2
ATOM      1  C   UNL     1       1.310  -0.153   0.000  0.00  0.00    +0.112 C 
ATOM      2  N   UNL     1       2.024  -0.566   0.000  0.00  0.00    -0.304 N 
ATOM      3  C   UNL     1       2.739  -0.153   0.000  0.00  0.00    +0.112 C 
ENDBRANCH   4   2
ENDBRANCH  10   7
BRANCH  13  15
ATOM     15  C   UNL     1       1.127  -5.802   0.000  0.00  0.00    +0.097 C 
ATOM     16  C   UNL     1       1.382  -6.587   0.000  0.00  0.00    +0.030 C 
ATOM     17  C   UNL     1       0.715  -7.072   0.000  0.00  0.00    +0.096 C 
ATOM     18  N   UNL     1       0.047  -6.587   0.000  0.00  0.00    -0.155 NA
ATOM     19  C   UNL     1       0.302  -5.802   0.000  0.00  0.00    +0.105 C 
BRANCH  18  20
ATOM     20  S   UNL     1      -0.738  -6.842   0.000  0.00  0.00    +0.063 S 
ATOM     21  O   UNL     1      -0.993  -6.057   0.000  0.00  0.00    -0.153 OA
ATOM     22  O   UNL     1      -0.483  -7.627   0.000  0.00  0.00    -0.153 OA
BRANCH  20  23
ATOM     23  C   UNL     1      -1.522  -7.097   0.000  0.00  0.00    +0.122 A 
ATOM     24  C   UNL     1      -1.694  -7.904   0.000  0.00  0.00    +0.020 A 
ATOM     25  C   UNL     1      -2.478  -8.159   0.000  0.00  0.00    +0.001 A 
ATOM     26  C   UNL     1      -3.091  -7.607   0.000  0.00  0.00    +0.000 A 
ATOM     27  C   UNL     1      -2.920  -6.800   0.000  0.00  0.00    +0.001 A 
ATOM     28  C   UNL     1      -2.135  -6.545   0.000  0.00  0.00    +0.020 A 
ENDBRANCH  20  23
ENDBRANCH  18  20
ENDBRANCH  13  15
TORSDOF 5
