MODEL 1
REMARK VINA RESULT:     -10.3      0.000      0.000
REMARK  Name = 
REMARK  6 active torsions:
REMARK  status: ('A' for Active; 'I' for Inactive)
REMARK    1  A    between atoms: C_2  and  C_4
REMARK    2  A    between atoms: C_4  and  O_5
REMARK    3  A    between atoms: O_5  and  C_6
REMARK    4  A    between atoms: C_6  and  C_7
REMARK    5  A    between atoms: N_9  and  C_10
REMARK    6  A    between atoms: C_21  and  C_24
REMARK                            x       y       z     vdW  Elec       q    Type
REMARK                         _______ _______ _______ _____ _____    ______ ____
ROOT
ATOM     10  C   UNL     1       1.135   0.544  23.363  0.00  0.00    +0.124 C 
ATOM     11  C   UNL     1       0.908  -0.199  23.084  0.00  0.00    +0.045 C 
ATOM     12  C   UNL     1       0.102  -0.289  23.229  0.00  0.00    +0.096 C 
ATOM     13  N   UNL     1      -0.171   0.397  23.598  0.00  0.00    -0.268 N 
ATOM     14  C   UNL     1       0.468   0.912  23.680  0.00  0.00    +0.174 C 
ATOM     15  C   UNL     1       0.481   1.666  24.014  0.00  0.00    +0.265 C 
ATOM     16  O   UNL     1       1.215   2.045  24.014  0.00  0.00    -0.271 OA
ATOM     17  N   UNL     1      -0.141   2.092  24.347  0.00  0.00    -0.178 NA
ATOM     18  C   UNL     1      -0.932   1.869  24.429  0.00  0.00    +0.078 A 
ATOM     19  C   UNL     1      -1.293   1.164  24.198  0.00  0.00    +0.069 A 
ATOM     20  C   UNL     1      -2.100   1.051  24.333  0.00  0.00    +0.006 A 
ATOM     21  C   UNL     1      -2.544   1.642  24.699  0.00  0.00    +0.000 A 
ATOM     22  C   UNL     1      -2.182   2.347  24.929  0.00  0.00    +0.001 A 
ATOM     23  C   UNL     1      -1.376   2.460  24.794  0.00  0.00    +0.017 A 
ATOM     33  C   UNL     1      -0.954   0.509  23.828  0.00  0.00    +0.251 C 
ATOM     34  O   UNL     1      -1.468  -0.116  23.667  0.00  0.00    -0.270 OA
ENDROOT
BRANCH  21  24
ATOM     24  C   UNL     1      -3.349   1.529  24.833  0.00  0.00    +0.003 A 
ATOM     25  C   UNL     1      -3.880   2.148  24.704  0.00  0.00    +0.040 A 
ATOM     26  C   UNL     1      -4.686   2.034  24.838  0.00  0.00    +0.176 A 
ATOM     27  C   UNL     1      -4.961   1.302  25.102  0.00  0.00    +0.176 A 
ATOM     28  O   UNL     1      -5.781   1.353  25.187  0.00  0.00    -0.435 OA
ATOM     29  C   UNL     1      -6.011   2.117  24.975  0.00  0.00    +0.429 C 
ATOM     30  O   UNL     1      -5.335   2.538  24.760  0.00  0.00    -0.435 OA
ATOM     31  C   UNL     1      -4.431   0.684  25.231  0.00  0.00    +0.040 A 
ATOM     32  C   UNL     1      -3.625   0.797  25.097  0.00  0.00    +0.003 A 
ENDBRANCH  21  24
BRANCH  10   9
ATOM      7  C   UNL     1       2.472   0.507  22.858  0.00  0.00    +0.272 C 
ATOM      8  O   UNL     1       2.288  -0.166  22.419  0.00  0.00    -0.271 OA
ATOM      9  N   UNL     1       1.895   0.862  23.330  0.00  0.00    -0.203 NA
BRANCH   7   6
ATOM      6  C   UNL     1       3.232   0.825  22.825  0.00  0.00    +0.229 C 
BRANCH   6   5
ATOM      5  O   UNL     1       3.874   0.391  23.108  0.00  0.00    -0.333 OA
BRANCH   5   4
ATOM      4  C   UNL     1       4.628   0.725  23.112  0.00  0.00    +0.257 C 
BRANCH   4   2
ATOM      1  O   UNL     1       5.726  -0.190  23.122  0.00  0.00    -0.243 OA
ATOM      2  C   UNL     1       5.243   0.351  23.515  0.00  0.00    +0.394 C 
ATOM      3  O   UNL     1       5.376   0.518  24.312  0.00  0.00    -0.243 OA
ENDBRANCH   4   2
ENDBRANCH   5   4
ENDBRANCH   6   5
ENDBRANCH   7   6
ENDBRANCH  10   9
TORSDOF 6
ENDMDL
MODEL 2
REMARK VINA RESULT:      -9.5      1.104      1.532
REMARK  Name = 
REMARK  6 active torsions:
REMARK  status: ('A' for Active; 'I' for Inactive)
REMARK    1  A    between atoms: C_2  and  C_4
REMARK    2  A    between atoms: C_4  and  O_5
REMARK    3  A    between atoms: O_5  and  C_6
REMARK    4  A    between atoms: C_6  and  C_7
REMARK    5  A    between atoms: N_9  and  C_10
REMARK    6  A    between atoms: C_21  and  C_24
REMARK                            x       y       z     vdW  Elec       q    Type
REMARK                         _______ _______ _______ _____ _____    ______ ____
ROOT
ATOM     10  C   UNL     1      -0.103   0.278  23.692  0.00  0.00    +0.124 C 
ATOM     11  C   UNL     1      -0.161  -0.361  24.212  0.00  0.00    +0.045 C 
ATOM     12  C   UNL     1      -0.900  -0.324  24.578  0.00  0.00    +0.096 C 
ATOM     13  N   UNL     1      -1.298   0.336  24.285  0.00  0.00    -0.268 N 
ATOM     14  C   UNL     1      -0.806   0.708  23.737  0.00  0.00    +0.174 C 
ATOM     15  C   UNL     1      -0.951   1.388  23.294  0.00  0.00    +0.265 C 
ATOM     16  O   UNL     1      -0.342   1.623  22.789  0.00  0.00    -0.271 OA
ATOM     17  N   UNL     1      -1.624   1.864  23.288  0.00  0.00    -0.178 NA
ATOM     18  C   UNL     1      -2.319   1.778  23.724  0.00  0.00    +0.078 A 
ATOM     19  C   UNL     1      -2.512   1.194  24.274  0.00  0.00    +0.069 A 
ATOM     20  C   UNL     1      -3.245   1.210  24.653  0.00  0.00    +0.006 A 
ATOM     21  C   UNL     1      -3.785   1.809  24.481  0.00  0.00    +0.000 A 
ATOM     22  C   UNL     1      -3.593   2.394  23.932  0.00  0.00    +0.001 A 
ATOM     23  C   UNL     1      -2.859   2.377  23.553  0.00  0.00    +0.017 A 
ATOM     33  C   UNL     1      -2.057   0.552  24.524  0.00  0.00    +0.251 C 
ATOM     34  O   UNL     1      -2.409   0.062  25.086  0.00  0.00    -0.270 OA
ENDROOT
BRANCH  21  24
ATOM     24  C   UNL     1      -4.517   1.825  24.860  0.00  0.00    +0.003 A 
ATOM     25  C   UNL     1      -4.668   2.389  25.443  0.00  0.00    +0.040 A 
ATOM     26  C   UNL     1      -5.401   2.404  25.822  0.00  0.00    +0.176 A 
ATOM     27  C   UNL     1      -5.983   1.856  25.618  0.00  0.00    +0.176 A 
ATOM     28  O   UNL     1      -6.648   2.004  26.084  0.00  0.00    -0.435 OA
ATOM     29  C   UNL     1      -6.477   2.645  26.575  0.00  0.00    +0.429 C 
ATOM     30  O   UNL     1      -5.706   2.892  26.414  0.00  0.00    -0.435 OA
ATOM     31  C   UNL     1      -5.832   1.292  25.036  0.00  0.00    +0.040 A 
ATOM     32  C   UNL     1      -5.100   1.276  24.656  0.00  0.00    +0.003 A 
ENDBRANCH  21  24
BRANCH  10   9
ATOM      7  C   UNL     1       1.153  -0.095  23.121  0.00  0.00    +0.272 C 
ATOM      8  O   UNL     1       1.114  -0.822  23.510  0.00  0.00    -0.271 OA
ATOM      9  N   UNL     1       0.544   0.454  23.212  0.00  0.00    -0.203 NA
BRANCH   7   6
ATOM      6  C   UNL     1       1.799   0.081  22.641  0.00  0.00    +0.229 C 
BRANCH   6   5
ATOM      5  O   UNL     1       2.552   0.152  22.972  0.00  0.00    -0.333 OA
BRANCH   5   4
ATOM      4  C   UNL     1       3.190   0.378  22.502  0.00  0.00    +0.257 C 
BRANCH   4   2
ATOM      1  O   UNL     1       4.447  -0.055  23.025  0.00  0.00    -0.243 OA
ATOM      2  C   UNL     1       3.918   0.552  22.849  0.00  0.00    +0.394 C 
ATOM      3  O   UNL     1       4.117   1.334  23.019  0.00  0.00    -0.243 OA
ENDBRANCH   4   2
ENDBRANCH   5   4
ENDBRANCH   6   5
ENDBRANCH   7   6
ENDBRANCH  10   9
TORSDOF 6
ENDMDL
MODEL 3
REMARK VINA RESULT:      -8.2      1.052      7.056
REMARK  Name = 
REMARK  6 active torsions:
REMARK  status: ('A' for Active; 'I' for Inactive)
REMARK    1  A    between atoms: C_2  and  C_4
REMARK    2  A    between atoms: C_4  and  O_5
REMARK    3  A    between atoms: O_5  and  C_6
REMARK    4  A    between atoms: C_6  and  C_7
REMARK    5  A    between atoms: N_9  and  C_10
REMARK    6  A    between atoms: C_21  and  C_24
REMARK                            x       y       z     vdW  Elec       q    Type
REMARK                         _______ _______ _______ _____ _____    ______ ____
ROOT
ATOM     10  C   UNL     1      -1.485   2.001  24.630  0.00  0.00    +0.124 C 
ATOM     11  C   UNL     1      -1.141   2.652  25.003  0.00  0.00    +0.045 C 
ATOM     12  C   UNL     1      -0.327   2.618  24.873  0.00  0.00    +0.096 C 
ATOM     13  N   UNL     1      -0.167   1.948  24.420  0.00  0.00    -0.268 N 
ATOM     14  C   UNL     1      -0.883   1.566  24.270  0.00  0.00    +0.174 C 
ATOM     15  C   UNL     1      -1.017   0.874  23.841  0.00  0.00    +0.265 C 
ATOM     16  O   UNL     1      -1.804   0.631  23.790  0.00  0.00    -0.271 OA
ATOM     17  N   UNL     1      -0.469   0.392  23.458  0.00  0.00    -0.178 NA
ATOM     18  C   UNL     1       0.350   0.484  23.408  0.00  0.00    +0.078 A 
ATOM     19  C   UNL     1       0.821   1.080  23.729  0.00  0.00    +0.069 A 
ATOM     20  C   UNL     1       1.638   1.067  23.612  0.00  0.00    +0.006 A 
ATOM     21  C   UNL     1       1.983   0.459  23.174  0.00  0.00    +0.000 A 
ATOM     22  C   UNL     1       1.512  -0.137  22.853  0.00  0.00    +0.001 A 
ATOM     23  C   UNL     1       0.695  -0.124  22.970  0.00  0.00    +0.017 A 
ATOM     33  C   UNL     1       0.591   1.732  24.180  0.00  0.00    +0.251 C 
ATOM     34  O   UNL     1       1.200   2.233  24.421  0.00  0.00    -0.270 OA
ENDROOT
BRANCH  21  24
ATOM     24  C   UNL     1       2.800   0.447  23.058  0.00  0.00    +0.003 A 
ATOM     25  C   UNL     1       3.266  -0.100  23.464  0.00  0.00    +0.040 A 
ATOM     26  C   UNL     1       4.083  -0.112  23.347  0.00  0.00    +0.176 A 
ATOM     27  C   UNL     1       4.433   0.423  22.826  0.00  0.00    +0.176 A 
ATOM     28  O   UNL     1       5.246   0.281  22.824  0.00  0.00    -0.435 OA
ATOM     29  C   UNL     1       5.398  -0.341  23.344  0.00  0.00    +0.429 C 
ATOM     30  O   UNL     1       4.679  -0.584  23.667  0.00  0.00    -0.435 OA
ATOM     31  C   UNL     1       3.967   0.970  22.421  0.00  0.00    +0.040 A 
ATOM     32  C   UNL     1       3.151   0.982  22.537  0.00  0.00    +0.003 A 
ENDBRANCH  21  24
BRANCH  10   9
ATOM      7  C   UNL     1      -2.841   2.364  24.899  0.00  0.00    +0.272 C 
ATOM      8  O   UNL     1      -2.588   3.094  25.189  0.00  0.00    -0.271 OA
ATOM      9  N   UNL     1      -2.289   1.818  24.619  0.00  0.00    -0.203 NA
BRANCH   7   6
ATOM      6  C   UNL     1      -3.644   2.181  24.888  0.00  0.00    +0.229 C 
BRANCH   6   5
ATOM      5  O   UNL     1      -4.181   2.652  25.302  0.00  0.00    -0.333 OA
BRANCH   5   4
ATOM      4  C   UNL     1      -4.988   2.486  25.268  0.00  0.00    +0.257 C 
BRANCH   4   2
ATOM      1  O   UNL     1      -5.829   2.576  26.420  0.00  0.00    -0.243 OA
ATOM      2  C   UNL     1      -5.518   2.913  25.735  0.00  0.00    +0.394 C 
ATOM      3  O   UNL     1      -5.736   3.678  25.515  0.00  0.00    -0.243 OA
ENDBRANCH   4   2
ENDBRANCH   5   4
ENDBRANCH   6   5
ENDBRANCH   7   6
ENDBRANCH  10   9
TORSDOF 6
ENDMDL
MODEL 4
REMARK VINA RESULT:      -8.0     15.129     17.020
REMARK  Name = 
REMARK  6 active torsions:
REMARK  status: ('A' for Active; 'I' for Inactive)
REMARK    1  A    between atoms: C_2  and  C_4
REMARK    2  A    between atoms: C_4  and  O_5
REMARK    3  A    between atoms: O_5  and  C_6
REMARK    4  A    between atoms: C_6  and  C_7
REMARK    5  A    between atoms: N_9  and  C_10
REMARK    6  A    between atoms: C_21  and  C_24
REMARK                            x       y       z     vdW  Elec       q    Type
REMARK                         _______ _______ _______ _____ _____    ______ ____
ROOT
ATOM     10  C   UNL     1      -5.777 -10.298  15.375  0.00  0.00    +0.124 C 
ATOM     11  C   UNL     1      -6.527 -10.037  15.150  0.00  0.00    +0.045 C 
ATOM     12  C   UNL     1      -6.515  -9.898  14.337  0.00  0.00    +0.096 C 
ATOM     13  N   UNL     1      -5.759 -10.072  14.059  0.00  0.00    -0.268 N 
ATOM     14  C   UNL     1      -5.302 -10.319  14.700  0.00  0.00    +0.174 C 
ATOM     15  C   UNL     1      -4.511 -10.554  14.709  0.00  0.00    +0.265 C 
ATOM     16  O   UNL     1      -4.210 -10.772  15.446  0.00  0.00    -0.271 OA
ATOM     17  N   UNL     1      -3.982 -10.599  14.078  0.00  0.00    -0.178 NA
ATOM     18  C   UNL     1      -4.112 -10.422  13.283  0.00  0.00    +0.078 A 
ATOM     19  C   UNL     1      -4.804 -10.154  12.923  0.00  0.00    +0.069 A 
ATOM     20  C   UNL     1      -4.816 -10.009  12.110  0.00  0.00    +0.006 A 
ATOM     21  C   UNL     1      -4.136 -10.130  11.659  0.00  0.00    +0.000 A 
ATOM     22  C   UNL     1      -3.444 -10.397  12.019  0.00  0.00    +0.001 A 
ATOM     23  C   UNL     1      -3.432 -10.543  12.832  0.00  0.00    +0.017 A 
ATOM     33  C   UNL     1      -5.538  -9.999  13.268  0.00  0.00    +0.251 C 
ATOM     34  O   UNL     1      -6.126  -9.736  12.754  0.00  0.00    -0.270 OA
ENDROOT
BRANCH  21  24
ATOM     24  C   UNL     1      -4.149  -9.984  10.847  0.00  0.00    +0.003 A 
ATOM     25  C   UNL     1      -4.656 -10.416  10.359  0.00  0.00    +0.040 A 
ATOM     26  C   UNL     1      -4.669 -10.270   9.547  0.00  0.00    +0.176 A 
ATOM     27  C   UNL     1      -4.176  -9.693   9.224  0.00  0.00    +0.176 A 
ATOM     28  O   UNL     1      -4.308  -9.671   8.409  0.00  0.00    -0.435 OA
ATOM     29  C   UNL     1      -4.884 -10.235   8.230  0.00  0.00    +0.429 C 
ATOM     30  O   UNL     1      -5.106 -10.605   8.933  0.00  0.00    -0.435 OA
ATOM     31  C   UNL     1      -3.670  -9.262   9.712  0.00  0.00    +0.040 A 
ATOM     32  C   UNL     1      -3.656  -9.407  10.523  0.00  0.00    +0.003 A 
ENDBRANCH  21  24
BRANCH  10   9
ATOM      7  C   UNL     1      -6.094 -10.502  16.753  0.00  0.00    +0.272 C 
ATOM      8  O   UNL     1      -6.880 -10.300  16.602  0.00  0.00    -0.271 OA
ATOM      9  N   UNL     1      -5.543 -10.500  16.139  0.00  0.00    -0.203 NA
BRANCH   7   6
ATOM      6  C   UNL     1      -5.861 -10.704  17.517  0.00  0.00    +0.229 C 
BRANCH   6   5
ATOM      5  O   UNL     1      -6.355 -10.542  18.157  0.00  0.00    -0.333 OA
BRANCH   5   4
ATOM      4  C   UNL     1      -6.139 -10.780  18.917  0.00  0.00    +0.257 C 
BRANCH   4   2
ATOM      1  O   UNL     1      -6.194  -9.847  19.998  0.00  0.00    -0.243 OA
ATOM      2  C   UNL     1      -6.530 -10.469  19.574  0.00  0.00    +0.394 C 
ATOM      3  O   UNL     1      -7.257 -10.781  19.806  0.00  0.00    -0.243 OA
ENDBRANCH   4   2
ENDBRANCH   5   4
ENDBRANCH   6   5
ENDBRANCH   7   6
ENDBRANCH  10   9
TORSDOF 6
ENDMDL
MODEL 5
REMARK VINA RESULT:      -7.5     14.547     15.399
REMARK  Name = 
REMARK  6 active torsions:
REMARK  status: ('A' for Active; 'I' for Inactive)
REMARK    1  A    between atoms: C_2  and  C_4
REMARK    2  A    between atoms: C_4  and  O_5
REMARK    3  A    between atoms: O_5  and  C_6
REMARK    4  A    between atoms: C_6  and  C_7
REMARK    5  A    between atoms: N_9  and  C_10
REMARK    6  A    between atoms: C_21  and  C_24
REMARK                            x       y       z     vdW  Elec       q    Type
REMARK                         _______ _______ _______ _____ _____    ______ ____
ROOT
ATOM     10  C   UNL     1      -4.981 -10.397  13.457  0.00  0.00    +0.124 C 
ATOM     11  C   UNL     1      -5.573 -10.399  12.882  0.00  0.00    +0.045 C 
ATOM     12  C   UNL     1      -6.294 -10.263  13.260  0.00  0.00    +0.096 C 
ATOM     13  N   UNL     1      -6.148 -10.177  14.067  0.00  0.00    -0.268 N 
ATOM     14  C   UNL     1      -5.336 -10.260  14.189  0.00  0.00    +0.174 C 
ATOM     15  C   UNL     1      -4.915 -10.219  14.897  0.00  0.00    +0.265 C 
ATOM     16  O   UNL     1      -4.099 -10.326  14.836  0.00  0.00    -0.271 OA
ATOM     17  N   UNL     1      -5.202 -10.086  15.659  0.00  0.00    -0.178 NA
ATOM     18  C   UNL     1      -5.981  -9.961  15.901  0.00  0.00    +0.078 A 
ATOM     19  C   UNL     1      -6.665  -9.938  15.440  0.00  0.00    +0.069 A 
ATOM     20  C   UNL     1      -7.397  -9.803  15.796  0.00  0.00    +0.006 A 
ATOM     21  C   UNL     1      -7.445  -9.692  16.612  0.00  0.00    +0.000 A 
ATOM     22  C   UNL     1      -6.762  -9.715  17.073  0.00  0.00    +0.001 A 
ATOM     23  C   UNL     1      -6.029  -9.850  16.717  0.00  0.00    +0.017 A 
ATOM     33  C   UNL     1      -6.739 -10.034  14.624  0.00  0.00    +0.251 C 
ATOM     34  O   UNL     1      -7.506  -9.979  14.325  0.00  0.00    -0.270 OA
ENDROOT
BRANCH  21  24
ATOM     24  C   UNL     1      -8.178  -9.558  16.967  0.00  0.00    +0.003 A 
ATOM     25  C   UNL     1      -8.540  -8.820  16.896  0.00  0.00    +0.040 A 
ATOM     26  C   UNL     1      -9.273  -8.685  17.251  0.00  0.00    +0.176 A 
ATOM     27  C   UNL     1      -9.643  -9.288  17.676  0.00  0.00    +0.176 A 
ATOM     28  O   UNL     1     -10.359  -8.995  17.964  0.00  0.00    -0.435 OA
ATOM     29  C   UNL     1     -10.431  -8.211  17.716  0.00  0.00    +0.429 C 
ATOM     30  O   UNL     1      -9.761  -8.019  17.276  0.00  0.00    -0.435 OA
ATOM     31  C   UNL     1      -9.280 -10.025  17.746  0.00  0.00    +0.040 A 
ATOM     32  C   UNL     1      -8.548 -10.160  17.392  0.00  0.00    +0.003 A 
ENDBRANCH  21  24
BRANCH  10   9
ATOM      7  C   UNL     1      -3.881 -10.513  12.551  0.00  0.00    +0.272 C 
ATOM      8  O   UNL     1      -4.394 -10.400  11.915  0.00  0.00    -0.271 OA
ATOM      9  N   UNL     1      -4.175 -10.512  13.322  0.00  0.00    -0.203 NA
BRANCH   7   6
ATOM      6  C   UNL     1      -3.076 -10.628  12.417  0.00  0.00    +0.229 C 
BRANCH   6   5
ATOM      5  O   UNL     1      -2.654 -10.092  11.952  0.00  0.00    -0.333 OA
BRANCH   5   4
ATOM      4  C   UNL     1      -1.848 -10.203  11.823  0.00  0.00    +0.257 C 
BRANCH   4   2
ATOM      1  O   UNL     1      -1.604  -9.269  10.770  0.00  0.00    -0.243 OA
ATOM      2  C   UNL     1      -1.394  -9.597  11.496  0.00  0.00    +0.394 C 
ATOM      3  O   UNL     1      -0.729  -9.318  11.898  0.00  0.00    -0.243 OA
ENDBRANCH   4   2
ENDBRANCH   5   4
ENDBRANCH   6   5
ENDBRANCH   7   6
ENDBRANCH  10   9
TORSDOF 6
ENDMDL
MODEL 6
REMARK VINA RESULT:      -7.3      1.325      6.762
REMARK  Name = 
REMARK  6 active torsions:
REMARK  status: ('A' for Active; 'I' for Inactive)
REMARK    1  A    between atoms: C_2  and  C_4
REMARK    2  A    between atoms: C_4  and  O_5
REMARK    3  A    between atoms: O_5  and  C_6
REMARK    4  A    between atoms: C_6  and  C_7
REMARK    5  A    between atoms: N_9  and  C_10
REMARK    6  A    between atoms: C_21  and  C_24
REMARK                            x       y       z     vdW  Elec       q    Type
REMARK                         _______ _______ _______ _____ _____    ______ ____
ROOT
ATOM     10  C   UNL     1      -2.513  -0.127  24.974  0.00  0.00    +0.124 C 
ATOM     11  C   UNL     1      -2.461  -0.939  24.837  0.00  0.00    +0.045 C 
ATOM     12  C   UNL     1      -1.729  -1.092  24.488  0.00  0.00    +0.096 C 
ATOM     13  N   UNL     1      -1.328  -0.375  24.411  0.00  0.00    -0.268 N 
ATOM     14  C   UNL     1      -1.813   0.221  24.711  0.00  0.00    +0.174 C 
ATOM     15  C   UNL     1      -1.663   1.031  24.758  0.00  0.00    +0.265 C 
ATOM     16  O   UNL     1      -2.264   1.488  25.091  0.00  0.00    -0.271 OA
ATOM     17  N   UNL     1      -0.991   1.445  24.517  0.00  0.00    -0.178 NA
ATOM     18  C   UNL     1      -0.303   1.150  24.169  0.00  0.00    +0.078 A 
ATOM     19  C   UNL     1      -0.118   0.370  23.976  0.00  0.00    +0.069 A 
ATOM     20  C   UNL     1       0.609   0.193  23.627  0.00  0.00    +0.006 A 
ATOM     21  C   UNL     1       1.149   0.796  23.470  0.00  0.00    +0.000 A 
ATOM     22  C   UNL     1       0.964   1.576  23.663  0.00  0.00    +0.001 A 
ATOM     23  C   UNL     1       0.237   1.753  24.013  0.00  0.00    +0.017 A 
ATOM     33  C   UNL     1      -0.574  -0.310  24.084  0.00  0.00    +0.251 C 
ATOM     34  O   UNL     1      -0.231  -1.015  23.830  0.00  0.00    -0.270 OA
ENDROOT
BRANCH  21  24
ATOM     24  C   UNL     1       1.875   0.618  23.122  0.00  0.00    +0.003 A 
ATOM     25  C   UNL     1       2.570   0.935  23.433  0.00  0.00    +0.040 A 
ATOM     26  C   UNL     1       3.297   0.757  23.084  0.00  0.00    +0.176 A 
ATOM     27  C   UNL     1       3.328   0.263  22.424  0.00  0.00    +0.176 A 
ATOM     28  O   UNL     1       4.118   0.187  22.199  0.00  0.00    -0.435 OA
ATOM     29  C   UNL     1       4.575   0.634  22.721  0.00  0.00    +0.429 C 
ATOM     30  O   UNL     1       4.069   0.987  23.268  0.00  0.00    -0.435 OA
ATOM     31  C   UNL     1       2.633  -0.053  22.113  0.00  0.00    +0.040 A 
ATOM     32  C   UNL     1       1.907   0.124  22.461  0.00  0.00    +0.003 A 
ENDBRANCH  21  24
BRANCH  10   9
ATOM      7  C   UNL     1      -3.913  -0.045  25.248  0.00  0.00    +0.272 C 
ATOM      8  O   UNL     1      -4.034  -0.751  24.839  0.00  0.00    -0.271 OA
ATOM      9  N   UNL     1      -3.152   0.267  25.315  0.00  0.00    -0.203 NA
BRANCH   7   6
ATOM      6  C   UNL     1      -4.552   0.349  25.589  0.00  0.00    +0.229 C 
BRANCH   6   5
ATOM      5  O   UNL     1      -5.002   0.874  25.138  0.00  0.00    -0.333 OA
BRANCH   5   4
ATOM      4  C   UNL     1      -5.590   1.326  25.497  0.00  0.00    +0.257 C 
BRANCH   4   2
ATOM      1  O   UNL     1      -5.589   2.689  25.066  0.00  0.00    -0.243 OA
ATOM      2  C   UNL     1      -5.946   1.946  25.083  0.00  0.00    +0.394 C 
ATOM      3  O   UNL     1      -6.658   1.820  24.686  0.00  0.00    -0.243 OA
ENDBRANCH   4   2
ENDBRANCH   5   4
ENDBRANCH   6   5
ENDBRANCH   7   6
ENDBRANCH  10   9
TORSDOF 6
ENDMDL
MODEL 7
REMARK VINA RESULT:      -6.7     16.945     19.016
REMARK  Name = 
REMARK  6 active torsions:
REMARK  status: ('A' for Active; 'I' for Inactive)
REMARK    1  A    between atoms: C_2  and  C_4
REMARK    2  A    between atoms: C_4  and  O_5
REMARK    3  A    between atoms: O_5  and  C_6
REMARK    4  A    between atoms: C_6  and  C_7
REMARK    5  A    between atoms: N_9  and  C_10
REMARK    6  A    between atoms: C_21  and  C_24
REMARK                            x       y       z     vdW  Elec       q    Type
REMARK                         _______ _______ _______ _____ _____    ______ ____
ROOT
ATOM     10  C   UNL     1      -7.687  -8.920  10.231  0.00  0.00    +0.124 C 
ATOM     11  C   UNL     1      -7.816  -9.150  11.013  0.00  0.00    +0.045 C 
ATOM     12  C   UNL     1      -7.083  -9.327  11.350  0.00  0.00    +0.096 C 
ATOM     13  N   UNL     1      -6.503  -9.207  10.776  0.00  0.00    -0.268 N 
ATOM     14  C   UNL     1      -6.876  -8.954  10.085  0.00  0.00    +0.174 C 
ATOM     15  C   UNL     1      -6.537  -8.762   9.358  0.00  0.00    +0.265 C 
ATOM     16  O   UNL     1      -7.064  -8.526   8.769  0.00  0.00    -0.271 OA
ATOM     17  N   UNL     1      -5.741  -8.773   9.143  0.00  0.00    -0.178 NA
ATOM     18  C   UNL     1      -5.087  -8.981   9.601  0.00  0.00    +0.078 A 
ATOM     19  C   UNL     1      -5.068  -9.228  10.388  0.00  0.00    +0.069 A 
ATOM     20  C   UNL     1      -4.347  -9.410  10.746  0.00  0.00    +0.006 A 
ATOM     21  C   UNL     1      -3.646  -9.346  10.317  0.00  0.00    +0.000 A 
ATOM     22  C   UNL     1      -3.664  -9.100   9.530  0.00  0.00    +0.001 A 
ATOM     23  C   UNL     1      -4.385  -8.917   9.172  0.00  0.00    +0.017 A 
ATOM     33  C   UNL     1      -5.699  -9.328  10.912  0.00  0.00    +0.251 C 
ATOM     34  O   UNL     1      -5.497  -9.584  11.669  0.00  0.00    -0.270 OA
ENDROOT
BRANCH  21  24
ATOM     24  C   UNL     1      -2.926  -9.529  10.675  0.00  0.00    +0.003 A 
ATOM     25  C   UNL     1      -2.292  -9.004  10.616  0.00  0.00    +0.040 A 
ATOM     26  C   UNL     1      -1.571  -9.187  10.975  0.00  0.00    +0.176 A 
ATOM     27  C   UNL     1      -1.484  -9.894  11.391  0.00  0.00    +0.176 A 
ATOM     28  O   UNL     1      -0.714  -9.925  11.684  0.00  0.00    -0.435 OA
ATOM     29  C   UNL     1      -0.324  -9.236  11.449  0.00  0.00    +0.429 C 
ATOM     30  O   UNL     1      -0.853  -8.780  11.011  0.00  0.00    -0.435 OA
ATOM     31  C   UNL     1      -2.118 -10.418  11.449  0.00  0.00    +0.040 A 
ATOM     32  C   UNL     1      -2.838 -10.236  11.091  0.00  0.00    +0.003 A 
ENDBRANCH  21  24
BRANCH  10   9
ATOM      7  C   UNL     1      -9.052  -8.614   9.937  0.00  0.00    +0.272 C 
ATOM      8  O   UNL     1      -9.254  -8.760  10.723  0.00  0.00    -0.271 OA
ATOM      9  N   UNL     1      -8.268  -8.694   9.692  0.00  0.00    -0.203 NA
BRANCH   7   6
ATOM      6  C   UNL     1      -9.633  -8.388   9.397  0.00  0.00    +0.229 C 
BRANCH   6   5
ATOM      5  O   UNL     1     -10.062  -7.694   9.518  0.00  0.00    -0.333 OA
BRANCH   5   4
ATOM      4  C   UNL     1     -10.482  -7.355   8.896  0.00  0.00    +0.257 C 
BRANCH   4   2
ATOM      1  O   UNL     1     -10.715  -6.110   9.558  0.00  0.00    -0.243 OA
ATOM      2  C   UNL     1     -10.587  -6.537   8.865  0.00  0.00    +0.394 C 
ATOM      3  O   UNL     1     -10.563  -6.146   8.138  0.00  0.00    -0.243 OA
ENDBRANCH   4   2
ENDBRANCH   5   4
ENDBRANCH   6   5
ENDBRANCH   7   6
ENDBRANCH  10   9
TORSDOF 6
ENDMDL
MODEL 8
REMARK VINA RESULT:      -6.6     14.714     16.063
REMARK  Name = 
REMARK  6 active torsions:
REMARK  status: ('A' for Active; 'I' for Inactive)
REMARK    1  A    between atoms: C_2  and  C_4
REMARK    2  A    between atoms: C_4  and  O_5
REMARK    3  A    between atoms: O_5  and  C_6
REMARK    4  A    between atoms: C_6  and  C_7
REMARK    5  A    between atoms: N_9  and  C_10
REMARK    6  A    between atoms: C_21  and  C_24
REMARK                            x       y       z     vdW  Elec       q    Type
REMARK                         _______ _______ _______ _____ _____    ______ ____
ROOT
ATOM     10  C   UNL     1      -5.588  -9.977  12.963  0.00  0.00    +0.124 C 
ATOM     11  C   UNL     1      -6.402  -9.850  12.901  0.00  0.00    +0.045 C 
ATOM     12  C   UNL     1      -6.724  -9.897  13.659  0.00  0.00    +0.096 C 
ATOM     13  N   UNL     1      -6.112 -10.053  14.189  0.00  0.00    -0.268 N 
ATOM     14  C   UNL     1      -5.410 -10.103  13.759  0.00  0.00    +0.174 C 
ATOM     15  C   UNL     1      -4.646 -10.250  14.035  0.00  0.00    +0.265 C 
ATOM     16  O   UNL     1      -4.054 -10.265  13.460  0.00  0.00    -0.271 OA
ATOM     17  N   UNL     1      -4.397 -10.383  14.809  0.00  0.00    -0.178 NA
ATOM     18  C   UNL     1      -4.849 -10.403  15.500  0.00  0.00    +0.078 A 
ATOM     19  C   UNL     1      -5.662 -10.294  15.585  0.00  0.00    +0.069 A 
ATOM     20  C   UNL     1      -6.007 -10.337  16.333  0.00  0.00    +0.006 A 
ATOM     21  C   UNL     1      -5.540 -10.488  16.996  0.00  0.00    +0.000 A 
ATOM     22  C   UNL     1      -4.727 -10.597  16.911  0.00  0.00    +0.001 A 
ATOM     23  C   UNL     1      -4.381 -10.555  16.162  0.00  0.00    +0.017 A 
ATOM     33  C   UNL     1      -6.225 -10.138  15.001  0.00  0.00    +0.251 C 
ATOM     34  O   UNL     1      -7.001 -10.057  15.266  0.00  0.00    -0.270 OA
ENDROOT
BRANCH  21  24
ATOM     24  C   UNL     1      -5.886 -10.531  17.743  0.00  0.00    +0.003 A 
ATOM     25  C   UNL     1      -5.412 -10.636  18.411  0.00  0.00    +0.040 A 
ATOM     26  C   UNL     1      -5.758 -10.679  19.159  0.00  0.00    +0.176 A 
ATOM     27  C   UNL     1      -6.577 -10.616  19.239  0.00  0.00    +0.176 A 
ATOM     28  O   UNL     1      -6.760 -10.678  20.041  0.00  0.00    -0.435 OA
ATOM     29  C   UNL     1      -6.055 -10.779  20.457  0.00  0.00    +0.429 C 
ATOM     30  O   UNL     1      -5.435 -10.779  19.912  0.00  0.00    -0.435 OA
ATOM     31  C   UNL     1      -7.050 -10.511  18.571  0.00  0.00    +0.040 A 
ATOM     32  C   UNL     1      -6.705 -10.468  17.824  0.00  0.00    +0.003 A 
ENDBRANCH  21  24
BRANCH  10   9
ATOM      7  C   UNL     1      -5.294  -9.759  11.582  0.00  0.00    +0.272 C 
ATOM      8  O   UNL     1      -6.077  -9.537  11.450  0.00  0.00    -0.271 OA
ATOM      9  N   UNL     1      -5.050  -9.979  12.339  0.00  0.00    -0.203 NA
BRANCH   7   6
ATOM      6  C   UNL     1      -4.755  -9.760  10.958  0.00  0.00    +0.229 C 
BRANCH   6   5
ATOM      5  O   UNL     1      -5.009  -9.937  10.193  0.00  0.00    -0.333 OA
BRANCH   5   4
ATOM      4  C   UNL     1      -4.467 -10.192   9.627  0.00  0.00    +0.257 C 
BRANCH   4   2
ATOM      1  O   UNL     1      -4.130  -9.330   8.538  0.00  0.00    -0.243 OA
ATOM      2  C   UNL     1      -4.558  -9.968   8.838  0.00  0.00    +0.394 C 
ATOM      3  O   UNL     1      -5.077 -10.383   8.348  0.00  0.00    -0.243 OA
ENDBRANCH   4   2
ENDBRANCH   5   4
ENDBRANCH   6   5
ENDBRANCH   7   6
ENDBRANCH  10   9
TORSDOF 6
ENDMDL
