MODEL 1
REMARK VINA RESULT:      -8.6      0.000      0.000
REMARK  Name = 
REMARK  6 active torsions:
REMARK  status: ('A' for Active; 'I' for Inactive)
REMARK    1  A    between atoms: O_2  and  C_3
REMARK    2  A    between atoms: C_5  and  O_6
REMARK    3  A    between atoms: C_8  and  C_11
REMARK    4  A    between atoms: C_19  and  N_25
REMARK    5  A    between atoms: C_26  and  C_28
REMARK    6  A    between atoms: C_28  and  S_29
REMARK                            x       y       z     vdW  Elec       q    Type
REMARK                         _______ _______ _______ _____ _____    ______ ____
ROOT
ATOM     11  C   UNL     1      -2.619   1.996  24.657  0.00  0.00    +0.003 A 
ATOM     12  C   UNL     1      -2.200   1.403  24.266  0.00  0.00    +0.006 A 
ATOM     13  C   UNL     1      -1.379   1.455  24.196  0.00  0.00    +0.069 A 
ATOM     14  C   UNL     1      -0.978   2.100  24.517  0.00  0.00    +0.078 A 
ATOM     15  N   UNL     1      -0.168   2.258  24.509  0.00  0.00    -0.178 NA
ATOM     16  C   UNL     1       0.440   1.809  24.177  0.00  0.00    +0.265 C 
ATOM     17  O   UNL     1       1.200   2.118  24.262  0.00  0.00    -0.271 OA
ATOM     18  C   UNL     1       0.388   1.093  23.772  0.00  0.00    +0.174 C 
ATOM     19  C   UNL     1       1.044   0.696  23.464  0.00  0.00    +0.124 C 
ATOM     20  C   UNL     1       0.776   0.006  23.100  0.00  0.00    +0.045 C 
ATOM     21  C   UNL     1      -0.044  -0.024  23.183  0.00  0.00    +0.096 C 
ATOM     22  N   UNL     1      -0.284   0.647  23.598  0.00  0.00    -0.268 N 
ATOM     23  C   UNL     1      -1.071   0.808  23.786  0.00  0.00    +0.251 C 
ATOM     24  O   UNL     1      -1.622   0.249  23.532  0.00  0.00    -0.270 OA
ATOM     31  C   UNL     1      -1.397   2.693  24.909  0.00  0.00    +0.017 A 
ATOM     32  C   UNL     1      -2.217   2.642  24.979  0.00  0.00    +0.001 A 
ENDROOT
BRANCH  11   8
ATOM      3  C   UNL     1      -5.080   1.841  24.869  0.00  0.00    +0.142 A 
ATOM      4  C   UNL     1      -4.745   2.378  24.340  0.00  0.00    +0.074 A 
ATOM      5  C   UNL     1      -3.924   2.430  24.269  0.00  0.00    +0.142 A 
ATOM      8  C   UNL     1      -3.439   1.944  24.728  0.00  0.00    +0.034 A 
ATOM      9  C   UNL     1      -3.775   1.407  25.256  0.00  0.00    +0.006 A 
ATOM     10  C   UNL     1      -4.595   1.356  25.327  0.00  0.00    +0.037 A 
BRANCH   3   2
ATOM      1  C   UNL     1      -6.259   1.895  25.675  0.00  0.00    +0.252 C 
ATOM      2  O   UNL     1      -5.900   1.789  24.939  0.00  0.00    -0.471 OA
ENDBRANCH   3   2
BRANCH   5   6
ATOM      6  O   UNL     1      -3.588   2.967  23.741  0.00  0.00    -0.471 OA
ATOM      7  C   UNL     1      -4.072   3.423  23.251  0.00  0.00    +0.252 C 
ENDBRANCH   5   6
ENDBRANCH  11   8
BRANCH  19  25
ATOM     25  N   UNL     1       1.828   0.946  23.512  0.00  0.00    -0.204 NA
ATOM     26  C   UNL     1       2.402   0.599  23.032  0.00  0.00    +0.252 C 
ATOM     27  O   UNL     1       2.191   0.002  22.504  0.00  0.00    -0.272 OA
BRANCH  26  28
ATOM     28  C   UNL     1       3.187   0.849  23.080  0.00  0.00    +0.144 C 
BRANCH  28  29
ATOM     29  S   UNL     1       3.780   0.421  22.700  0.00  0.00    -0.130 S 
ATOM     30  C   UNL     1       4.569   0.526  22.917  0.00  0.00    +0.070 C 
ENDBRANCH  28  29
ENDBRANCH  26  28
ENDBRANCH  19  25
TORSDOF 6
ENDMDL
MODEL 2
REMARK VINA RESULT:      -8.2      1.278      1.699
REMARK  Name = 
REMARK  6 active torsions:
REMARK  status: ('A' for Active; 'I' for Inactive)
REMARK    1  A    between atoms: O_2  and  C_3
REMARK    2  A    between atoms: C_5  and  O_6
REMARK    3  A    between atoms: C_8  and  C_11
REMARK    4  A    between atoms: C_19  and  N_25
REMARK    5  A    between atoms: C_26  and  C_28
REMARK    6  A    between atoms: C_28  and  S_29
REMARK                            x       y       z     vdW  Elec       q    Type
REMARK                         _______ _______ _______ _____ _____    ______ ____
ROOT
ATOM     11  C   UNL     1      -3.834   1.993  24.562  0.00  0.00    +0.003 A 
ATOM     12  C   UNL     1      -3.258   1.454  24.802  0.00  0.00    +0.006 A 
ATOM     13  C   UNL     1      -2.569   1.362  24.357  0.00  0.00    +0.069 A 
ATOM     14  C   UNL     1      -2.456   1.808  23.673  0.00  0.00    +0.078 A 
ATOM     15  N   UNL     1      -1.815   1.802  23.154  0.00  0.00    -0.178 NA
ATOM     16  C   UNL     1      -1.128   1.346  23.191  0.00  0.00    +0.265 C 
ATOM     17  O   UNL     1      -0.584   1.468  22.583  0.00  0.00    -0.271 OA
ATOM     18  C   UNL     1      -0.913   0.785  23.756  0.00  0.00    +0.174 C 
ATOM     19  C   UNL     1      -0.204   0.363  23.731  0.00  0.00    +0.124 C 
ATOM     20  C   UNL     1      -0.184  -0.142  24.383  0.00  0.00    +0.045 C 
ATOM     21  C   UNL     1      -0.882  -0.032  24.811  0.00  0.00    +0.096 C 
ATOM     22  N   UNL     1      -1.331   0.541  24.424  0.00  0.00    -0.268 N 
ATOM     23  C   UNL     1      -2.068   0.797  24.692  0.00  0.00    +0.251 C 
ATOM     24  O   UNL     1      -2.341   0.443  25.385  0.00  0.00    -0.270 OA
ATOM     31  C   UNL     1      -3.032   2.348  23.433  0.00  0.00    +0.017 A 
ATOM     32  C   UNL     1      -3.721   2.441  23.877  0.00  0.00    +0.001 A 
ENDROOT
BRANCH  11   8
ATOM      3  C   UNL     1      -5.901   2.271  25.894  0.00  0.00    +0.142 A 
ATOM      4  C   UNL     1      -5.297   2.831  25.949  0.00  0.00    +0.074 A 
ATOM      5  C   UNL     1      -4.608   2.738  25.505  0.00  0.00    +0.142 A 
ATOM      8  C   UNL     1      -4.523   2.086  25.006  0.00  0.00    +0.034 A 
ATOM      9  C   UNL     1      -5.128   1.527  24.952  0.00  0.00    +0.006 A 
ATOM     10  C   UNL     1      -5.816   1.620  25.396  0.00  0.00    +0.037 A 
BRANCH   3   2
ATOM      1  C   UNL     1      -6.801   1.795  26.897  0.00  0.00    +0.252 C 
ATOM      2  O   UNL     1      -6.590   2.364  26.338  0.00  0.00    -0.471 OA
ENDBRANCH   3   2
BRANCH   5   6
ATOM      6  O   UNL     1      -4.003   3.297  25.559  0.00  0.00    -0.471 OA
ATOM      7  C   UNL     1      -4.068   3.926  26.089  0.00  0.00    +0.252 C 
ENDBRANCH   5   6
ENDBRANCH  11   8
BRANCH  19  25
ATOM     25  N   UNL     1       0.382   0.434  23.155  0.00  0.00    -0.204 NA
ATOM     26  C   UNL     1       1.041  -0.062  23.174  0.00  0.00    +0.252 C 
ATOM     27  O   UNL     1       1.114  -0.628  23.769  0.00  0.00    -0.272 OA
BRANCH  26  28
ATOM     28  C   UNL     1       1.627   0.009  22.598  0.00  0.00    +0.144 C 
BRANCH  28  29
ATOM     29  S   UNL     1       2.423  -0.002  22.815  0.00  0.00    -0.130 S 
ATOM     30  C   UNL     1       3.006   0.155  22.253  0.00  0.00    +0.070 C 
ENDBRANCH  28  29
ENDBRANCH  26  28
ENDBRANCH  19  25
TORSDOF 6
ENDMDL
MODEL 3
REMARK VINA RESULT:      -7.0      2.225      6.114
REMARK  Name = 
REMARK  6 active torsions:
REMARK  status: ('A' for Active; 'I' for Inactive)
REMARK    1  A    between atoms: O_2  and  C_3
REMARK    2  A    between atoms: C_5  and  O_6
REMARK    3  A    between atoms: C_8  and  C_11
REMARK    4  A    between atoms: C_19  and  N_25
REMARK    5  A    between atoms: C_26  and  C_28
REMARK    6  A    between atoms: C_28  and  S_29
REMARK                            x       y       z     vdW  Elec       q    Type
REMARK                         _______ _______ _______ _____ _____    ______ ____
ROOT
ATOM     11  C   UNL     1       0.432   0.295  23.569  0.00  0.00    +0.003 A 
ATOM     12  C   UNL     1      -0.088   0.930  23.494  0.00  0.00    +0.006 A 
ATOM     13  C   UNL     1      -0.849   0.879  23.809  0.00  0.00    +0.069 A 
ATOM     14  C   UNL     1      -1.089   0.193  24.199  0.00  0.00    +0.078 A 
ATOM     15  N   UNL     1      -1.817   0.029  24.550  0.00  0.00    -0.178 NA
ATOM     16  C   UNL     1      -2.485   0.511  24.599  0.00  0.00    +0.265 C 
ATOM     17  O   UNL     1      -3.135   0.185  24.990  0.00  0.00    -0.271 OA
ATOM     18  C   UNL     1      -2.589   1.276  24.308  0.00  0.00    +0.174 C 
ATOM     19  C   UNL     1      -3.291   1.703  24.393  0.00  0.00    +0.124 C 
ATOM     20  C   UNL     1      -3.187   2.438  24.034  0.00  0.00    +0.045 C 
ATOM     21  C   UNL     1      -2.421   2.466  23.727  0.00  0.00    +0.096 C 
ATOM     22  N   UNL     1      -2.052   1.748  23.896  0.00  0.00    -0.268 N 
ATOM     23  C   UNL     1      -1.278   1.572  23.674  0.00  0.00    +0.251 C 
ATOM     24  O   UNL     1      -0.878   2.165  23.263  0.00  0.00    -0.270 OA
ATOM     31  C   UNL     1      -0.568  -0.443  24.274  0.00  0.00    +0.017 A 
ATOM     32  C   UNL     1       0.192  -0.392  23.959  0.00  0.00    +0.001 A 
ENDROOT
BRANCH  11   8
ATOM      3  C   UNL     1       2.715   0.447  22.625  0.00  0.00    +0.142 A 
ATOM      4  C   UNL     1       2.134   0.015  22.230  0.00  0.00    +0.074 A 
ATOM      5  C   UNL     1       1.373  -0.036  22.544  0.00  0.00    +0.142 A 
ATOM      8  C   UNL     1       1.193   0.345  23.254  0.00  0.00    +0.034 A 
ATOM      9  C   UNL     1       1.776   0.777  23.648  0.00  0.00    +0.006 A 
ATOM     10  C   UNL     1       2.536   0.828  23.334  0.00  0.00    +0.037 A 
BRANCH   3   2
ATOM      1  C   UNL     1       4.083   0.843  22.750  0.00  0.00    +0.252 C 
ATOM      2  O   UNL     1       3.476   0.497  22.310  0.00  0.00    -0.471 OA
ENDBRANCH   3   2
BRANCH   5   6
ATOM      6  O   UNL     1       0.791  -0.468  22.150  0.00  0.00    -0.471 OA
ATOM      7  C   UNL     1       0.939  -0.769  21.396  0.00  0.00    +0.252 C 
ENDBRANCH   5   6
ENDBRANCH  11   8
BRANCH  19  25
ATOM     25  N   UNL     1      -3.975   1.440  24.770  0.00  0.00    -0.204 NA
ATOM     26  C   UNL     1      -4.635   1.934  24.821  0.00  0.00    +0.252 C 
ATOM     27  O   UNL     1      -4.608   2.691  24.493  0.00  0.00    -0.272 OA
BRANCH  26  28
ATOM     28  C   UNL     1      -5.319   1.672  25.198  0.00  0.00    +0.144 C 
BRANCH  28  29
ATOM     29  S   UNL     1      -5.831   2.214  25.549  0.00  0.00    -0.130 S 
ATOM     30  C   UNL     1      -6.387   1.960  26.102  0.00  0.00    +0.070 C 
ENDBRANCH  28  29
ENDBRANCH  26  28
ENDBRANCH  19  25
TORSDOF 6
ENDMDL
MODEL 4
REMARK VINA RESULT:      -6.9      0.898      1.487
REMARK  Name = 
REMARK  6 active torsions:
REMARK  status: ('A' for Active; 'I' for Inactive)
REMARK    1  A    between atoms: O_2  and  C_3
REMARK    2  A    between atoms: C_5  and  O_6
REMARK    3  A    between atoms: C_8  and  C_11
REMARK    4  A    between atoms: C_19  and  N_25
REMARK    5  A    between atoms: C_26  and  C_28
REMARK    6  A    between atoms: C_28  and  S_29
REMARK                            x       y       z     vdW  Elec       q    Type
REMARK                         _______ _______ _______ _____ _____    ______ ____
ROOT
ATOM     11  C   UNL     1      -3.288   1.127  24.337  0.00  0.00    +0.003 A 
ATOM     12  C   UNL     1      -2.573   1.494  24.522  0.00  0.00    +0.006 A 
ATOM     13  C   UNL     1      -1.864   1.185  24.233  0.00  0.00    +0.069 A 
ATOM     14  C   UNL     1      -1.871   0.509  23.761  0.00  0.00    +0.078 A 
ATOM     15  N   UNL     1      -1.233   0.113  23.420  0.00  0.00    -0.178 NA
ATOM     16  C   UNL     1      -0.429   0.296  23.467  0.00  0.00    +0.265 C 
ATOM     17  O   UNL     1       0.079  -0.211  23.060  0.00  0.00    -0.271 OA
ATOM     18  C   UNL     1      -0.067   0.921  23.867  0.00  0.00    +0.174 C 
ATOM     19  C   UNL     1       0.749   1.045  23.871  0.00  0.00    +0.124 C 
ATOM     20  C   UNL     1       0.903   1.716  24.325  0.00  0.00    +0.045 C 
ATOM     21  C   UNL     1       0.181   2.007  24.601  0.00  0.00    +0.096 C 
ATOM     22  N   UNL     1      -0.417   1.515  24.318  0.00  0.00    -0.268 N 
ATOM     23  C   UNL     1      -1.217   1.633  24.482  0.00  0.00    +0.251 C 
ATOM     24  O   UNL     1      -1.394   2.285  24.955  0.00  0.00    -0.270 OA
ATOM     31  C   UNL     1      -2.586   0.141  23.577  0.00  0.00    +0.017 A 
ATOM     32  C   UNL     1      -3.295   0.450  23.864  0.00  0.00    +0.001 A 
ENDROOT
BRANCH  11   8
ATOM      3  C   UNL     1      -5.414   2.053  25.201  0.00  0.00    +0.142 A 
ATOM      4  C   UNL     1      -5.032   2.419  24.569  0.00  0.00    +0.074 A 
ATOM      5  C   UNL     1      -4.323   2.111  24.280  0.00  0.00    +0.142 A 
ATOM      8  C   UNL     1      -3.997   1.436  24.625  0.00  0.00    +0.034 A 
ATOM      9  C   UNL     1      -4.380   1.070  25.258  0.00  0.00    +0.006 A 
ATOM     10  C   UNL     1      -5.088   1.379  25.546  0.00  0.00    +0.037 A 
BRANCH   3   2
ATOM      1  C   UNL     1      -6.300   2.309  26.293  0.00  0.00    +0.252 C 
ATOM      2  O   UNL     1      -6.123   2.362  25.489  0.00  0.00    -0.471 OA
ENDBRANCH   3   2
BRANCH   5   6
ATOM      6  O   UNL     1      -3.941   2.476  23.648  0.00  0.00    -0.471 OA
ATOM      7  C   UNL     1      -4.239   3.180  23.335  0.00  0.00    +0.252 C 
ENDBRANCH   5   6
ENDBRANCH  11   8
BRANCH  19  25
ATOM     25  N   UNL     1       1.312   0.579  23.488  0.00  0.00    -0.204 NA
ATOM     26  C   UNL     1       2.062   0.885  23.329  0.00  0.00    +0.252 C 
ATOM     27  O   UNL     1       2.248   1.657  23.553  0.00  0.00    -0.272 OA
BRANCH  26  28
ATOM     28  C   UNL     1       2.625   0.420  22.947  0.00  0.00    +0.144 C 
BRANCH  28  29
ATOM     29  S   UNL     1       3.355   0.742  22.739  0.00  0.00    -0.130 S 
ATOM     30  C   UNL     1       4.005   0.250  22.620  0.00  0.00    +0.070 C 
ENDBRANCH  28  29
ENDBRANCH  26  28
ENDBRANCH  19  25
TORSDOF 6
ENDMDL
MODEL 5
REMARK VINA RESULT:      -6.7      2.972      4.592
REMARK  Name = 
REMARK  6 active torsions:
REMARK  status: ('A' for Active; 'I' for Inactive)
REMARK    1  A    between atoms: O_2  and  C_3
REMARK    2  A    between atoms: C_5  and  O_6
REMARK    3  A    between atoms: C_8  and  C_11
REMARK    4  A    between atoms: C_19  and  N_25
REMARK    5  A    between atoms: C_26  and  C_28
REMARK    6  A    between atoms: C_28  and  S_29
REMARK                            x       y       z     vdW  Elec       q    Type
REMARK                         _______ _______ _______ _____ _____    ______ ____
ROOT
ATOM     11  C   UNL     1      -3.745  -0.388  24.660  0.00  0.00    +0.003 A 
ATOM     12  C   UNL     1      -3.016  -0.009  24.589  0.00  0.00    +0.006 A 
ATOM     13  C   UNL     1      -2.960   0.804  24.720  0.00  0.00    +0.069 A 
ATOM     14  C   UNL     1      -3.631   1.237  24.921  0.00  0.00    +0.078 A 
ATOM     15  N   UNL     1      -3.696   2.045  25.074  0.00  0.00    -0.178 NA
ATOM     16  C   UNL     1      -3.103   2.619  25.063  0.00  0.00    +0.265 C 
ATOM     17  O   UNL     1      -3.345   3.388  25.242  0.00  0.00    -0.271 OA
ATOM     18  C   UNL     1      -2.301   2.527  24.896  0.00  0.00    +0.174 C 
ATOM     19  C   UNL     1      -1.760   3.151  24.903  0.00  0.00    +0.124 C 
ATOM     20  C   UNL     1      -1.018   2.848  24.711  0.00  0.00    +0.045 C 
ATOM     21  C   UNL     1      -1.099   2.036  24.585  0.00  0.00    +0.096 C 
ATOM     22  N   UNL     1      -1.892   1.838  24.699  0.00  0.00    -0.268 N 
ATOM     23  C   UNL     1      -2.184   1.071  24.621  0.00  0.00    +0.251 C 
ATOM     24  O   UNL     1      -1.631   0.495  24.416  0.00  0.00    -0.270 OA
ATOM     31  C   UNL     1      -4.361   0.858  24.993  0.00  0.00    +0.017 A 
ATOM     32  C   UNL     1      -4.418   0.046  24.862  0.00  0.00    +0.001 A 
ENDROOT
BRANCH  11   8
ATOM      3  C   UNL     1      -3.918  -2.825  24.267  0.00  0.00    +0.142 A 
ATOM      4  C   UNL     1      -3.670  -2.543  25.001  0.00  0.00    +0.074 A 
ATOM      5  C   UNL     1      -3.612  -1.730  25.133  0.00  0.00    +0.142 A 
ATOM      8  C   UNL     1      -3.803  -1.200  24.529  0.00  0.00    +0.034 A 
ATOM      9  C   UNL     1      -4.051  -1.484  23.795  0.00  0.00    +0.006 A 
ATOM     10  C   UNL     1      -4.108  -2.296  23.664  0.00  0.00    +0.037 A 
BRANCH   3   2
ATOM      1  C   UNL     1      -3.541  -3.990  23.529  0.00  0.00    +0.252 C 
ATOM      2  O   UNL     1      -3.975  -3.638  24.136  0.00  0.00    -0.471 OA
ENDBRANCH   3   2
BRANCH   5   6
ATOM      6  O   UNL     1      -3.365  -1.447  25.866  0.00  0.00    -0.471 OA
ATOM      7  C   UNL     1      -3.169  -1.976  26.469  0.00  0.00    +0.252 C 
ENDBRANCH   5   6
ENDBRANCH  11   8
BRANCH  19  25
ATOM     25  N   UNL     1      -1.932   3.940  25.073  0.00  0.00    -0.204 NA
ATOM     26  C   UNL     1      -1.327   4.501  25.085  0.00  0.00    +0.252 C 
ATOM     27  O   UNL     1      -0.551   4.272  24.928  0.00  0.00    -0.272 OA
BRANCH  26  28
ATOM     28  C   UNL     1      -1.499   5.289  25.255  0.00  0.00    +0.144 C 
BRANCH  28  29
ATOM     29  S   UNL     1      -1.253   5.885  24.741  0.00  0.00    -0.130 S 
ATOM     30  C   UNL     1      -1.643   6.612  24.734  0.00  0.00    +0.070 C 
ENDBRANCH  28  29
ENDBRANCH  26  28
ENDBRANCH  19  25
TORSDOF 6
ENDMDL
MODEL 6
REMARK VINA RESULT:      -6.0      3.322      4.733
REMARK  Name = 
REMARK  6 active torsions:
REMARK  status: ('A' for Active; 'I' for Inactive)
REMARK    1  A    between atoms: O_2  and  C_3
REMARK    2  A    between atoms: C_5  and  O_6
REMARK    3  A    between atoms: C_8  and  C_11
REMARK    4  A    between atoms: C_19  and  N_25
REMARK    5  A    between atoms: C_26  and  C_28
REMARK    6  A    between atoms: C_28  and  S_29
REMARK                            x       y       z     vdW  Elec       q    Type
REMARK                         _______ _______ _______ _____ _____    ______ ____
ROOT
ATOM     11  C   UNL     1      -2.656   2.866  24.776  0.00  0.00    +0.003 A 
ATOM     12  C   UNL     1      -2.292   2.168  25.020  0.00  0.00    +0.006 A 
ATOM     13  C   UNL     1      -2.677   1.445  24.918  0.00  0.00    +0.069 A 
ATOM     14  C   UNL     1      -3.425   1.420  24.572  0.00  0.00    +0.078 A 
ATOM     15  N   UNL     1      -3.901   0.764  24.420  0.00  0.00    -0.178 NA
ATOM     16  C   UNL     1      -3.746  -0.031  24.577  0.00  0.00    +0.265 C 
ATOM     17  O   UNL     1      -4.338  -0.562  24.358  0.00  0.00    -0.271 OA
ATOM     18  C   UNL     1      -3.076  -0.365  24.924  0.00  0.00    +0.174 C 
ATOM     19  C   UNL     1      -2.987  -1.176  25.051  0.00  0.00    +0.124 C 
ATOM     20  C   UNL     1      -2.253  -1.299  25.406  0.00  0.00    +0.045 C 
ATOM     21  C   UNL     1      -1.888  -0.565  25.498  0.00  0.00    +0.096 C 
ATOM     22  N   UNL     1      -2.396   0.012  25.200  0.00  0.00    -0.268 N 
ATOM     23  C   UNL     1      -2.218   0.817  25.198  0.00  0.00    +0.251 C 
ATOM     24  O   UNL     1      -1.486   1.024  25.516  0.00  0.00    -0.270 OA
ATOM     31  C   UNL     1      -3.789   2.120  24.328  0.00  0.00    +0.017 A 
ATOM     32  C   UNL     1      -3.405   2.843  24.430  0.00  0.00    +0.001 A 
ENDROOT
BRANCH  11   8
ATOM      3  C   UNL     1      -1.503   5.035  25.082  0.00  0.00    +0.142 A 
ATOM      4  C   UNL     1      -2.128   4.827  25.578  0.00  0.00    +0.074 A 
ATOM      5  C   UNL     1      -2.513   4.104  25.476  0.00  0.00    +0.142 A 
ATOM      8  C   UNL     1      -2.272   3.589  24.878  0.00  0.00    +0.034 A 
ATOM      9  C   UNL     1      -1.645   3.798  24.383  0.00  0.00    +0.006 A 
ATOM     10  C   UNL     1      -1.261   4.520  24.485  0.00  0.00    +0.037 A 
BRANCH   3   2
ATOM      1  C   UNL     1      -0.490   5.964  24.691  0.00  0.00    +0.252 C 
ATOM      2  O   UNL     1      -1.118   5.757  25.184  0.00  0.00    -0.471 OA
ENDBRANCH   3   2
BRANCH   5   6
ATOM      6  O   UNL     1      -3.138   3.896  25.972  0.00  0.00    -0.471 OA
ATOM      7  C   UNL     1      -3.338   4.378  26.611  0.00  0.00    +0.252 C 
ENDBRANCH   5   6
ENDBRANCH  11   8
BRANCH  19  25
ATOM     25  N   UNL     1      -3.536  -1.760  24.858  0.00  0.00    -0.204 NA
ATOM     26  C   UNL     1      -3.282  -2.528  24.694  0.00  0.00    +0.252 C 
ATOM     27  O   UNL     1      -2.478  -2.710  24.723  0.00  0.00    -0.272 OA
BRANCH  26  28
ATOM     28  C   UNL     1      -3.830  -3.112  24.501  0.00  0.00    +0.144 C 
BRANCH  28  29
ATOM     29  S   UNL     1      -3.715  -3.583  23.834  0.00  0.00    -0.130 S 
ATOM     30  C   UNL     1      -4.359  -3.810  23.372  0.00  0.00    +0.070 C 
ENDBRANCH  28  29
ENDBRANCH  26  28
ENDBRANCH  19  25
TORSDOF 6
ENDMDL
MODEL 7
REMARK VINA RESULT:      -4.7     12.425     15.930
REMARK  Name = 
REMARK  6 active torsions:
REMARK  status: ('A' for Active; 'I' for Inactive)
REMARK    1  A    between atoms: O_2  and  C_3
REMARK    2  A    between atoms: C_5  and  O_6
REMARK    3  A    between atoms: C_8  and  C_11
REMARK    4  A    between atoms: C_19  and  N_25
REMARK    5  A    between atoms: C_26  and  C_28
REMARK    6  A    between atoms: C_28  and  S_29
REMARK                            x       y       z     vdW  Elec       q    Type
REMARK                         _______ _______ _______ _____ _____    ______ ____
ROOT
ATOM     11  C   UNL     1      11.783   7.437  20.726  0.00  0.00    +0.003 A 
ATOM     12  C   UNL     1      11.573   7.724  19.982  0.00  0.00    +0.006 A 
ATOM     13  C   UNL     1      12.159   7.935  19.441  0.00  0.00    +0.069 A 
ATOM     14  C   UNL     1      12.955   7.858  19.643  0.00  0.00    +0.078 A 
ATOM     15  N   UNL     1      13.621   8.035  19.189  0.00  0.00    -0.178 NA
ATOM     16  C   UNL     1      13.655   8.332  18.421  0.00  0.00    +0.265 C 
ATOM     17  O   UNL     1      14.412   8.452  18.116  0.00  0.00    -0.271 OA
ATOM     18  C   UNL     1      13.032   8.526  17.916  0.00  0.00    +0.174 C 
ATOM     19  C   UNL     1      13.140   8.822  17.153  0.00  0.00    +0.124 C 
ATOM     20  C   UNL     1      12.396   8.949  16.821  0.00  0.00    +0.045 C 
ATOM     21  C   UNL     1      11.827   8.732  17.379  0.00  0.00    +0.096 C 
ATOM     22  N   UNL     1      12.221   8.471  18.055  0.00  0.00    -0.268 N 
ATOM     23  C   UNL     1      11.832   8.208  18.733  0.00  0.00    +0.251 C 
ATOM     24  O   UNL     1      11.007   8.219  18.702  0.00  0.00    -0.270 OA
ATOM     31  C   UNL     1      13.165   7.570  20.387  0.00  0.00    +0.017 A 
ATOM     32  C   UNL     1      12.580   7.360  20.929  0.00  0.00    +0.001 A 
ENDROOT
BRANCH  11   8
ATOM      3  C   UNL     1      10.027   6.804  22.351  0.00  0.00    +0.142 A 
ATOM      4  C   UNL     1      10.358   7.559  22.375  0.00  0.00    +0.074 A 
ATOM      5  C   UNL     1      10.944   7.771  21.833  0.00  0.00    +0.142 A 
ATOM      8  C   UNL     1      11.198   7.226  21.267  0.00  0.00    +0.034 A 
ATOM      9  C   UNL     1      10.866   6.471  21.244  0.00  0.00    +0.006 A 
ATOM     10  C   UNL     1      10.281   6.260  21.785  0.00  0.00    +0.037 A 
BRANCH   3   2
ATOM      1  C   UNL     1       8.895   6.006  22.701  0.00  0.00    +0.252 C 
ATOM      2  O   UNL     1       9.441   6.594  22.892  0.00  0.00    -0.471 OA
ENDBRANCH   3   2
BRANCH   5   6
ATOM      6  O   UNL     1      11.275   8.525  21.857  0.00  0.00    -0.471 OA
ATOM      7  C   UNL     1      10.979   9.091  22.379  0.00  0.00    +0.252 C 
ENDBRANCH   5   6
ENDBRANCH  11   8
BRANCH  19  25
ATOM     25  N   UNL     1      13.865   8.965  16.786  0.00  0.00    -0.204 NA
ATOM     26  C   UNL     1      13.928   8.922  15.965  0.00  0.00    +0.252 C 
ATOM     27  O   UNL     1      13.265   8.736  15.510  0.00  0.00    -0.272 OA
BRANCH  26  28
ATOM     28  C   UNL     1      14.652   9.065  15.598  0.00  0.00    +0.144 C 
BRANCH  28  29
ATOM     29  S   UNL     1      14.701   9.091  14.776  0.00  0.00    -0.130 S 
ATOM     30  C   UNL     1      15.436   9.053  14.404  0.00  0.00    +0.070 C 
ENDBRANCH  28  29
ENDBRANCH  26  28
ENDBRANCH  19  25
TORSDOF 6
ENDMDL
