MODEL 1
REMARK VINA RESULT:      -9.4      0.000      0.000
REMARK  Name = 
REMARK  8 active torsions:
REMARK  status: ('A' for Active; 'I' for Inactive)
REMARK    1  A    between atoms: O_2  and  C_3
REMARK    2  A    between atoms: C_3  and  C_4
REMARK    3  A    between atoms: N_8  and  C_9
REMARK    4  A    between atoms: C_10  and  C_11
REMARK    5  A    between atoms: C_11  and  N_12
REMARK    6  A    between atoms: N_12  and  S_13
REMARK    7  A    between atoms: S_13  and  C_16
REMARK    8  A    between atoms: C_22  and  C_23
REMARK                            x       y       z     vdW  Elec       q    Type
REMARK                         _______ _______ _______ _____ _____    ______ ____
ROOT
ATOM      9  C   UNL     1      -3.672   2.220  24.456  0.00  0.00    +0.120 C 
ATOM     10  C   UNL     1      -4.038   1.558  24.789  0.00  0.00    +0.152 C 
ATOM     21  O   UNL     1      -4.656   1.823  25.266  0.00  0.00    -0.350 OA
ATOM     22  C   UNL     1      -4.674   2.647  25.228  0.00  0.00    +0.180 C 
ATOM     25  C   UNL     1      -4.066   2.892  24.728  0.00  0.00    +0.198 C 
ATOM     26  O   UNL     1      -3.883   3.672  24.533  0.00  0.00    -0.219 OA
ENDROOT
BRANCH   9   8
ATOM      4  C   UNL     1      -2.235   2.292  24.156  0.00  0.00    +0.087 C 
ATOM      5  C   UNL     1      -1.779   2.249  23.470  0.00  0.00    +0.020 C 
ATOM      6  C   UNL     1      -2.290   2.139  22.831  0.00  0.00    +0.019 C 
ATOM      7  C   UNL     1      -3.061   2.115  23.123  0.00  0.00    +0.072 C 
ATOM      8  N   UNL     1      -3.028   2.210  23.942  0.00  0.00    -0.269 NA
BRANCH   4   3
ATOM      3  C   UNL     1      -1.949   2.400  24.923  0.00  0.00    +0.158 C 
BRANCH   3   2
ATOM      1  C   UNL     1      -0.851   2.567  25.822  0.00  0.00    +0.174 C 
ATOM      2  O   UNL     1      -1.136   2.450  25.057  0.00  0.00    -0.350 OA
ENDBRANCH   3   2
ENDBRANCH   4   3
ENDBRANCH   9   8
BRANCH  22  23
ATOM     23  C   UNL     1      -5.206   3.139  25.622  0.00  0.00    +0.214 C 
ATOM     24  O   UNL     1      -5.681   2.834  26.224  0.00  0.00    -0.218 OA
ENDBRANCH  22  23
BRANCH  10  11
ATOM     11  C   UNL     1      -3.822   0.772  24.665  0.00  0.00    +0.146 C 
BRANCH  11  12
ATOM     12  N   UNL     1      -4.267   0.165  25.003  0.00  0.00    -0.075 NA
BRANCH  12  13
ATOM     13  S   UNL     1      -4.062  -0.622  24.864  0.00  0.00    +0.083 S 
ATOM     14  O   UNL     1      -3.589  -0.618  25.540  0.00  0.00    -0.151 OA
ATOM     15  O   UNL     1      -4.536  -0.627  24.189  0.00  0.00    -0.151 OA
BRANCH  13  16
ATOM     16  C   UNL     1      -3.857  -1.410  24.726  0.00  0.00    +0.153 A 
ATOM     17  C   UNL     1      -4.074  -1.859  24.069  0.00  0.00    +0.027 A 
ATOM     18  C   UNL     1      -3.750  -2.613  24.158  0.00  0.00    +0.009 A 
ATOM     19  C   UNL     1      -3.333  -2.629  24.870  0.00  0.00    +0.037 A 
ATOM     20  S   UNL     1      -3.399  -1.886  25.221  0.00  0.00    -0.067 S 
ENDBRANCH  13  16
ENDBRANCH  12  13
ENDBRANCH  11  12
ENDBRANCH  10  11
TORSDOF 8
ENDMDL
MODEL 2
REMARK VINA RESULT:      -8.8      0.961      2.398
REMARK  Name = 
REMARK  8 active torsions:
REMARK  status: ('A' for Active; 'I' for Inactive)
REMARK    1  A    between atoms: O_2  and  C_3
REMARK    2  A    between atoms: C_3  and  C_4
REMARK    3  A    between atoms: N_8  and  C_9
REMARK    4  A    between atoms: C_10  and  C_11
REMARK    5  A    between atoms: C_11  and  N_12
REMARK    6  A    between atoms: N_12  and  S_13
REMARK    7  A    between atoms: S_13  and  C_16
REMARK    8  A    between atoms: C_22  and  C_23
REMARK                            x       y       z     vdW  Elec       q    Type
REMARK                         _______ _______ _______ _____ _____    ______ ____
ROOT
ATOM      9  C   UNL     1      -2.185   2.185  24.601  0.00  0.00    +0.120 C 
ATOM     10  C   UNL     1      -2.075   1.439  24.936  0.00  0.00    +0.152 C 
ATOM     21  O   UNL     1      -1.446   1.487  25.467  0.00  0.00    -0.350 OA
ATOM     22  C   UNL     1      -1.165   2.264  25.460  0.00  0.00    +0.180 C 
ATOM     25  C   UNL     1      -1.622   2.695  24.925  0.00  0.00    +0.198 C 
ATOM     26  O   UNL     1      -1.532   3.494  24.745  0.00  0.00    -0.219 OA
ENDROOT
BRANCH   9   8
ATOM      4  C   UNL     1      -3.494   2.720  24.199  0.00  0.00    +0.087 C 
ATOM      5  C   UNL     1      -3.883   2.829  23.480  0.00  0.00    +0.020 C 
ATOM      6  C   UNL     1      -3.386   2.562  22.878  0.00  0.00    +0.019 C 
ATOM      7  C   UNL     1      -2.689   2.288  23.224  0.00  0.00    +0.072 C 
ATOM      8  N   UNL     1      -2.756   2.386  24.041  0.00  0.00    -0.269 NA
BRANCH   4   3
ATOM      3  C   UNL     1      -3.790   2.911  24.945  0.00  0.00    +0.158 C 
BRANCH   3   2
ATOM      1  C   UNL     1      -4.865   3.364  25.770  0.00  0.00    +0.174 C 
ATOM      2  O   UNL     1      -4.553   3.214  25.021  0.00  0.00    -0.350 OA
ENDBRANCH   3   2
ENDBRANCH   4   3
ENDBRANCH   9   8
BRANCH  22  23
ATOM     23  C   UNL     1      -0.539   2.556  25.909  0.00  0.00    +0.214 C 
ATOM     24  O   UNL     1      -0.168   2.073  26.465  0.00  0.00    -0.218 OA
ENDBRANCH  22  23
BRANCH  10  11
ATOM     11  C   UNL     1      -2.519   0.763  24.770  0.00  0.00    +0.146 C 
BRANCH  11  12
ATOM     12  N   UNL     1      -2.323   0.044  25.125  0.00  0.00    -0.075 NA
BRANCH  12  13
ATOM     13  S   UNL     1      -2.730  -0.642  24.917  0.00  0.00    +0.083 S 
ATOM     14  O   UNL     1      -3.311  -0.467  25.475  0.00  0.00    -0.151 OA
ATOM     15  O   UNL     1      -2.149  -0.818  24.358  0.00  0.00    -0.151 OA
BRANCH  13  16
ATOM     16  C   UNL     1      -3.137  -1.329  24.708  0.00  0.00    +0.153 A 
ATOM     17  C   UNL     1      -3.795  -1.371  24.213  0.00  0.00    +0.027 A 
ATOM     18  C   UNL     1      -4.023  -2.163  24.157  0.00  0.00    +0.009 A 
ATOM     19  C   UNL     1      -3.505  -2.610  24.619  0.00  0.00    +0.037 A 
ATOM     20  S   UNL     1      -2.957  -2.095  24.959  0.00  0.00    -0.067 S 
ENDBRANCH  13  16
ENDBRANCH  12  13
ENDBRANCH  11  12
ENDBRANCH  10  11
TORSDOF 8
ENDMDL
MODEL 3
REMARK VINA RESULT:      -7.9      1.387      2.403
REMARK  Name = 
REMARK  8 active torsions:
REMARK  status: ('A' for Active; 'I' for Inactive)
REMARK    1  A    between atoms: O_2  and  C_3
REMARK    2  A    between atoms: C_3  and  C_4
REMARK    3  A    between atoms: N_8  and  C_9
REMARK    4  A    between atoms: C_10  and  C_11
REMARK    5  A    between atoms: C_11  and  N_12
REMARK    6  A    between atoms: N_12  and  S_13
REMARK    7  A    between atoms: S_13  and  C_16
REMARK    8  A    between atoms: C_22  and  C_23
REMARK                            x       y       z     vdW  Elec       q    Type
REMARK                         _______ _______ _______ _____ _____    ______ ____
ROOT
ATOM      9  C   UNL     1      -3.893   2.215  23.922  0.00  0.00    +0.120 C 
ATOM     10  C   UNL     1      -3.463   1.517  23.822  0.00  0.00    +0.152 C 
ATOM     21  O   UNL     1      -3.002   1.596  23.143  0.00  0.00    -0.350 OA
ATOM     22  C   UNL     1      -3.146   2.343  22.822  0.00  0.00    +0.180 C 
ATOM     25  C   UNL     1      -3.697   2.725  23.303  0.00  0.00    +0.198 C 
ATOM     26  O   UNL     1      -3.998   3.484  23.187  0.00  0.00    -0.219 OA
ENDROOT
BRANCH   9   8
ATOM      4  C   UNL     1      -4.269   2.828  25.203  0.00  0.00    +0.087 C 
ATOM      5  C   UNL     1      -4.953   2.843  25.664  0.00  0.00    +0.020 C 
ATOM      6  C   UNL     1      -5.531   2.398  25.277  0.00  0.00    +0.019 C 
ATOM      7  C   UNL     1      -5.204   2.109  24.577  0.00  0.00    +0.072 C 
ATOM      8  N   UNL     1      -4.424   2.375  24.531  0.00  0.00    -0.269 NA
BRANCH   4   3
ATOM      3  C   UNL     1      -3.556   3.202  25.382  0.00  0.00    +0.158 C 
BRANCH   3   2
ATOM      1  C   UNL     1      -2.788   4.063  26.225  0.00  0.00    +0.174 C 
ATOM      2  O   UNL     1      -3.490   3.661  26.064  0.00  0.00    -0.350 OA
ENDBRANCH   3   2
ENDBRANCH   4   3
ENDBRANCH   9   8
BRANCH  22  23
ATOM     23  C   UNL     1      -2.801   2.652  22.140  0.00  0.00    +0.214 C 
ATOM     24  O   UNL     1      -2.470   2.145  21.579  0.00  0.00    -0.218 OA
ENDBRANCH  22  23
BRANCH  10  11
ATOM     11  C   UNL     1      -3.491   0.857  24.316  0.00  0.00    +0.146 C 
BRANCH  11  12
ATOM     12  N   UNL     1      -3.034   0.192  24.140  0.00  0.00    -0.075 NA
BRANCH  12  13
ATOM     13  S   UNL     1      -3.138  -0.504  24.571  0.00  0.00    +0.083 S 
ATOM     14  O   UNL     1      -2.584  -0.244  25.124  0.00  0.00    -0.151 OA
ATOM     15  O   UNL     1      -3.692  -0.764  24.018  0.00  0.00    -0.151 OA
BRANCH  13  16
ATOM     16  C   UNL     1      -3.241  -1.200  25.002  0.00  0.00    +0.153 A 
ATOM     17  C   UNL     1      -3.314  -1.257  25.821  0.00  0.00    +0.027 A 
ATOM     18  C   UNL     1      -3.408  -2.054  26.015  0.00  0.00    +0.009 A 
ATOM     19  C   UNL     1      -3.394  -2.489  25.314  0.00  0.00    +0.037 A 
ATOM     20  S   UNL     1      -3.291  -1.962  24.688  0.00  0.00    -0.067 S 
ENDBRANCH  13  16
ENDBRANCH  12  13
ENDBRANCH  11  12
ENDBRANCH  10  11
TORSDOF 8
ENDMDL
MODEL 4
REMARK VINA RESULT:      -7.8      2.120      4.717
REMARK  Name = 
REMARK  8 active torsions:
REMARK  status: ('A' for Active; 'I' for Inactive)
REMARK    1  A    between atoms: O_2  and  C_3
REMARK    2  A    between atoms: C_3  and  C_4
REMARK    3  A    between atoms: N_8  and  C_9
REMARK    4  A    between atoms: C_10  and  C_11
REMARK    5  A    between atoms: C_11  and  N_12
REMARK    6  A    between atoms: N_12  and  S_13
REMARK    7  A    between atoms: S_13  and  C_16
REMARK    8  A    between atoms: C_22  and  C_23
REMARK                            x       y       z     vdW  Elec       q    Type
REMARK                         _______ _______ _______ _____ _____    ______ ____
ROOT
ATOM      9  C   UNL     1      -1.828  -0.614  24.916  0.00  0.00    +0.120 C 
ATOM     10  C   UNL     1      -1.863   0.140  24.582  0.00  0.00    +0.152 C 
ATOM     21  O   UNL     1      -1.184   0.249  24.127  0.00  0.00    -0.350 OA
ATOM     22  C   UNL     1      -0.728  -0.438  24.180  0.00  0.00    +0.180 C 
ATOM     25  C   UNL     1      -1.127  -0.971  24.668  0.00  0.00    +0.198 C 
ATOM     26  O   UNL     1      -0.869  -1.727  24.871  0.00  0.00    -0.219 OA
ENDROOT
BRANCH   9   8
ATOM      4  C   UNL     1      -3.020  -1.435  25.174  0.00  0.00    +0.087 C 
ATOM      5  C   UNL     1      -3.447  -1.647  25.847  0.00  0.00    +0.020 C 
ATOM      6  C   UNL     1      -3.087  -1.295  26.500  0.00  0.00    +0.019 C 
ATOM      7  C   UNL     1      -2.436  -0.865  26.231  0.00  0.00    +0.072 C 
ATOM      8  N   UNL     1      -2.395  -0.951  25.411  0.00  0.00    -0.269 NA
BRANCH   4   3
ATOM      3  C   UNL     1      -3.188  -1.666  24.400  0.00  0.00    +0.158 C 
BRANCH   3   2
ATOM      1  C   UNL     1      -4.141  -2.248  23.509  0.00  0.00    +0.174 C 
ATOM      2  O   UNL     1      -3.787  -2.213  24.253  0.00  0.00    -0.350 OA
ENDBRANCH   3   2
ENDBRANCH   4   3
ENDBRANCH   9   8
BRANCH  22  23
ATOM     23  C   UNL     1      -0.003  -0.567  23.811  0.00  0.00    +0.214 C 
ATOM     24  O   UNL     1       0.363   0.043  23.392  0.00  0.00    -0.218 OA
ENDBRANCH  22  23
BRANCH  10  11
ATOM     11  C   UNL     1      -2.471   0.688  24.685  0.00  0.00    +0.146 C 
BRANCH  11  12
ATOM     12  N   UNL     1      -2.409   1.440  24.350  0.00  0.00    -0.075 NA
BRANCH  12  13
ATOM     13  S   UNL     1      -2.996   2.002  24.489  0.00  0.00    +0.083 S 
ATOM     14  O   UNL     1      -3.424   1.716  23.844  0.00  0.00    -0.151 OA
ATOM     15  O   UNL     1      -2.569   2.289  25.134  0.00  0.00    -0.151 OA
BRANCH  13  16
ATOM     16  C   UNL     1      -3.583   2.565  24.628  0.00  0.00    +0.153 A 
ATOM     17  C   UNL     1      -4.359   2.409  24.860  0.00  0.00    +0.027 A 
ATOM     18  C   UNL     1      -4.753   3.130  24.935  0.00  0.00    +0.009 A 
ATOM     19  C   UNL     1      -4.220   3.732  24.750  0.00  0.00    +0.037 A 
ATOM     20  S   UNL     1      -3.497   3.383  24.560  0.00  0.00    -0.067 S 
ENDBRANCH  13  16
ENDBRANCH  12  13
ENDBRANCH  11  12
ENDBRANCH  10  11
TORSDOF 8
ENDMDL
MODEL 5
REMARK VINA RESULT:      -7.7      2.019      4.007
REMARK  Name = 
REMARK  8 active torsions:
REMARK  status: ('A' for Active; 'I' for Inactive)
REMARK    1  A    between atoms: O_2  and  C_3
REMARK    2  A    between atoms: C_3  and  C_4
REMARK    3  A    between atoms: N_8  and  C_9
REMARK    4  A    between atoms: C_10  and  C_11
REMARK    5  A    between atoms: C_11  and  N_12
REMARK    6  A    between atoms: N_12  and  S_13
REMARK    7  A    between atoms: S_13  and  C_16
REMARK    8  A    between atoms: C_22  and  C_23
REMARK                            x       y       z     vdW  Elec       q    Type
REMARK                         _______ _______ _______ _____ _____    ______ ____
ROOT
ATOM      9  C   UNL     1      -4.270   1.688  24.746  0.00  0.00    +0.120 C 
ATOM     10  C   UNL     1      -4.021   2.374  25.133  0.00  0.00    +0.152 C 
ATOM     21  O   UNL     1      -4.652   2.658  25.581  0.00  0.00    -0.350 OA
ATOM     22  C   UNL     1      -5.292   2.148  25.472  0.00  0.00    +0.180 C 
ATOM     25  C   UNL     1      -5.056   1.549  24.956  0.00  0.00    +0.198 C 
ATOM     26  O   UNL     1      -5.523   0.921  24.696  0.00  0.00    -0.219 OA
ENDROOT
BRANCH   9   8
ATOM      4  C   UNL     1      -3.439   0.516  24.437  0.00  0.00    +0.087 C 
ATOM      5  C   UNL     1      -3.046   0.241  23.766  0.00  0.00    +0.020 C 
ATOM      6  C   UNL     1      -3.178   0.778  23.154  0.00  0.00    +0.019 C 
ATOM      7  C   UNL     1      -3.653   1.386  23.447  0.00  0.00    +0.072 C 
ATOM      8  N   UNL     1      -3.814   1.224  24.240  0.00  0.00    -0.269 NA
BRANCH   4   3
ATOM      3  C   UNL     1      -3.454   0.148  25.175  0.00  0.00    +0.158 C 
BRANCH   3   2
ATOM      1  C   UNL     1      -3.132  -0.980  25.991  0.00  0.00    +0.174 C 
ATOM      2  O   UNL     1      -3.016  -0.539  25.304  0.00  0.00    -0.350 OA
ENDBRANCH   3   2
ENDBRANCH   4   3
ENDBRANCH   9   8
BRANCH  22  23
ATOM     23  C   UNL     1      -6.037   2.225  25.818  0.00  0.00    +0.214 C 
ATOM     24  O   UNL     1      -6.116   2.605  26.546  0.00  0.00    -0.218 OA
ENDBRANCH  22  23
BRANCH  10  11
ATOM     11  C   UNL     1      -3.271   2.715  25.079  0.00  0.00    +0.146 C 
BRANCH  11  12
ATOM     12  N   UNL     1      -3.114   3.426  25.467  0.00  0.00    -0.075 NA
BRANCH  12  13
ATOM     13  S   UNL     1      -2.410   3.830  25.317  0.00  0.00    +0.083 S 
ATOM     14  O   UNL     1      -2.038   3.403  25.917  0.00  0.00    -0.151 OA
ATOM     15  O   UNL     1      -2.782   4.257  24.717  0.00  0.00    -0.151 OA
BRANCH  13  16
ATOM     16  C   UNL     1      -1.706   4.233  25.167  0.00  0.00    +0.153 A 
ATOM     17  C   UNL     1      -1.607   5.052  25.169  0.00  0.00    +0.027 A 
ATOM     18  C   UNL     1      -0.817   5.213  24.992  0.00  0.00    +0.009 A 
ATOM     19  C   UNL     1      -0.428   4.494  24.882  0.00  0.00    +0.037 A 
ATOM     20  S   UNL     1      -0.977   3.888  24.990  0.00  0.00    -0.067 S 
ENDBRANCH  13  16
ENDBRANCH  12  13
ENDBRANCH  11  12
ENDBRANCH  10  11
TORSDOF 8
ENDMDL
MODEL 6
REMARK VINA RESULT:      -7.7      1.879      4.101
REMARK  Name = 
REMARK  8 active torsions:
REMARK  status: ('A' for Active; 'I' for Inactive)
REMARK    1  A    between atoms: O_2  and  C_3
REMARK    2  A    between atoms: C_3  and  C_4
REMARK    3  A    between atoms: N_8  and  C_9
REMARK    4  A    between atoms: C_10  and  C_11
REMARK    5  A    between atoms: C_11  and  N_12
REMARK    6  A    between atoms: N_12  and  S_13
REMARK    7  A    between atoms: S_13  and  C_16
REMARK    8  A    between atoms: C_22  and  C_23
REMARK                            x       y       z     vdW  Elec       q    Type
REMARK                         _______ _______ _______ _____ _____    ______ ____
ROOT
ATOM      9  C   UNL     1      -2.729  -1.077  24.918  0.00  0.00    +0.120 C 
ATOM     10  C   UNL     1      -3.400  -0.659  24.679  0.00  0.00    +0.152 C 
ATOM     21  O   UNL     1      -3.886  -1.177  24.259  0.00  0.00    -0.350 OA
ATOM     22  C   UNL     1      -3.517  -1.915  24.239  0.00  0.00    +0.180 C 
ATOM     25  C   UNL     1      -2.802  -1.853  24.646  0.00  0.00    +0.198 C 
ATOM     26  O   UNL     1      -2.255  -2.459  24.762  0.00  0.00    -0.219 OA
ENDROOT
BRANCH   9   8
ATOM      4  C   UNL     1      -1.397  -0.468  25.041  0.00  0.00    +0.087 C 
ATOM      5  C   UNL     1      -0.922  -0.226  25.671  0.00  0.00    +0.020 C 
ATOM      6  C   UNL     1      -1.330  -0.379  26.372  0.00  0.00    +0.019 C 
ATOM      7  C   UNL     1      -2.057  -0.717  26.175  0.00  0.00    +0.072 C 
ATOM      8  N   UNL     1      -2.098  -0.772  25.352  0.00  0.00    -0.269 NA
BRANCH   4   3
ATOM      3  C   UNL     1      -1.204  -0.417  24.240  0.00  0.00    +0.158 C 
BRANCH   3   2
ATOM      1  C   UNL     1      -0.275  -0.065  23.213  0.00  0.00    +0.174 C 
ATOM      2  O   UNL     1      -0.497  -0.062  24.008  0.00  0.00    -0.350 OA
ENDBRANCH   3   2
ENDBRANCH   4   3
ENDBRANCH   9   8
BRANCH  22  23
ATOM     23  C   UNL     1      -3.810  -2.594  23.876  0.00  0.00    +0.214 C 
ATOM     24  O   UNL     1      -4.559  -2.586  23.529  0.00  0.00    -0.218 OA
ENDBRANCH  22  23
BRANCH  10  11
ATOM     11  C   UNL     1      -3.556   0.136  24.832  0.00  0.00    +0.146 C 
BRANCH  11  12
ATOM     12  N   UNL     1      -4.265   0.474  24.576  0.00  0.00    -0.075 NA
BRANCH  12  13
ATOM     13  S   UNL     1      -4.446   1.253  24.778  0.00  0.00    +0.083 S 
ATOM     14  O   UNL     1      -4.014   1.521  24.128  0.00  0.00    -0.151 OA
ATOM     15  O   UNL     1      -4.878   0.985  25.427  0.00  0.00    -0.151 OA
BRANCH  13  16
ATOM     16  C   UNL     1      -4.627   2.032  24.979  0.00  0.00    +0.153 A 
ATOM     17  C   UNL     1      -4.162   2.694  24.822  0.00  0.00    +0.027 A 
ATOM     18  C   UNL     1      -4.553   3.358  25.118  0.00  0.00    +0.009 A 
ATOM     19  C   UNL     1      -5.261   3.105  25.459  0.00  0.00    +0.037 A 
ATOM     20  S   UNL     1      -5.307   2.286  25.373  0.00  0.00    -0.067 S 
ENDBRANCH  13  16
ENDBRANCH  12  13
ENDBRANCH  11  12
ENDBRANCH  10  11
TORSDOF 8
ENDMDL
MODEL 7
REMARK VINA RESULT:      -7.7      2.751      5.237
REMARK  Name = 
REMARK  8 active torsions:
REMARK  status: ('A' for Active; 'I' for Inactive)
REMARK    1  A    between atoms: O_2  and  C_3
REMARK    2  A    between atoms: C_3  and  C_4
REMARK    3  A    between atoms: N_8  and  C_9
REMARK    4  A    between atoms: C_10  and  C_11
REMARK    5  A    between atoms: C_11  and  N_12
REMARK    6  A    between atoms: N_12  and  S_13
REMARK    7  A    between atoms: S_13  and  C_16
REMARK    8  A    between atoms: C_22  and  C_23
REMARK                            x       y       z     vdW  Elec       q    Type
REMARK                         _______ _______ _______ _____ _____    ______ ____
ROOT
ATOM      9  C   UNL     1      -0.648   0.036  24.538  0.00  0.00    +0.120 C 
ATOM     10  C   UNL     1      -0.458   0.814  24.337  0.00  0.00    +0.152 C 
ATOM     21  O   UNL     1       0.094   0.792  23.725  0.00  0.00    -0.350 OA
ATOM     22  C   UNL     1       0.246   0.001  23.546  0.00  0.00    +0.180 C 
ATOM     25  C   UNL     1      -0.212  -0.467  24.049  0.00  0.00    +0.198 C 
ATOM     26  O   UNL     1      -0.232  -1.291  24.060  0.00  0.00    -0.219 OA
ENDROOT
BRANCH   9   8
ATOM      4  C   UNL     1      -1.983  -0.349  25.017  0.00  0.00    +0.087 C 
ATOM      5  C   UNL     1      -2.300  -0.567  25.747  0.00  0.00    +0.020 C 
ATOM      6  C   UNL     1      -1.692  -0.551  26.304  0.00  0.00    +0.019 C 
ATOM      7  C   UNL     1      -0.999  -0.323  25.919  0.00  0.00    +0.072 C 
ATOM      8  N   UNL     1      -1.178  -0.198  25.124  0.00  0.00    -0.269 NA
BRANCH   4   3
ATOM      3  C   UNL     1      -2.397  -0.292  24.306  0.00  0.00    +0.158 C 
BRANCH   3   2
ATOM      1  C   UNL     1      -3.637  -0.305  23.596  0.00  0.00    +0.174 C 
ATOM      2  O   UNL     1      -3.207  -0.446  24.286  0.00  0.00    -0.350 OA
ENDBRANCH   3   2
ENDBRANCH   4   3
ENDBRANCH   9   8
BRANCH  22  23
ATOM     23  C   UNL     1       0.765  -0.274  22.968  0.00  0.00    +0.214 C 
ATOM     24  O   UNL     1       1.446   0.155  22.786  0.00  0.00    -0.218 OA
ENDBRANCH  22  23
BRANCH  10  11
ATOM     11  C   UNL     1      -0.767   1.494  24.688  0.00  0.00    +0.146 C 
BRANCH  11  12
ATOM     12  N   UNL     1      -0.489   2.237  24.461  0.00  0.00    -0.075 NA
BRANCH  12  13
ATOM     13  S   UNL     1      -0.864   2.918  24.737  0.00  0.00    +0.083 S 
ATOM     14  O   UNL     1      -0.377   2.915  25.404  0.00  0.00    -0.151 OA
ATOM     15  O   UNL     1      -1.350   2.921  24.071  0.00  0.00    -0.151 OA
BRANCH  13  16
ATOM     16  C   UNL     1      -1.238   3.600  25.013  0.00  0.00    +0.153 A 
ATOM     17  C   UNL     1      -0.948   4.370  24.955  0.00  0.00    +0.027 A 
ATOM     18  C   UNL     1      -1.499   4.877  25.302  0.00  0.00    +0.009 A 
ATOM     19  C   UNL     1      -2.130   4.420  25.575  0.00  0.00    +0.037 A 
ATOM     20  S   UNL     1      -1.968   3.630  25.397  0.00  0.00    -0.067 S 
ENDBRANCH  13  16
ENDBRANCH  12  13
ENDBRANCH  11  12
ENDBRANCH  10  11
TORSDOF 8
ENDMDL
MODEL 8
REMARK VINA RESULT:      -7.5      2.143      3.692
REMARK  Name = 
REMARK  8 active torsions:
REMARK  status: ('A' for Active; 'I' for Inactive)
REMARK    1  A    between atoms: O_2  and  C_3
REMARK    2  A    between atoms: C_3  and  C_4
REMARK    3  A    between atoms: N_8  and  C_9
REMARK    4  A    between atoms: C_10  and  C_11
REMARK    5  A    between atoms: C_11  and  N_12
REMARK    6  A    between atoms: N_12  and  S_13
REMARK    7  A    between atoms: S_13  and  C_16
REMARK    8  A    between atoms: C_22  and  C_23
REMARK                            x       y       z     vdW  Elec       q    Type
REMARK                         _______ _______ _______ _____ _____    ______ ____
ROOT
ATOM      9  C   UNL     1      -0.670   1.831  24.319  0.00  0.00    +0.120 C 
ATOM     10  C   UNL     1      -1.340   1.351  24.283  0.00  0.00    +0.152 C 
ATOM     21  O   UNL     1      -1.111   0.614  23.993  0.00  0.00    -0.350 OA
ATOM     22  C   UNL     1      -0.299   0.637  23.850  0.00  0.00    +0.180 C 
ATOM     25  C   UNL     1      -0.026   1.389  24.051  0.00  0.00    +0.198 C 
ATOM     26  O   UNL     1       0.753   1.654  23.995  0.00  0.00    -0.219 OA
ENDROOT
BRANCH   9   8
ATOM      4  C   UNL     1      -0.443   2.868  25.336  0.00  0.00    +0.087 C 
ATOM      5  C   UNL     1      -0.495   3.691  25.351  0.00  0.00    +0.020 C 
ATOM      6  C   UNL     1      -0.730   3.946  24.602  0.00  0.00    +0.019 C 
ATOM      7  C   UNL     1      -0.825   3.280  24.124  0.00  0.00    +0.072 C 
ATOM      8  N   UNL     1      -0.647   2.613  24.578  0.00  0.00    -0.269 NA
BRANCH   4   3
ATOM      3  C   UNL     1      -0.226   2.384  25.968  0.00  0.00    +0.158 C 
BRANCH   3   2
ATOM      1  C   UNL     1       0.254   2.239  27.306  0.00  0.00    +0.174 C 
ATOM      2  O   UNL     1      -0.004   2.720  26.688  0.00  0.00    -0.350 OA
ENDBRANCH   3   2
ENDBRANCH   4   3
ENDBRANCH   9   8
BRANCH  22  23
ATOM     23  C   UNL     1       0.160   0.018  23.556  0.00  0.00    +0.214 C 
ATOM     24  O   UNL     1      -0.006  -0.759  23.777  0.00  0.00    -0.218 OA
ENDBRANCH  22  23
BRANCH  10  11
ATOM     11  C   UNL     1      -2.106   1.570  24.500  0.00  0.00    +0.146 C 
BRANCH  11  12
ATOM     12  N   UNL     1      -2.739   1.066  24.340  0.00  0.00    -0.075 NA
BRANCH  12  13
ATOM     13  S   UNL     1      -3.509   1.304  24.518  0.00  0.00    +0.083 S 
ATOM     14  O   UNL     1      -3.624   1.520  23.730  0.00  0.00    -0.151 OA
ATOM     15  O   UNL     1      -3.394   1.088  25.306  0.00  0.00    -0.151 OA
BRANCH  13  16
ATOM     16  C   UNL     1      -4.279   1.541  24.695  0.00  0.00    +0.153 A 
ATOM     17  C   UNL     1      -4.573   2.310  24.645  0.00  0.00    +0.027 A 
ATOM     18  C   UNL     1      -5.366   2.296  24.873  0.00  0.00    +0.009 A 
ATOM     19  C   UNL     1      -5.562   1.518  25.064  0.00  0.00    +0.037 A 
ATOM     20  S   UNL     1      -4.891   1.051  24.954  0.00  0.00    -0.067 S 
ENDBRANCH  13  16
ENDBRANCH  12  13
ENDBRANCH  11  12
ENDBRANCH  10  11
TORSDOF 8
ENDMDL
