MODEL 1
REMARK VINA RESULT:      -9.8      0.000      0.000
REMARK  Name = 
REMARK  7 active torsions:
REMARK  status: ('A' for Active; 'I' for Inactive)
REMARK    1  A    between atoms: C_2  and  C_3
REMARK    2  A    between atoms: C_3  and  C_4
REMARK    3  A    between atoms: C_3  and  C_6
REMARK    4  A    between atoms: N_8  and  C_9
REMARK    5  A    between atoms: C_9  and  C_10
REMARK    6  A    between atoms: C_12  and  C_13
REMARK    7  A    between atoms: C_13  and  C_14
REMARK                            x       y       z     vdW  Elec       q    Type
REMARK                         _______ _______ _______ _____ _____    ______ ____
ROOT
ATOM     10  C   UNL     1      -4.370   3.431  25.541  0.00  0.00    +0.170 C 
ATOM     11  O   UNL     1      -4.191   2.691  25.224  0.00  0.00    -0.351 OA
ATOM     12  C   UNL     1      -4.900   2.287  25.103  0.00  0.00    +0.157 C 
ATOM     28  C   UNL     1      -5.517   2.779  25.344  0.00  0.00    +0.212 C 
ATOM     29  O   UNL     1      -6.321   2.595  25.319  0.00  0.00    -0.218 OA
ATOM     30  C   UNL     1      -5.189   3.486  25.615  0.00  0.00    +0.213 C 
ATOM     31  O   UNL     1      -5.608   4.133  25.909  0.00  0.00    -0.218 OA
ENDROOT
BRANCH  10   9
ATOM      9  C   UNL     1      -3.824   4.015  25.747  0.00  0.00    +0.147 C 
BRANCH   9   8
ATOM      6  C   UNL     1      -2.445   4.384  25.775  0.00  0.00    +0.241 C 
ATOM      7  O   UNL     1      -2.549   4.720  26.522  0.00  0.00    -0.273 OA
ATOM      8  N   UNL     1      -3.082   4.032  25.388  0.00  0.00    -0.203 NA
BRANCH   6   3
ATOM      3  C   UNL     1      -1.702   4.401  25.416  0.00  0.00    +0.078 C 
BRANCH   3   2
ATOM      1  C   UNL     1      -0.933   5.493  24.906  0.00  0.00    +0.001 C 
ATOM      2  C   UNL     1      -1.546   4.948  24.817  0.00  0.00    +0.009 C 
ENDBRANCH   3   2
BRANCH   3   4
ATOM      4  C   UNL     1      -1.116   3.872  25.654  0.00  0.00    +0.009 C 
ATOM      5  C   UNL     1      -0.713   3.422  25.093  0.00  0.00    +0.001 C 
ENDBRANCH   3   4
ENDBRANCH   6   3
ENDBRANCH   9   8
ENDBRANCH  10   9
BRANCH  12  13
ATOM     13  C   UNL     1      -4.978   1.527  24.794  0.00  0.00    +0.117 C 
BRANCH  13  14
ATOM     14  C   UNL     1      -4.416   1.237  24.264  0.00  0.00    +0.228 C 
ATOM     15  O   UNL     1      -4.154   1.710  23.641  0.00  0.00    -0.275 OA
ATOM     16  N   UNL     1      -4.117   0.473  24.356  0.00  0.00    -0.276 N 
ATOM     17  C   UNL     1      -3.555   0.183  23.826  0.00  0.00    +0.115 C 
ATOM     18  C   UNL     1      -3.256  -0.580  23.918  0.00  0.00    +0.114 C 
ATOM     19  N   UNL     1      -3.518  -1.053  24.541  0.00  0.00    -0.290 N 
ATOM     20  C   UNL     1      -4.080  -0.763  25.071  0.00  0.00    +0.114 C 
ATOM     21  C   UNL     1      -4.379  -0.000  24.978  0.00  0.00    +0.115 C 
ATOM     22  C   UNL     1      -3.219  -1.817  24.633  0.00  0.00    +0.132 A 
ATOM     23  N   UNL     1      -2.658  -2.106  24.103  0.00  0.00    -0.229 NA
ATOM     24  C   UNL     1      -2.358  -2.870  24.195  0.00  0.00    +0.100 A 
ATOM     25  C   UNL     1      -2.621  -3.343  24.818  0.00  0.00    +0.021 A 
ATOM     26  C   UNL     1      -3.183  -3.053  25.348  0.00  0.00    +0.004 A 
ATOM     27  C   UNL     1      -3.481  -2.290  25.255  0.00  0.00    +0.034 A 
ENDBRANCH  13  14
ENDBRANCH  12  13
TORSDOF 7
ENDMDL
MODEL 2
REMARK VINA RESULT:      -9.3      1.762      3.336
REMARK  Name = 
REMARK  7 active torsions:
REMARK  status: ('A' for Active; 'I' for Inactive)
REMARK    1  A    between atoms: C_2  and  C_3
REMARK    2  A    between atoms: C_3  and  C_4
REMARK    3  A    between atoms: C_3  and  C_6
REMARK    4  A    between atoms: N_8  and  C_9
REMARK    5  A    between atoms: C_9  and  C_10
REMARK    6  A    between atoms: C_12  and  C_13
REMARK    7  A    between atoms: C_13  and  C_14
REMARK                            x       y       z     vdW  Elec       q    Type
REMARK                         _______ _______ _______ _____ _____    ______ ____
ROOT
ATOM     10  C   UNL     1      -1.659   3.144  25.261  0.00  0.00    +0.170 C 
ATOM     11  O   UNL     1      -1.604   2.321  25.277  0.00  0.00    -0.351 OA
ATOM     12  C   UNL     1      -0.846   2.122  25.535  0.00  0.00    +0.157 C 
ATOM     28  C   UNL     1      -0.434   2.822  25.678  0.00  0.00    +0.212 C 
ATOM     29  O   UNL     1       0.345   2.880  25.944  0.00  0.00    -0.218 OA
ATOM     30  C   UNL     1      -0.937   3.454  25.509  0.00  0.00    +0.213 C 
ATOM     31  O   UNL     1      -0.748   4.254  25.576  0.00  0.00    -0.218 OA
ENDROOT
BRANCH  10   9
ATOM      9  C   UNL     1      -2.323   3.581  25.036  0.00  0.00    +0.147 C 
BRANCH   9   8
ATOM      6  C   UNL     1      -3.725   3.565  24.766  0.00  0.00    +0.241 C 
ATOM      7  O   UNL     1      -3.615   4.115  24.161  0.00  0.00    -0.273 OA
ATOM      8  N   UNL     1      -3.080   3.299  25.204  0.00  0.00    -0.203 NA
BRANCH   6   3
ATOM      3  C   UNL     1      -4.482   3.283  24.934  0.00  0.00    +0.078 C 
BRANCH   3   2
ATOM      1  C   UNL     1      -5.135   2.032  24.705  0.00  0.00    +0.001 C 
ATOM      2  C   UNL     1      -4.847   2.751  24.419  0.00  0.00    +0.009 C 
ENDBRANCH   3   2
BRANCH   3   4
ATOM      4  C   UNL     1      -4.874   3.532  25.615  0.00  0.00    +0.009 C 
ATOM      5  C   UNL     1      -5.592   3.934  25.555  0.00  0.00    +0.001 C 
ENDBRANCH   3   4
ENDBRANCH   6   3
ENDBRANCH   9   8
ENDBRANCH  10   9
BRANCH  12  13
ATOM     13  C   UNL     1      -0.553   1.357  25.632  0.00  0.00    +0.117 C 
BRANCH  13  14
ATOM     14  C   UNL     1      -0.504   0.848  24.985  0.00  0.00    +0.228 C 
ATOM     15  O   UNL     1       0.026   1.008  24.373  0.00  0.00    -0.275 OA
ATOM     16  N   UNL     1      -0.985   0.178  24.949  0.00  0.00    -0.276 N 
ATOM     17  C   UNL     1      -0.936  -0.330  24.301  0.00  0.00    +0.115 C 
ATOM     18  C   UNL     1      -1.417  -1.000  24.266  0.00  0.00    +0.114 C 
ATOM     19  N   UNL     1      -1.947  -1.160  24.877  0.00  0.00    -0.290 N 
ATOM     20  C   UNL     1      -1.996  -0.651  25.525  0.00  0.00    +0.114 C 
ATOM     21  C   UNL     1      -1.515   0.018  25.560  0.00  0.00    +0.115 C 
ATOM     22  C   UNL     1      -2.428  -1.830  24.841  0.00  0.00    +0.132 A 
ATOM     23  N   UNL     1      -2.379  -2.338  24.194  0.00  0.00    -0.229 NA
ATOM     24  C   UNL     1      -2.859  -3.008  24.158  0.00  0.00    +0.100 A 
ATOM     25  C   UNL     1      -3.389  -3.168  24.770  0.00  0.00    +0.021 A 
ATOM     26  C   UNL     1      -3.438  -2.659  25.417  0.00  0.00    +0.004 A 
ATOM     27  C   UNL     1      -2.958  -1.990  25.453  0.00  0.00    +0.034 A 
ENDBRANCH  13  14
ENDBRANCH  12  13
TORSDOF 7
ENDMDL
MODEL 3
REMARK VINA RESULT:      -9.1      2.520      6.003
REMARK  Name = 
REMARK  7 active torsions:
REMARK  status: ('A' for Active; 'I' for Inactive)
REMARK    1  A    between atoms: C_2  and  C_3
REMARK    2  A    between atoms: C_3  and  C_4
REMARK    3  A    between atoms: C_3  and  C_6
REMARK    4  A    between atoms: N_8  and  C_9
REMARK    5  A    between atoms: C_9  and  C_10
REMARK    6  A    between atoms: C_12  and  C_13
REMARK    7  A    between atoms: C_13  and  C_14
REMARK                            x       y       z     vdW  Elec       q    Type
REMARK                         _______ _______ _______ _____ _____    ______ ____
ROOT
ATOM     10  C   UNL     1      -0.418  -0.430  24.169  0.00  0.00    +0.170 C 
ATOM     11  O   UNL     1      -0.724   0.311  24.364  0.00  0.00    -0.351 OA
ATOM     12  C   UNL     1      -0.221   0.885  24.050  0.00  0.00    +0.157 C 
ATOM     28  C   UNL     1       0.395   0.498  23.661  0.00  0.00    +0.212 C 
ATOM     29  O   UNL     1       1.023   0.861  23.268  0.00  0.00    -0.218 OA
ATOM     30  C   UNL     1       0.274  -0.315  23.734  0.00  0.00    +0.213 C 
ATOM     31  O   UNL     1       0.759  -0.907  23.427  0.00  0.00    -0.218 OA
ENDROOT
BRANCH  10   9
ATOM      9  C   UNL     1      -0.746  -1.160  24.372  0.00  0.00    +0.147 C 
BRANCH   9   8
ATOM      6  C   UNL     1      -1.877  -1.934  24.774  0.00  0.00    +0.241 C 
ATOM      7  O   UNL     1      -1.383  -2.575  24.932  0.00  0.00    -0.273 OA
ATOM      8  N   UNL     1      -1.559  -1.227  24.494  0.00  0.00    -0.203 NA
BRANCH   6   3
ATOM      3  C   UNL     1      -2.690  -2.001  24.895  0.00  0.00    +0.078 C 
BRANCH   3   2
ATOM      1  C   UNL     1      -3.559  -1.258  25.754  0.00  0.00    +0.001 C 
ATOM      2  C   UNL     1      -3.009  -1.863  25.644  0.00  0.00    +0.009 C 
ENDBRANCH   3   2
BRANCH   3   4
ATOM      4  C   UNL     1      -3.186  -2.206  24.269  0.00  0.00    +0.009 C 
ATOM      5  C   UNL     1      -3.693  -2.853  24.338  0.00  0.00    +0.001 C 
ENDBRANCH   3   4
ENDBRANCH   6   3
ENDBRANCH   9   8
ENDBRANCH  10   9
BRANCH  12  13
ATOM     13  C   UNL     1      -0.318   1.701  24.114  0.00  0.00    +0.117 C 
BRANCH  13  14
ATOM     14  C   UNL     1      -0.532   2.036  24.838  0.00  0.00    +0.228 C 
ATOM     15  O   UNL     1       0.000   2.031  25.467  0.00  0.00    -0.275 OA
ATOM     16  N   UNL     1      -1.279   2.376  24.931  0.00  0.00    -0.276 N 
ATOM     17  C   UNL     1      -1.492   2.710  25.653  0.00  0.00    +0.115 C 
ATOM     18  C   UNL     1      -2.238   3.050  25.746  0.00  0.00    +0.114 C 
ATOM     19  N   UNL     1      -2.770   3.055  25.117  0.00  0.00    -0.290 N 
ATOM     20  C   UNL     1      -2.556   2.720  24.393  0.00  0.00    +0.114 C 
ATOM     21  C   UNL     1      -1.811   2.380  24.301  0.00  0.00    +0.115 C 
ATOM     22  C   UNL     1      -3.517   3.395  25.209  0.00  0.00    +0.132 A 
ATOM     23  N   UNL     1      -3.730   3.729  25.932  0.00  0.00    -0.229 NA
ATOM     24  C   UNL     1      -4.476   4.069  26.026  0.00  0.00    +0.100 A 
ATOM     25  C   UNL     1      -5.009   4.074  25.395  0.00  0.00    +0.021 A 
ATOM     26  C   UNL     1      -4.795   3.739  24.672  0.00  0.00    +0.004 A 
ATOM     27  C   UNL     1      -4.049   3.399  24.580  0.00  0.00    +0.034 A 
ENDBRANCH  13  14
ENDBRANCH  12  13
TORSDOF 7
ENDMDL
MODEL 4
REMARK VINA RESULT:      -8.7      3.248      4.834
REMARK  Name = 
REMARK  7 active torsions:
REMARK  status: ('A' for Active; 'I' for Inactive)
REMARK    1  A    between atoms: C_2  and  C_3
REMARK    2  A    between atoms: C_3  and  C_4
REMARK    3  A    between atoms: C_3  and  C_6
REMARK    4  A    between atoms: N_8  and  C_9
REMARK    5  A    between atoms: C_9  and  C_10
REMARK    6  A    between atoms: C_12  and  C_13
REMARK    7  A    between atoms: C_13  and  C_14
REMARK                            x       y       z     vdW  Elec       q    Type
REMARK                         _______ _______ _______ _____ _____    ______ ____
ROOT
ATOM     10  C   UNL     1      -3.460   0.130  24.853  0.00  0.00    +0.170 C 
ATOM     11  O   UNL     1      -2.736   0.341  24.519  0.00  0.00    -0.351 OA
ATOM     12  C   UNL     1      -2.209  -0.284  24.636  0.00  0.00    +0.157 C 
ATOM     28  C   UNL     1      -2.609  -0.880  25.042  0.00  0.00    +0.212 C 
ATOM     29  O   UNL     1      -2.291  -1.606  25.273  0.00  0.00    -0.218 OA
ATOM     30  C   UNL     1      -3.382  -0.625  25.176  0.00  0.00    +0.213 C 
ATOM     31  O   UNL     1      -3.972  -1.050  25.565  0.00  0.00    -0.218 OA
ENDROOT
BRANCH  10   9
ATOM      9  C   UNL     1      -4.143   0.593  24.862  0.00  0.00    +0.147 C 
BRANCH   9   8
ATOM      6  C   UNL     1      -4.752   1.884  24.811  0.00  0.00    +0.241 C 
ATOM      7  O   UNL     1      -5.477   1.536  24.630  0.00  0.00    -0.273 OA
ATOM      8  N   UNL     1      -4.085   1.413  24.927  0.00  0.00    -0.203 NA
BRANCH   6   3
ATOM      3  C   UNL     1      -4.694   2.704  24.876  0.00  0.00    +0.078 C 
BRANCH   3   2
ATOM      1  C   UNL     1      -3.905   3.750  24.302  0.00  0.00    +0.001 C 
ATOM      2  C   UNL     1      -4.472   3.156  24.221  0.00  0.00    +0.009 C 
ENDBRANCH   3   2
BRANCH   3   4
ATOM      4  C   UNL     1      -4.857   3.074  25.595  0.00  0.00    +0.009 C 
ATOM      5  C   UNL     1      -5.501   3.585  25.660  0.00  0.00    +0.001 C 
ENDBRANCH   3   4
ENDBRANCH   6   3
ENDBRANCH   9   8
ENDBRANCH  10   9
BRANCH  12  13
ATOM     13  C   UNL     1      -1.423  -0.307  24.390  0.00  0.00    +0.117 C 
BRANCH  13  14
ATOM     14  C   UNL     1      -0.923   0.332  24.543  0.00  0.00    +0.228 C 
ATOM     15  O   UNL     1      -1.157   0.921  25.070  0.00  0.00    -0.275 OA
ATOM     16  N   UNL     1      -0.188   0.380  24.170  0.00  0.00    -0.276 N 
ATOM     17  C   UNL     1       0.311   1.018  24.324  0.00  0.00    +0.115 C 
ATOM     18  C   UNL     1       1.045   1.067  23.950  0.00  0.00    +0.114 C 
ATOM     19  N   UNL     1       1.279   0.477  23.423  0.00  0.00    -0.290 N 
ATOM     20  C   UNL     1       0.779  -0.161  23.269  0.00  0.00    +0.114 C 
ATOM     21  C   UNL     1       0.046  -0.209  23.643  0.00  0.00    +0.115 C 
ATOM     22  C   UNL     1       2.014   0.526  23.049  0.00  0.00    +0.132 A 
ATOM     23  N   UNL     1       2.513   1.164  23.203  0.00  0.00    -0.229 NA
ATOM     24  C   UNL     1       3.247   1.213  22.830  0.00  0.00    +0.100 A 
ATOM     25  C   UNL     1       3.482   0.623  22.303  0.00  0.00    +0.021 A 
ATOM     26  C   UNL     1       2.981  -0.016  22.149  0.00  0.00    +0.004 A 
ATOM     27  C   UNL     1       2.248  -0.064  22.522  0.00  0.00    +0.034 A 
ENDBRANCH  13  14
ENDBRANCH  12  13
TORSDOF 7
ENDMDL
MODEL 5
REMARK VINA RESULT:      -7.9      2.753      4.528
REMARK  Name = 
REMARK  7 active torsions:
REMARK  status: ('A' for Active; 'I' for Inactive)
REMARK    1  A    between atoms: C_2  and  C_3
REMARK    2  A    between atoms: C_3  and  C_4
REMARK    3  A    between atoms: C_3  and  C_6
REMARK    4  A    between atoms: N_8  and  C_9
REMARK    5  A    between atoms: C_9  and  C_10
REMARK    6  A    between atoms: C_12  and  C_13
REMARK    7  A    between atoms: C_13  and  C_14
REMARK                            x       y       z     vdW  Elec       q    Type
REMARK                         _______ _______ _______ _____ _____    ______ ____
ROOT
ATOM     10  C   UNL     1      -2.755   3.723  25.448  0.00  0.00    +0.170 C 
ATOM     11  O   UNL     1      -2.333   3.020  25.361  0.00  0.00    -0.351 OA
ATOM     12  C   UNL     1      -1.529   3.207  25.338  0.00  0.00    +0.157 C 
ATOM     28  C   UNL     1      -1.456   4.025  25.412  0.00  0.00    +0.212 C 
ATOM     29  O   UNL     1      -0.748   4.450  25.417  0.00  0.00    -0.218 OA
ATOM     30  C   UNL     1      -2.214   4.344  25.480  0.00  0.00    +0.213 C 
ATOM     31  O   UNL     1      -2.397   5.144  25.565  0.00  0.00    -0.218 OA
ENDROOT
BRANCH  10   9
ATOM      9  C   UNL     1      -3.576   3.793  25.496  0.00  0.00    +0.147 C 
BRANCH   9   8
ATOM      6  C   UNL     1      -4.869   3.185  25.472  0.00  0.00    +0.241 C 
ATOM      7  O   UNL     1      -5.219   3.931  25.425  0.00  0.00    -0.273 OA
ATOM      8  N   UNL     1      -4.048   3.116  25.508  0.00  0.00    -0.203 NA
BRANCH   6   3
ATOM      3  C   UNL     1      -5.340   2.508  25.484  0.00  0.00    +0.078 C 
BRANCH   3   2
ATOM      1  C   UNL     1      -5.377   1.264  24.780  0.00  0.00    +0.001 C 
ATOM      2  C   UNL     1      -5.471   2.084  24.788  0.00  0.00    +0.009 C 
ENDBRANCH   3   2
BRANCH   3   4
ATOM      4  C   UNL     1      -5.682   2.255  26.191  0.00  0.00    +0.009 C 
ATOM      5  C   UNL     1      -6.480   2.049  26.213  0.00  0.00    +0.001 C 
ENDBRANCH   3   4
ENDBRANCH   6   3
ENDBRANCH   9   8
ENDBRANCH  10   9
BRANCH  12  13
ATOM     13  C   UNL     1      -0.909   2.670  25.257  0.00  0.00    +0.117 C 
BRANCH  13  14
ATOM     14  C   UNL     1      -1.026   1.963  24.846  0.00  0.00    +0.228 C 
ATOM     15  O   UNL     1      -1.766   1.599  24.853  0.00  0.00    -0.275 OA
ATOM     16  N   UNL     1      -0.402   1.621  24.427  0.00  0.00    -0.276 N 
ATOM     17  C   UNL     1      -0.519   0.916  24.017  0.00  0.00    +0.115 C 
ATOM     18  C   UNL     1       0.105   0.574  23.598  0.00  0.00    +0.114 C 
ATOM     19  N   UNL     1       0.845   0.938  23.591  0.00  0.00    -0.290 N 
ATOM     20  C   UNL     1       0.961   1.644  24.001  0.00  0.00    +0.114 C 
ATOM     21  C   UNL     1       0.338   1.985  24.419  0.00  0.00    +0.115 C 
ATOM     22  C   UNL     1       1.469   0.596  23.172  0.00  0.00    +0.132 A 
ATOM     23  N   UNL     1       1.352  -0.110  22.762  0.00  0.00    -0.229 NA
ATOM     24  C   UNL     1       1.975  -0.452  22.343  0.00  0.00    +0.100 A 
ATOM     25  C   UNL     1       2.715  -0.088  22.335  0.00  0.00    +0.021 A 
ATOM     26  C   UNL     1       2.832   0.618  22.746  0.00  0.00    +0.004 A 
ATOM     27  C   UNL     1       2.208   0.960  23.164  0.00  0.00    +0.034 A 
ENDBRANCH  13  14
ENDBRANCH  12  13
TORSDOF 7
ENDMDL
MODEL 6
REMARK VINA RESULT:      -7.7      2.390      5.183
REMARK  Name = 
REMARK  7 active torsions:
REMARK  status: ('A' for Active; 'I' for Inactive)
REMARK    1  A    between atoms: C_2  and  C_3
REMARK    2  A    between atoms: C_3  and  C_4
REMARK    3  A    between atoms: C_3  and  C_6
REMARK    4  A    between atoms: N_8  and  C_9
REMARK    5  A    between atoms: C_9  and  C_10
REMARK    6  A    between atoms: C_12  and  C_13
REMARK    7  A    between atoms: C_13  and  C_14
REMARK                            x       y       z     vdW  Elec       q    Type
REMARK                         _______ _______ _______ _____ _____    ______ ____
ROOT
ATOM     10  C   UNL     1      -0.215   1.372  24.117  0.00  0.00    +0.170 C 
ATOM     11  O   UNL     1      -1.002   1.611  24.059  0.00  0.00    -0.351 OA
ATOM     12  C   UNL     1      -1.022   2.435  24.101  0.00  0.00    +0.157 C 
ATOM     28  C   UNL     1      -0.247   2.704  24.185  0.00  0.00    +0.212 C 
ATOM     29  O   UNL     1      -0.012   3.493  24.248  0.00  0.00    -0.218 OA
ATOM     30  C   UNL     1       0.252   2.047  24.194  0.00  0.00    +0.213 C 
ATOM     31  O   UNL     1       1.074   2.064  24.269  0.00  0.00    -0.218 OA
ENDROOT
BRANCH  10   9
ATOM      9  C   UNL     1       0.058   0.593  24.100  0.00  0.00    +0.147 C 
BRANCH   9   8
ATOM      6  C   UNL     1      -0.261  -0.790  24.253  0.00  0.00    +0.241 C 
ATOM      7  O   UNL     1       0.283  -0.982  23.662  0.00  0.00    -0.273 OA
ATOM      8  N   UNL     1      -0.373  -0.003  24.472  0.00  0.00    -0.203 NA
BRANCH   6   3
ATOM      3  C   UNL     1      -0.692  -1.387  24.625  0.00  0.00    +0.078 C 
BRANCH   3   2
ATOM      1  C   UNL     1      -0.316  -2.324  25.637  0.00  0.00    +0.001 C 
ATOM      2  C   UNL     1      -0.552  -1.564  25.419  0.00  0.00    +0.009 C 
ENDBRANCH   3   2
BRANCH   3   4
ATOM      4  C   UNL     1      -1.264  -1.807  24.204  0.00  0.00    +0.009 C 
ATOM      5  C   UNL     1      -2.028  -1.882  24.506  0.00  0.00    +0.001 C 
ENDBRANCH   3   4
ENDBRANCH   6   3
ENDBRANCH   9   8
ENDBRANCH  10   9
BRANCH  12  13
ATOM     13  C   UNL     1      -1.698   2.906  24.066  0.00  0.00    +0.117 C 
BRANCH  13  14
ATOM     14  C   UNL     1      -2.359   2.649  23.643  0.00  0.00    +0.228 C 
ATOM     15  O   UNL     1      -2.293   2.482  22.838  0.00  0.00    -0.275 OA
ATOM     16  N   UNL     1      -3.084   2.559  24.025  0.00  0.00    -0.276 N 
ATOM     17  C   UNL     1      -3.744   2.302  23.602  0.00  0.00    +0.115 C 
ATOM     18  C   UNL     1      -4.470   2.213  23.985  0.00  0.00    +0.114 C 
ATOM     19  N   UNL     1      -4.535   2.380  24.790  0.00  0.00    -0.290 N 
ATOM     20  C   UNL     1      -3.875   2.637  25.213  0.00  0.00    +0.114 C 
ATOM     21  C   UNL     1      -3.150   2.726  24.830  0.00  0.00    +0.115 C 
ATOM     22  C   UNL     1      -5.261   2.290  25.173  0.00  0.00    +0.132 A 
ATOM     23  N   UNL     1      -5.921   2.033  24.750  0.00  0.00    -0.229 NA
ATOM     24  C   UNL     1      -6.647   1.943  25.132  0.00  0.00    +0.100 A 
ATOM     25  C   UNL     1      -6.712   2.110  25.937  0.00  0.00    +0.021 A 
ATOM     26  C   UNL     1      -6.051   2.367  26.360  0.00  0.00    +0.004 A 
ATOM     27  C   UNL     1      -5.326   2.457  25.978  0.00  0.00    +0.034 A 
ENDBRANCH  13  14
ENDBRANCH  12  13
TORSDOF 7
ENDMDL
