MODEL 1
REMARK VINA RESULT:      -8.9      0.000      0.000
REMARK  Name = 
REMARK  11 active torsions:
REMARK  status: ('A' for Active; 'I' for Inactive)
REMARK    1  A    between atoms: C_2  and  C_4
REMARK    2  A    between atoms: C_6  and  C_7
REMARK    3  A    between atoms: C_7  and  C_8
REMARK    4  A    between atoms: N_10  and  C_11
REMARK    5  A    between atoms: C_11  and  C_12
REMARK    6  A    between atoms: C_15  and  C_18
REMARK    7  A    between atoms: C_23  and  C_24
REMARK    8  A    between atoms: C_24  and  N_25
REMARK    9  A    between atoms: N_25  and  S_26
REMARK   10  A    between atoms: S_26  and  C_29
REMARK   11  A    between atoms: C_29  and  C_30
REMARK                            x       y       z     vdW  Elec       q    Type
REMARK                         _______ _______ _______ _____ _____    ______ ____
ROOT
ATOM      4  C   UNL     1      -0.622   1.634  24.325  0.00  0.00    +0.006 C 
ATOM      5  C   UNL     1      -0.045   1.076  24.130  0.00  0.00    +0.005 C 
ATOM      6  C   UNL     1      -0.259   0.293  23.990  0.00  0.00    +0.027 C 
ATOM     20  C   UNL     1      -1.051   0.065  24.045  0.00  0.00    -0.048 C 
ATOM     21  C   UNL     1      -1.265  -0.719  23.904  0.00  0.00    +0.026 C 
ATOM     22  C   UNL     1      -1.628   0.621  24.240  0.00  0.00    -0.033 C 
ATOM     23  C   UNL     1      -1.414   1.406  24.380  0.00  0.00    +0.041 C 
ENDROOT
BRANCH   4   2
ATOM      1  C   UNL     1      -0.200   2.659  25.226  0.00  0.00    +0.000 C 
ATOM      2  C   UNL     1      -0.408   2.417  24.465  0.00  0.00    +0.000 C 
ATOM      3  C   UNL     1      -0.401   2.961  23.844  0.00  0.00    +0.000 C 
ENDBRANCH   4   2
BRANCH   6   7
ATOM      7  C   UNL     1       0.317  -0.265  23.794  0.00  0.00    +0.091 C 
BRANCH   7   8
ATOM      8  C   UNL     1       0.845  -0.114  23.180  0.00  0.00    +0.242 C 
ATOM      9  O   UNL     1       0.565  -0.010  22.410  0.00  0.00    -0.273 OA
ATOM     10  N   UNL     1       1.655  -0.067  23.333  0.00  0.00    -0.201 NA
BRANCH  10  11
ATOM     11  C   UNL     1       2.183   0.083  22.718  0.00  0.00    +0.141 C 
BRANCH  11  12
ATOM     12  C   UNL     1       2.994   0.115  22.869  0.00  0.00    -0.001 A 
ATOM     13  C   UNL     1       3.385  -0.548  23.166  0.00  0.00    -0.002 A 
ATOM     14  C   UNL     1       4.195  -0.517  23.317  0.00  0.00    +0.010 A 
ATOM     15  C   UNL     1       4.615   0.179  23.170  0.00  0.00    +0.068 A 
ATOM     16  C   UNL     1       4.225   0.842  22.873  0.00  0.00    +0.010 A 
ATOM     17  C   UNL     1       3.414   0.809  22.722  0.00  0.00    -0.002 A 
BRANCH  15  18
ATOM     18  C   UNL     1       5.426   0.210  23.321  0.00  0.00    +0.100 C 
ATOM     19  N   UNL     1       6.236   0.241  23.474  0.00  0.00    -0.191 NA
ENDBRANCH  15  18
ENDBRANCH  11  12
ENDBRANCH  10  11
ENDBRANCH   7   8
ENDBRANCH   6   7
BRANCH  23  24
ATOM     24  C   UNL     1      -1.990   1.962  24.575  0.00  0.00    +0.119 C 
BRANCH  24  25
ATOM     25  N   UNL     1      -2.784   1.743  24.599  0.00  0.00    -0.081 NA
BRANCH  25  26
ATOM     26  S   UNL     1      -3.367   2.313  24.723  0.00  0.00    +0.062 S 
ATOM     27  O   UNL     1      -3.231   2.276  25.535  0.00  0.00    -0.156 OA
ATOM     28  O   UNL     1      -3.503   2.351  23.911  0.00  0.00    -0.156 OA
BRANCH  26  29
ATOM     29  C   UNL     1      -3.951   2.884  24.847  0.00  0.00    +0.197 C 
BRANCH  29  30
ATOM     30  C   UNL     1      -4.706   2.656  25.086  0.00  0.00    +0.003 A 
ATOM     31  C   UNL     1      -5.034   2.974  25.773  0.00  0.00    -0.003 A 
ATOM     32  C   UNL     1      -5.790   2.745  26.013  0.00  0.00    -0.000 A 
ATOM     33  C   UNL     1      -6.218   2.199  25.566  0.00  0.00    -0.000 A 
ATOM     34  C   UNL     1      -5.889   1.881  24.878  0.00  0.00    -0.000 A 
ATOM     35  C   UNL     1      -5.134   2.110  24.639  0.00  0.00    -0.003 A 
ENDBRANCH  29  30
ENDBRANCH  26  29
ENDBRANCH  25  26
ENDBRANCH  24  25
ENDBRANCH  23  24
TORSDOF 11
ENDMDL
MODEL 2
REMARK VINA RESULT:      -8.8      2.956      6.002
REMARK  Name = 
REMARK  11 active torsions:
REMARK  status: ('A' for Active; 'I' for Inactive)
REMARK    1  A    between atoms: C_2  and  C_4
REMARK    2  A    between atoms: C_6  and  C_7
REMARK    3  A    between atoms: C_7  and  C_8
REMARK    4  A    between atoms: N_10  and  C_11
REMARK    5  A    between atoms: C_11  and  C_12
REMARK    6  A    between atoms: C_15  and  C_18
REMARK    7  A    between atoms: C_23  and  C_24
REMARK    8  A    between atoms: C_24  and  N_25
REMARK    9  A    between atoms: N_25  and  S_26
REMARK   10  A    between atoms: S_26  and  C_29
REMARK   11  A    between atoms: C_29  and  C_30
REMARK                            x       y       z     vdW  Elec       q    Type
REMARK                         _______ _______ _______ _____ _____    ______ ____
ROOT
ATOM      4  C   UNL     1      -0.758   1.466  24.347  0.00  0.00    +0.006 C 
ATOM      5  C   UNL     1      -0.648   2.275  24.467  0.00  0.00    +0.005 C 
ATOM      6  C   UNL     1      -0.408   2.554  25.204  0.00  0.00    +0.027 C 
ATOM     20  C   UNL     1      -0.277   2.024  25.824  0.00  0.00    -0.048 C 
ATOM     21  C   UNL     1      -0.037   2.304  26.562  0.00  0.00    +0.026 C 
ATOM     22  C   UNL     1      -0.387   1.216  25.705  0.00  0.00    -0.033 C 
ATOM     23  C   UNL     1      -0.627   0.936  24.966  0.00  0.00    +0.041 C 
ENDROOT
BRANCH   4   2
ATOM      1  C   UNL     1      -1.797   1.188  23.408  0.00  0.00    +0.000 C 
ATOM      2  C   UNL     1      -0.997   1.187  23.609  0.00  0.00    +0.000 C 
ATOM      3  C   UNL     1      -0.437   0.907  23.072  0.00  0.00    +0.000 C 
ENDBRANCH   4   2
BRANCH   6   7
ATOM      7  C   UNL     1      -0.298   3.363  25.324  0.00  0.00    +0.091 C 
BRANCH   7   8
ATOM      8  C   UNL     1      -0.892   3.896  25.117  0.00  0.00    +0.242 C 
ATOM      9  O   UNL     1      -0.754   4.460  24.530  0.00  0.00    -0.273 OA
ATOM     10  N   UNL     1      -1.625   3.866  25.496  0.00  0.00    -0.201 NA
BRANCH  10  11
ATOM     11  C   UNL     1      -2.219   4.399  25.288  0.00  0.00    +0.141 C 
BRANCH  11  12
ATOM     12  C   UNL     1      -3.012   4.190  25.379  0.00  0.00    -0.001 A 
ATOM     13  C   UNL     1      -3.484   4.069  24.713  0.00  0.00    -0.002 A 
ATOM     14  C   UNL     1      -4.277   3.860  24.802  0.00  0.00    +0.010 A 
ATOM     15  C   UNL     1      -4.598   3.771  25.558  0.00  0.00    +0.068 A 
ATOM     16  C   UNL     1      -4.125   3.891  26.223  0.00  0.00    +0.010 A 
ATOM     17  C   UNL     1      -3.332   4.101  26.133  0.00  0.00    -0.002 A 
BRANCH  15  18
ATOM     18  C   UNL     1      -5.390   3.561  25.646  0.00  0.00    +0.100 C 
ATOM     19  N   UNL     1      -6.184   3.352  25.737  0.00  0.00    -0.191 NA
ENDBRANCH  15  18
ENDBRANCH  11  12
ENDBRANCH  10  11
ENDBRANCH   7   8
ENDBRANCH   6   7
BRANCH  23  24
ATOM     24  C   UNL     1      -0.737   0.128  24.847  0.00  0.00    +0.119 C 
BRANCH  24  25
ATOM     25  N   UNL     1      -0.713  -0.391  25.487  0.00  0.00    -0.081 NA
BRANCH  25  26
ATOM     26  S   UNL     1      -1.021  -1.153  25.413  0.00  0.00    +0.062 S 
ATOM     27  O   UNL     1      -0.496  -1.305  24.796  0.00  0.00    -0.156 OA
ATOM     28  O   UNL     1      -1.546  -1.001  26.031  0.00  0.00    -0.156 OA
BRANCH  26  29
ATOM     29  C   UNL     1      -1.329  -1.916  25.340  0.00  0.00    +0.197 C 
BRANCH  29  30
ATOM     30  C   UNL     1      -2.100  -2.024  25.068  0.00  0.00    +0.003 A 
ATOM     31  C   UNL     1      -2.232  -2.366  24.329  0.00  0.00    -0.003 A 
ATOM     32  C   UNL     1      -3.004  -2.474  24.057  0.00  0.00    -0.000 A 
ATOM     33  C   UNL     1      -3.643  -2.240  24.523  0.00  0.00    -0.000 A 
ATOM     34  C   UNL     1      -3.510  -1.898  25.263  0.00  0.00    -0.000 A 
ATOM     35  C   UNL     1      -2.739  -1.790  25.535  0.00  0.00    -0.003 A 
ENDBRANCH  29  30
ENDBRANCH  26  29
ENDBRANCH  25  26
ENDBRANCH  24  25
ENDBRANCH  23  24
TORSDOF 11
ENDMDL
MODEL 3
REMARK VINA RESULT:      -8.5      1.671      7.074
REMARK  Name = 
REMARK  11 active torsions:
REMARK  status: ('A' for Active; 'I' for Inactive)
REMARK    1  A    between atoms: C_2  and  C_4
REMARK    2  A    between atoms: C_6  and  C_7
REMARK    3  A    between atoms: C_7  and  C_8
REMARK    4  A    between atoms: N_10  and  C_11
REMARK    5  A    between atoms: C_11  and  C_12
REMARK    6  A    between atoms: C_15  and  C_18
REMARK    7  A    between atoms: C_23  and  C_24
REMARK    8  A    between atoms: C_24  and  N_25
REMARK    9  A    between atoms: N_25  and  S_26
REMARK   10  A    between atoms: S_26  and  C_29
REMARK   11  A    between atoms: C_29  and  C_30
REMARK                            x       y       z     vdW  Elec       q    Type
REMARK                         _______ _______ _______ _____ _____    ______ ____
ROOT
ATOM      4  C   UNL     1      -0.802   0.818  24.047  0.00  0.00    +0.006 C 
ATOM      5  C   UNL     1      -1.492   0.569  24.425  0.00  0.00    +0.005 C 
ATOM      6  C   UNL     1      -1.580  -0.220  24.646  0.00  0.00    +0.027 C 
ATOM     20  C   UNL     1      -0.977  -0.763  24.488  0.00  0.00    -0.048 C 
ATOM     21  C   UNL     1      -1.066  -1.553  24.709  0.00  0.00    +0.026 C 
ATOM     22  C   UNL     1      -0.288  -0.514  24.110  0.00  0.00    -0.033 C 
ATOM     23  C   UNL     1      -0.199   0.276  23.890  0.00  0.00    +0.041 C 
ENDROOT
BRANCH   4   2
ATOM      1  C   UNL     1      -0.972   1.860  23.086  0.00  0.00    +0.000 C 
ATOM      2  C   UNL     1      -0.714   1.608  23.827  0.00  0.00    +0.000 C 
ATOM      3  C   UNL     1      -0.368   2.145  24.348  0.00  0.00    +0.000 C 
ENDBRANCH   4   2
BRANCH   6   7
ATOM      7  C   UNL     1      -2.270  -0.470  25.024  0.00  0.00    +0.091 C 
BRANCH   7   8
ATOM      8  C   UNL     1      -3.006  -0.284  24.703  0.00  0.00    +0.242 C 
ATOM      9  O   UNL     1      -3.293  -0.708  24.054  0.00  0.00    -0.273 OA
ATOM     10  N   UNL     1      -3.459   0.324  25.030  0.00  0.00    -0.201 NA
BRANCH  10  11
ATOM     11  C   UNL     1      -4.195   0.509  24.709  0.00  0.00    +0.141 C 
BRANCH  11  12
ATOM     12  C   UNL     1      -4.568   1.217  24.911  0.00  0.00    -0.001 A 
ATOM     13  C   UNL     1      -4.379   1.911  24.508  0.00  0.00    -0.002 A 
ATOM     14  C   UNL     1      -4.751   2.620  24.709  0.00  0.00    +0.010 A 
ATOM     15  C   UNL     1      -5.312   2.633  25.314  0.00  0.00    +0.068 A 
ATOM     16  C   UNL     1      -5.501   1.939  25.718  0.00  0.00    +0.010 A 
ATOM     17  C   UNL     1      -5.128   1.231  25.516  0.00  0.00    -0.002 A 
BRANCH  15  18
ATOM     18  C   UNL     1      -5.684   3.342  25.515  0.00  0.00    +0.100 C 
ATOM     19  N   UNL     1      -6.055   4.050  25.718  0.00  0.00    -0.191 NA
ENDBRANCH  15  18
ENDBRANCH  11  12
ENDBRANCH  10  11
ENDBRANCH   7   8
ENDBRANCH   6   7
BRANCH  23  24
ATOM     24  C   UNL     1       0.490   0.525  23.512  0.00  0.00    +0.119 C 
BRANCH  24  25
ATOM     25  N   UNL     1       1.127   0.008  23.435  0.00  0.00    -0.081 NA
BRANCH  25  26
ATOM     26  S   UNL     1       1.767   0.209  22.954  0.00  0.00    +0.062 S 
ATOM     27  O   UNL     1       1.970   0.814  23.477  0.00  0.00    -0.156 OA
ATOM     28  O   UNL     1       1.564  -0.395  22.432  0.00  0.00    -0.156 OA
BRANCH  26  29
ATOM     29  C   UNL     1       2.407   0.410  22.473  0.00  0.00    +0.197 C 
BRANCH  29  30
ATOM     30  C   UNL     1       3.178   0.298  22.744  0.00  0.00    +0.003 A 
ATOM     31  C   UNL     1       3.719   0.920  22.716  0.00  0.00    -0.003 A 
ATOM     32  C   UNL     1       4.490   0.808  22.987  0.00  0.00    -0.000 A 
ATOM     33  C   UNL     1       4.720   0.074  23.286  0.00  0.00    -0.000 A 
ATOM     34  C   UNL     1       4.178  -0.549  23.314  0.00  0.00    -0.000 A 
ATOM     35  C   UNL     1       3.407  -0.436  23.043  0.00  0.00    -0.003 A 
ENDBRANCH  29  30
ENDBRANCH  26  29
ENDBRANCH  25  26
ENDBRANCH  24  25
ENDBRANCH  23  24
TORSDOF 11
ENDMDL
MODEL 4
REMARK VINA RESULT:      -8.1      3.802      6.042
REMARK  Name = 
REMARK  11 active torsions:
REMARK  status: ('A' for Active; 'I' for Inactive)
REMARK    1  A    between atoms: C_2  and  C_4
REMARK    2  A    between atoms: C_6  and  C_7
REMARK    3  A    between atoms: C_7  and  C_8
REMARK    4  A    between atoms: N_10  and  C_11
REMARK    5  A    between atoms: C_11  and  C_12
REMARK    6  A    between atoms: C_15  and  C_18
REMARK    7  A    between atoms: C_23  and  C_24
REMARK    8  A    between atoms: C_24  and  N_25
REMARK    9  A    between atoms: N_25  and  S_26
REMARK   10  A    between atoms: S_26  and  C_29
REMARK   11  A    between atoms: C_29  and  C_30
REMARK                            x       y       z     vdW  Elec       q    Type
REMARK                         _______ _______ _______ _____ _____    ______ ____
ROOT
ATOM      4  C   UNL     1      -3.938   1.050  24.251  0.00  0.00    +0.006 C 
ATOM      5  C   UNL     1      -4.266   1.786  24.430  0.00  0.00    +0.005 C 
ATOM      6  C   UNL     1      -4.973   1.831  24.850  0.00  0.00    +0.027 C 
ATOM     20  C   UNL     1      -5.355   1.140  25.092  0.00  0.00    -0.048 C 
ATOM     21  C   UNL     1      -6.064   1.186  25.513  0.00  0.00    +0.026 C 
ATOM     22  C   UNL     1      -5.028   0.405  24.914  0.00  0.00    -0.033 C 
ATOM     23  C   UNL     1      -4.320   0.358  24.493  0.00  0.00    +0.041 C 
ENDROOT
BRANCH   4   2
ATOM      1  C   UNL     1      -3.242   0.951  23.008  0.00  0.00    +0.000 C 
ATOM      2  C   UNL     1      -3.230   1.004  23.830  0.00  0.00    +0.000 C 
ATOM      3  C   UNL     1      -2.510   1.012  24.233  0.00  0.00    +0.000 C 
ENDBRANCH   4   2
BRANCH   6   7
ATOM      7  C   UNL     1      -5.301   2.567  25.029  0.00  0.00    +0.091 C 
BRANCH   7   8
ATOM      8  C   UNL     1      -4.899   3.089  25.525  0.00  0.00    +0.242 C 
ATOM      9  O   UNL     1      -5.085   3.119  26.329  0.00  0.00    -0.273 OA
ATOM     10  N   UNL     1      -4.312   3.580  25.218  0.00  0.00    -0.201 NA
BRANCH  10  11
ATOM     11  C   UNL     1      -3.910   4.102  25.714  0.00  0.00    +0.141 C 
BRANCH  11  12
ATOM     12  C   UNL     1      -3.144   4.345  25.525  0.00  0.00    -0.001 A 
ATOM     13  C   UNL     1      -3.013   4.813  24.859  0.00  0.00    -0.002 A 
ATOM     14  C   UNL     1      -2.248   5.057  24.669  0.00  0.00    +0.010 A 
ATOM     15  C   UNL     1      -1.613   4.831  25.146  0.00  0.00    +0.068 A 
ATOM     16  C   UNL     1      -1.744   4.363  25.813  0.00  0.00    +0.010 A 
ATOM     17  C   UNL     1      -2.510   4.120  26.002  0.00  0.00    -0.002 A 
BRANCH  15  18
ATOM     18  C   UNL     1      -0.849   5.075  24.956  0.00  0.00    +0.100 C 
ATOM     19  N   UNL     1      -0.083   5.318  24.767  0.00  0.00    -0.191 NA
ENDBRANCH  15  18
ENDBRANCH  11  12
ENDBRANCH  10  11
ENDBRANCH   7   8
ENDBRANCH   6   7
BRANCH  23  24
ATOM     24  C   UNL     1      -3.993  -0.377  24.314  0.00  0.00    +0.119 C 
BRANCH  24  25
ATOM     25  N   UNL     1      -4.343  -1.065  24.602  0.00  0.00    -0.081 NA
BRANCH  25  26
ATOM     26  S   UNL     1      -3.923  -1.776  24.599  0.00  0.00    +0.062 S 
ATOM     27  O   UNL     1      -3.792  -1.703  25.409  0.00  0.00    -0.156 OA
ATOM     28  O   UNL     1      -4.055  -1.849  23.788  0.00  0.00    -0.156 OA
BRANCH  26  29
ATOM     29  C   UNL     1      -3.503  -2.487  24.594  0.00  0.00    +0.197 C 
BRANCH  29  30
ATOM     30  C   UNL     1      -2.679  -2.478  24.624  0.00  0.00    +0.003 A 
ATOM     31  C   UNL     1      -2.295  -2.326  25.339  0.00  0.00    -0.003 A 
ATOM     32  C   UNL     1      -1.470  -2.317  25.370  0.00  0.00    -0.000 A 
ATOM     33  C   UNL     1      -1.030  -2.461  24.687  0.00  0.00    -0.000 A 
ATOM     34  C   UNL     1      -1.415  -2.613  23.972  0.00  0.00    -0.000 A 
ATOM     35  C   UNL     1      -2.239  -2.622  23.942  0.00  0.00    -0.003 A 
ENDBRANCH  29  30
ENDBRANCH  26  29
ENDBRANCH  25  26
ENDBRANCH  24  25
ENDBRANCH  23  24
TORSDOF 11
ENDMDL
MODEL 5
REMARK VINA RESULT:      -7.9      2.473      3.867
REMARK  Name = 
REMARK  11 active torsions:
REMARK  status: ('A' for Active; 'I' for Inactive)
REMARK    1  A    between atoms: C_2  and  C_4
REMARK    2  A    between atoms: C_6  and  C_7
REMARK    3  A    between atoms: C_7  and  C_8
REMARK    4  A    between atoms: N_10  and  C_11
REMARK    5  A    between atoms: C_11  and  C_12
REMARK    6  A    between atoms: C_15  and  C_18
REMARK    7  A    between atoms: C_23  and  C_24
REMARK    8  A    between atoms: C_24  and  N_25
REMARK    9  A    between atoms: N_25  and  S_26
REMARK   10  A    between atoms: S_26  and  C_29
REMARK   11  A    between atoms: C_29  and  C_30
REMARK                            x       y       z     vdW  Elec       q    Type
REMARK                         _______ _______ _______ _____ _____    ______ ____
ROOT
ATOM      4  C   UNL     1      -2.016   2.053  23.686  0.00  0.00    +0.006 C 
ATOM      5  C   UNL     1      -1.294   1.656  23.715  0.00  0.00    +0.005 C 
ATOM      6  C   UNL     1      -0.775   1.788  24.342  0.00  0.00    +0.027 C 
ATOM     20  C   UNL     1      -0.978   2.319  24.941  0.00  0.00    -0.048 C 
ATOM     21  C   UNL     1      -0.458   2.451  25.568  0.00  0.00    +0.026 C 
ATOM     22  C   UNL     1      -1.699   2.717  24.912  0.00  0.00    -0.033 C 
ATOM     23  C   UNL     1      -2.219   2.584  24.285  0.00  0.00    +0.041 C 
ENDROOT
BRANCH   4   2
ATOM      1  C   UNL     1      -3.071   1.295  23.092  0.00  0.00    +0.000 C 
ATOM      2  C   UNL     1      -2.535   1.921  23.059  0.00  0.00    +0.000 C 
ATOM      3  C   UNL     1      -2.518   2.415  22.399  0.00  0.00    +0.000 C 
ENDBRANCH   4   2
BRANCH   6   7
ATOM      7  C   UNL     1      -0.052   1.390  24.371  0.00  0.00    +0.091 C 
BRANCH   7   8
ATOM      8  C   UNL     1      -0.012   0.591  24.174  0.00  0.00    +0.242 C 
ATOM      9  O   UNL     1       0.374   0.355  23.483  0.00  0.00    -0.273 OA
ATOM     10  N   UNL     1      -0.358   0.026  24.666  0.00  0.00    -0.201 NA
BRANCH  10  11
ATOM     11  C   UNL     1      -0.318  -0.773  24.469  0.00  0.00    +0.141 C 
BRANCH  11  12
ATOM     12  C   UNL     1      -0.971  -1.263  24.594  0.00  0.00    -0.001 A 
ATOM     13  C   UNL     1      -1.208  -1.791  24.006  0.00  0.00    -0.002 A 
ATOM     14  C   UNL     1      -1.860  -2.281  24.130  0.00  0.00    +0.010 A 
ATOM     15  C   UNL     1      -2.275  -2.242  24.842  0.00  0.00    +0.068 A 
ATOM     16  C   UNL     1      -2.038  -1.714  25.430  0.00  0.00    +0.010 A 
ATOM     17  C   UNL     1      -1.386  -1.224  25.305  0.00  0.00    -0.002 A 
BRANCH  15  18
ATOM     18  C   UNL     1      -2.927  -2.732  24.966  0.00  0.00    +0.100 C 
ATOM     19  N   UNL     1      -3.580  -3.222  25.088  0.00  0.00    -0.191 NA
ENDBRANCH  15  18
ENDBRANCH  11  12
ENDBRANCH  10  11
ENDBRANCH   7   8
ENDBRANCH   6   7
BRANCH  23  24
ATOM     24  C   UNL     1      -2.941   2.982  24.256  0.00  0.00    +0.119 C 
BRANCH  24  25
ATOM     25  N   UNL     1      -3.172   3.463  24.884  0.00  0.00    -0.081 NA
BRANCH  25  26
ATOM     26  S   UNL     1      -3.973   3.593  25.032  0.00  0.00    +0.062 S 
ATOM     27  O   UNL     1      -4.073   3.862  24.260  0.00  0.00    -0.156 OA
ATOM     28  O   UNL     1      -3.874   3.323  25.805  0.00  0.00    -0.156 OA
BRANCH  26  29
ATOM     29  C   UNL     1      -4.775   3.722  25.181  0.00  0.00    +0.197 C 
BRANCH  29  30
ATOM     30  C   UNL     1      -5.274   3.083  25.334  0.00  0.00    +0.003 A 
ATOM     31  C   UNL     1      -5.413   2.846  26.111  0.00  0.00    -0.003 A 
ATOM     32  C   UNL     1      -5.912   2.207  26.264  0.00  0.00    -0.000 A 
ATOM     33  C   UNL     1      -6.272   1.805  25.640  0.00  0.00    -0.000 A 
ATOM     34  C   UNL     1      -6.132   2.043  24.861  0.00  0.00    -0.000 A 
ATOM     35  C   UNL     1      -5.634   2.682  24.709  0.00  0.00    -0.003 A 
ENDBRANCH  29  30
ENDBRANCH  26  29
ENDBRANCH  25  26
ENDBRANCH  24  25
ENDBRANCH  23  24
TORSDOF 11
ENDMDL
MODEL 6
REMARK VINA RESULT:      -7.8      3.344      4.745
REMARK  Name = 
REMARK  11 active torsions:
REMARK  status: ('A' for Active; 'I' for Inactive)
REMARK    1  A    between atoms: C_2  and  C_4
REMARK    2  A    between atoms: C_6  and  C_7
REMARK    3  A    between atoms: C_7  and  C_8
REMARK    4  A    between atoms: N_10  and  C_11
REMARK    5  A    between atoms: C_11  and  C_12
REMARK    6  A    between atoms: C_15  and  C_18
REMARK    7  A    between atoms: C_23  and  C_24
REMARK    8  A    between atoms: C_24  and  N_25
REMARK    9  A    between atoms: N_25  and  S_26
REMARK   10  A    between atoms: S_26  and  C_29
REMARK   11  A    between atoms: C_29  and  C_30
REMARK                            x       y       z     vdW  Elec       q    Type
REMARK                         _______ _______ _______ _____ _____    ______ ____
ROOT
ATOM      4  C   UNL     1      -3.516   1.451  23.972  0.00  0.00    +0.006 C 
ATOM      5  C   UNL     1      -3.867   0.707  23.907  0.00  0.00    +0.005 C 
ATOM      6  C   UNL     1      -4.458   0.481  24.435  0.00  0.00    +0.027 C 
ATOM     20  C   UNL     1      -4.700   1.001  25.030  0.00  0.00    -0.048 C 
ATOM     21  C   UNL     1      -5.292   0.775  25.559  0.00  0.00    +0.026 C 
ATOM     22  C   UNL     1      -4.350   1.744  25.095  0.00  0.00    -0.033 C 
ATOM     23  C   UNL     1      -3.758   1.970  24.567  0.00  0.00    +0.041 C 
ENDROOT
BRANCH   4   2
ATOM      1  C   UNL     1      -3.115   2.126  22.779  0.00  0.00    +0.000 C 
ATOM      2  C   UNL     1      -2.925   1.676  23.443  0.00  0.00    +0.000 C 
ATOM      3  C   UNL     1      -2.143   1.452  23.580  0.00  0.00    +0.000 C 
ENDBRANCH   4   2
BRANCH   6   7
ATOM      7  C   UNL     1      -4.809  -0.263  24.370  0.00  0.00    +0.091 C 
BRANCH   7   8
ATOM      8  C   UNL     1      -4.361  -0.911  24.127  0.00  0.00    +0.242 C 
ATOM      9  O   UNL     1      -4.395  -1.165  23.342  0.00  0.00    -0.273 OA
ATOM     10  N   UNL     1      -3.878  -1.305  24.668  0.00  0.00    -0.201 NA
BRANCH  10  11
ATOM     11  C   UNL     1      -3.430  -1.953  24.425  0.00  0.00    +0.141 C 
BRANCH  11  12
ATOM     12  C   UNL     1      -2.643  -2.025  24.664  0.00  0.00    -0.001 A 
ATOM     13  C   UNL     1      -2.083  -2.341  24.147  0.00  0.00    -0.002 A 
ATOM     14  C   UNL     1      -1.296  -2.413  24.385  0.00  0.00    +0.010 A 
ATOM     15  C   UNL     1      -1.070  -2.168  25.140  0.00  0.00    +0.068 A 
ATOM     16  C   UNL     1      -1.630  -1.852  25.657  0.00  0.00    +0.010 A 
ATOM     17  C   UNL     1      -2.417  -1.781  25.418  0.00  0.00    -0.002 A 
BRANCH  15  18
ATOM     18  C   UNL     1      -0.283  -2.240  25.378  0.00  0.00    +0.100 C 
ATOM     19  N   UNL     1       0.504  -2.311  25.614  0.00  0.00    -0.191 NA
ENDBRANCH  15  18
ENDBRANCH  11  12
ENDBRANCH  10  11
ENDBRANCH   7   8
ENDBRANCH   6   7
BRANCH  23  24
ATOM     24  C   UNL     1      -3.408   2.714  24.632  0.00  0.00    +0.119 C 
BRANCH  24  25
ATOM     25  N   UNL     1      -3.626   3.220  25.245  0.00  0.00    -0.081 NA
BRANCH  25  26
ATOM     26  S   UNL     1      -3.153   3.869  25.433  0.00  0.00    +0.062 S 
ATOM     27  O   UNL     1      -3.413   4.256  24.753  0.00  0.00    -0.156 OA
ATOM     28  O   UNL     1      -2.893   3.482  26.113  0.00  0.00    -0.156 OA
BRANCH  26  29
ATOM     29  C   UNL     1      -2.679   4.519  25.622  0.00  0.00    +0.197 C 
BRANCH  29  30
ATOM     30  C   UNL     1      -1.893   4.542  25.371  0.00  0.00    +0.003 A 
ATOM     31  C   UNL     1      -1.653   5.110  24.824  0.00  0.00    -0.003 A 
ATOM     32  C   UNL     1      -0.867   5.133  24.573  0.00  0.00    -0.000 A 
ATOM     33  C   UNL     1      -0.322   4.589  24.870  0.00  0.00    -0.000 A 
ATOM     34  C   UNL     1      -0.563   4.021  25.418  0.00  0.00    -0.000 A 
ATOM     35  C   UNL     1      -1.349   3.998  25.668  0.00  0.00    -0.003 A 
ENDBRANCH  29  30
ENDBRANCH  26  29
ENDBRANCH  25  26
ENDBRANCH  24  25
ENDBRANCH  23  24
TORSDOF 11
ENDMDL
MODEL 7
REMARK VINA RESULT:      -7.6      3.532      5.443
REMARK  Name = 
REMARK  11 active torsions:
REMARK  status: ('A' for Active; 'I' for Inactive)
REMARK    1  A    between atoms: C_2  and  C_4
REMARK    2  A    between atoms: C_6  and  C_7
REMARK    3  A    between atoms: C_7  and  C_8
REMARK    4  A    between atoms: N_10  and  C_11
REMARK    5  A    between atoms: C_11  and  C_12
REMARK    6  A    between atoms: C_15  and  C_18
REMARK    7  A    between atoms: C_23  and  C_24
REMARK    8  A    between atoms: C_24  and  N_25
REMARK    9  A    between atoms: N_25  and  S_26
REMARK   10  A    between atoms: S_26  and  C_29
REMARK   11  A    between atoms: C_29  and  C_30
REMARK                            x       y       z     vdW  Elec       q    Type
REMARK                         _______ _______ _______ _____ _____    ______ ____
ROOT
ATOM      4  C   UNL     1      -3.698   1.276  23.848  0.00  0.00    +0.006 C 
ATOM      5  C   UNL     1      -3.843   2.077  23.983  0.00  0.00    +0.005 C 
ATOM      6  C   UNL     1      -4.456   2.307  24.484  0.00  0.00    +0.027 C 
ATOM     20  C   UNL     1      -4.926   1.735  24.851  0.00  0.00    -0.048 C 
ATOM     21  C   UNL     1      -5.539   1.965  25.353  0.00  0.00    +0.026 C 
ATOM     22  C   UNL     1      -4.780   0.934  24.717  0.00  0.00    -0.033 C 
ATOM     23  C   UNL     1      -4.167   0.704  24.216  0.00  0.00    +0.041 C 
ENDROOT
BRANCH   4   2
ATOM      1  C   UNL     1      -3.231   0.925  22.545  0.00  0.00    +0.000 C 
ATOM      2  C   UNL     1      -3.085   1.046  23.347  0.00  0.00    +0.000 C 
ATOM      3  C   UNL     1      -2.324   0.938  23.649  0.00  0.00    +0.000 C 
ENDBRANCH   4   2
BRANCH   6   7
ATOM      7  C   UNL     1      -4.602   3.108  24.619  0.00  0.00    +0.091 C 
BRANCH   7   8
ATOM      8  C   UNL     1      -3.974   3.638  24.674  0.00  0.00    +0.242 C 
ATOM      9  O   UNL     1      -3.855   4.201  24.081  0.00  0.00    -0.273 OA
ATOM     10  N   UNL     1      -3.462   3.607  25.321  0.00  0.00    -0.201 NA
BRANCH  10  11
ATOM     11  C   UNL     1      -2.834   4.137  25.376  0.00  0.00    +0.141 C 
BRANCH  11  12
ATOM     12  C   UNL     1      -2.085   3.869  25.595  0.00  0.00    -0.001 A 
ATOM     13  C   UNL     1      -1.994   3.403  26.270  0.00  0.00    -0.002 A 
ATOM     14  C   UNL     1      -1.246   3.135  26.489  0.00  0.00    +0.010 A 
ATOM     15  C   UNL     1      -0.587   3.332  26.032  0.00  0.00    +0.068 A 
ATOM     16  C   UNL     1      -0.677   3.798  25.357  0.00  0.00    +0.010 A 
ATOM     17  C   UNL     1      -1.426   4.066  25.139  0.00  0.00    -0.002 A 
BRANCH  15  18
ATOM     18  C   UNL     1       0.161   3.063  26.252  0.00  0.00    +0.100 C 
ATOM     19  N   UNL     1       0.910   2.793  26.471  0.00  0.00    -0.191 NA
ENDBRANCH  15  18
ENDBRANCH  11  12
ENDBRANCH  10  11
ENDBRANCH   7   8
ENDBRANCH   6   7
BRANCH  23  24
ATOM     24  C   UNL     1      -4.022  -0.096  24.081  0.00  0.00    +0.119 C 
BRANCH  24  25
ATOM     25  N   UNL     1      -4.427  -0.668  24.516  0.00  0.00    -0.081 NA
BRANCH  25  26
ATOM     26  S   UNL     1      -4.138  -1.440  24.553  0.00  0.00    +0.062 S 
ATOM     27  O   UNL     1      -3.960  -1.336  25.352  0.00  0.00    -0.156 OA
ATOM     28  O   UNL     1      -4.317  -1.544  23.755  0.00  0.00    -0.156 OA
BRANCH  26  29
ATOM     29  C   UNL     1      -3.850  -2.213  24.590  0.00  0.00    +0.197 C 
BRANCH  29  30
ATOM     30  C   UNL     1      -3.038  -2.348  24.636  0.00  0.00    +0.003 A 
ATOM     31  C   UNL     1      -2.631  -2.634  23.978  0.00  0.00    -0.003 A 
ATOM     32  C   UNL     1      -1.817  -2.769  24.023  0.00  0.00    -0.000 A 
ATOM     33  C   UNL     1      -1.412  -2.618  24.726  0.00  0.00    -0.000 A 
ATOM     34  C   UNL     1      -1.820  -2.331  25.384  0.00  0.00    -0.000 A 
ATOM     35  C   UNL     1      -2.633  -2.196  25.338  0.00  0.00    -0.003 A 
ENDBRANCH  29  30
ENDBRANCH  26  29
ENDBRANCH  25  26
ENDBRANCH  24  25
ENDBRANCH  23  24
TORSDOF 11
ENDMDL
MODEL 8
REMARK VINA RESULT:      -7.4      3.311      5.860
REMARK  Name = 
REMARK  11 active torsions:
REMARK  status: ('A' for Active; 'I' for Inactive)
REMARK    1  A    between atoms: C_2  and  C_4
REMARK    2  A    between atoms: C_6  and  C_7
REMARK    3  A    between atoms: C_7  and  C_8
REMARK    4  A    between atoms: N_10  and  C_11
REMARK    5  A    between atoms: C_11  and  C_12
REMARK    6  A    between atoms: C_15  and  C_18
REMARK    7  A    between atoms: C_23  and  C_24
REMARK    8  A    between atoms: C_24  and  N_25
REMARK    9  A    between atoms: N_25  and  S_26
REMARK   10  A    between atoms: S_26  and  C_29
REMARK   11  A    between atoms: C_29  and  C_30
REMARK                            x       y       z     vdW  Elec       q    Type
REMARK                         _______ _______ _______ _____ _____    ______ ____
ROOT
ATOM      4  C   UNL     1      -4.006   2.954  24.139  0.00  0.00    +0.006 C 
ATOM      5  C   UNL     1      -4.669   2.486  24.284  0.00  0.00    +0.005 C 
ATOM      6  C   UNL     1      -5.008   2.470  25.035  0.00  0.00    +0.027 C 
ATOM     20  C   UNL     1      -4.683   2.924  25.644  0.00  0.00    -0.048 C 
ATOM     21  C   UNL     1      -5.022   2.908  26.396  0.00  0.00    +0.026 C 
ATOM     22  C   UNL     1      -4.019   3.392  25.500  0.00  0.00    -0.033 C 
ATOM     23  C   UNL     1      -3.680   3.408  24.748  0.00  0.00    +0.041 C 
ENDROOT
BRANCH   4   2
ATOM      1  C   UNL     1      -3.845   3.585  22.868  0.00  0.00    +0.000 C 
ATOM      2  C   UNL     1      -3.667   2.970  23.388  0.00  0.00    +0.000 C 
ATOM      3  C   UNL     1      -3.150   2.370  23.155  0.00  0.00    +0.000 C 
ENDBRANCH   4   2
BRANCH   6   7
ATOM      7  C   UNL     1      -5.672   2.002  25.180  0.00  0.00    +0.091 C 
BRANCH   7   8
ATOM      8  C   UNL     1      -5.714   1.239  24.870  0.00  0.00    +0.242 C 
ATOM      9  O   UNL     1      -6.313   1.043  24.337  0.00  0.00    -0.273 OA
ATOM     10  N   UNL     1      -5.159   0.671  25.094  0.00  0.00    -0.201 NA
BRANCH  10  11
ATOM     11  C   UNL     1      -5.201  -0.092  24.784  0.00  0.00    +0.141 C 
BRANCH  11  12
ATOM     12  C   UNL     1      -4.532  -0.574  24.779  0.00  0.00    -0.001 A 
ATOM     13  C   UNL     1      -4.349  -1.019  24.109  0.00  0.00    -0.002 A 
ATOM     14  C   UNL     1      -3.680  -1.501  24.103  0.00  0.00    +0.010 A 
ATOM     15  C   UNL     1      -3.192  -1.538  24.768  0.00  0.00    +0.068 A 
ATOM     16  C   UNL     1      -3.375  -1.093  25.439  0.00  0.00    +0.010 A 
ATOM     17  C   UNL     1      -4.045  -0.611  25.444  0.00  0.00    -0.002 A 
BRANCH  15  18
ATOM     18  C   UNL     1      -2.523  -2.020  24.762  0.00  0.00    +0.100 C 
ATOM     19  N   UNL     1      -1.853  -2.502  24.755  0.00  0.00    -0.191 NA
ENDBRANCH  15  18
ENDBRANCH  11  12
ENDBRANCH  10  11
ENDBRANCH   7   8
ENDBRANCH   6   7
BRANCH  23  24
ATOM     24  C   UNL     1      -3.017   3.876  24.604  0.00  0.00    +0.119 C 
BRANCH  24  25
ATOM     25  N   UNL     1      -2.637   4.257  25.229  0.00  0.00    -0.081 NA
BRANCH  25  26
ATOM     26  S   UNL     1      -1.813   4.293  25.251  0.00  0.00    +0.062 S 
ATOM     27  O   UNL     1      -1.813   4.716  24.543  0.00  0.00    -0.156 OA
ATOM     28  O   UNL     1      -1.814   3.870  25.958  0.00  0.00    -0.156 OA
BRANCH  26  29
ATOM     29  C   UNL     1      -0.989   4.329  25.273  0.00  0.00    +0.197 C 
BRANCH  29  30
ATOM     30  C   UNL     1      -0.544   3.639  25.196  0.00  0.00    +0.003 A 
ATOM     31  C   UNL     1      -0.219   3.439  24.465  0.00  0.00    -0.003 A 
ATOM     32  C   UNL     1       0.226   2.748  24.387  0.00  0.00    -0.000 A 
ATOM     33  C   UNL     1       0.346   2.258  25.040  0.00  0.00    -0.000 A 
ATOM     34  C   UNL     1       0.021   2.459  25.772  0.00  0.00    -0.000 A 
ATOM     35  C   UNL     1      -0.424   3.150  25.849  0.00  0.00    -0.003 A 
ENDBRANCH  29  30
ENDBRANCH  26  29
ENDBRANCH  25  26
ENDBRANCH  24  25
ENDBRANCH  23  24
TORSDOF 11
ENDMDL
MODEL 9
REMARK VINA RESULT:      -7.3      1.607      7.235
REMARK  Name = 
REMARK  11 active torsions:
REMARK  status: ('A' for Active; 'I' for Inactive)
REMARK    1  A    between atoms: C_2  and  C_4
REMARK    2  A    between atoms: C_6  and  C_7
REMARK    3  A    between atoms: C_7  and  C_8
REMARK    4  A    between atoms: N_10  and  C_11
REMARK    5  A    between atoms: C_11  and  C_12
REMARK    6  A    between atoms: C_15  and  C_18
REMARK    7  A    between atoms: C_23  and  C_24
REMARK    8  A    between atoms: C_24  and  N_25
REMARK    9  A    between atoms: N_25  and  S_26
REMARK   10  A    between atoms: S_26  and  C_29
REMARK   11  A    between atoms: C_29  and  C_30
REMARK                            x       y       z     vdW  Elec       q    Type
REMARK                         _______ _______ _______ _____ _____    ______ ____
ROOT
ATOM      4  C   UNL     1      -0.829   1.644  24.202  0.00  0.00    +0.006 C 
ATOM      5  C   UNL     1      -1.267   2.109  24.724  0.00  0.00    +0.005 C 
ATOM      6  C   UNL     1      -0.891   2.493  25.349  0.00  0.00    +0.027 C 
ATOM     20  C   UNL     1      -0.075   2.413  25.452  0.00  0.00    -0.048 C 
ATOM     21  C   UNL     1       0.301   2.797  26.078  0.00  0.00    +0.026 C 
ATOM     22  C   UNL     1       0.362   1.948  24.931  0.00  0.00    -0.033 C 
ATOM     23  C   UNL     1      -0.014   1.563  24.305  0.00  0.00    +0.041 C 
ENDROOT
BRANCH   4   2
ATOM      1  C   UNL     1      -1.481   0.489  23.673  0.00  0.00    +0.000 C 
ATOM      2  C   UNL     1      -1.205   1.259  23.577  0.00  0.00    +0.000 C 
ATOM      3  C   UNL     1      -1.304   1.646  22.855  0.00  0.00    +0.000 C 
ENDBRANCH   4   2
BRANCH   6   7
ATOM      7  C   UNL     1      -1.328   2.959  25.871  0.00  0.00    +0.091 C 
BRANCH   7   8
ATOM      8  C   UNL     1      -1.973   3.393  25.596  0.00  0.00    +0.242 C 
ATOM      9  O   UNL     1      -1.851   4.110  25.205  0.00  0.00    -0.273 OA
ATOM     10  N   UNL     1      -2.740   3.113  25.712  0.00  0.00    -0.201 NA
BRANCH  10  11
ATOM     11  C   UNL     1      -3.385   3.547  25.437  0.00  0.00    +0.141 C 
BRANCH  11  12
ATOM     12  C   UNL     1      -4.115   3.179  25.327  0.00  0.00    -0.001 A 
ATOM     13  C   UNL     1      -4.651   3.133  25.953  0.00  0.00    -0.002 A 
ATOM     14  C   UNL     1      -5.382   2.765  25.844  0.00  0.00    +0.010 A 
ATOM     15  C   UNL     1      -5.575   2.443  25.109  0.00  0.00    +0.068 A 
ATOM     16  C   UNL     1      -5.039   2.488  24.484  0.00  0.00    +0.010 A 
ATOM     17  C   UNL     1      -4.309   2.856  24.594  0.00  0.00    -0.002 A 
BRANCH  15  18
ATOM     18  C   UNL     1      -6.306   2.075  25.001  0.00  0.00    +0.100 C 
ATOM     19  N   UNL     1      -7.036   1.707  24.894  0.00  0.00    -0.191 NA
ENDBRANCH  15  18
ENDBRANCH  11  12
ENDBRANCH  10  11
ENDBRANCH   7   8
ENDBRANCH   6   7
BRANCH  23  24
ATOM     24  C   UNL     1       0.424   1.098  23.784  0.00  0.00    +0.119 C 
BRANCH  24  25
ATOM     25  N   UNL     1       1.218   0.940  23.939  0.00  0.00    -0.081 NA
BRANCH  25  26
ATOM     26  S   UNL     1       1.705   0.644  23.342  0.00  0.00    +0.062 S 
ATOM     27  O   UNL     1       1.465  -0.123  23.526  0.00  0.00    -0.156 OA
ATOM     28  O   UNL     1       1.945   1.411  23.158  0.00  0.00    -0.156 OA
BRANCH  26  29
ATOM     29  C   UNL     1       2.192   0.348  22.744  0.00  0.00    +0.197 C 
BRANCH  29  30
ATOM     30  C   UNL     1       3.008   0.310  22.860  0.00  0.00    +0.003 A 
ATOM     31  C   UNL     1       3.481   0.959  22.672  0.00  0.00    -0.003 A 
ATOM     32  C   UNL     1       4.298   0.920  22.787  0.00  0.00    -0.000 A 
ATOM     33  C   UNL     1       4.640   0.233  23.090  0.00  0.00    -0.000 A 
ATOM     34  C   UNL     1       4.166  -0.416  23.278  0.00  0.00    -0.000 A 
ATOM     35  C   UNL     1       3.350  -0.377  23.162  0.00  0.00    -0.003 A 
ENDBRANCH  29  30
ENDBRANCH  26  29
ENDBRANCH  25  26
ENDBRANCH  24  25
ENDBRANCH  23  24
TORSDOF 11
ENDMDL
MODEL 10
REMARK VINA RESULT:      -7.3      2.072      6.418
REMARK  Name = 
REMARK  11 active torsions:
REMARK  status: ('A' for Active; 'I' for Inactive)
REMARK    1  A    between atoms: C_2  and  C_4
REMARK    2  A    between atoms: C_6  and  C_7
REMARK    3  A    between atoms: C_7  and  C_8
REMARK    4  A    between atoms: N_10  and  C_11
REMARK    5  A    between atoms: C_11  and  C_12
REMARK    6  A    between atoms: C_15  and  C_18
REMARK    7  A    between atoms: C_23  and  C_24
REMARK    8  A    between atoms: C_24  and  N_25
REMARK    9  A    between atoms: N_25  and  S_26
REMARK   10  A    between atoms: S_26  and  C_29
REMARK   11  A    between atoms: C_29  and  C_30
REMARK                            x       y       z     vdW  Elec       q    Type
REMARK                         _______ _______ _______ _____ _____    ______ ____
ROOT
ATOM      4  C   UNL     1      -1.097   1.940  24.893  0.00  0.00    +0.006 C 
ATOM      5  C   UNL     1      -1.907   2.094  24.865  0.00  0.00    +0.005 C 
ATOM      6  C   UNL     1      -2.296   2.127  24.138  0.00  0.00    +0.027 C 
ATOM     20  C   UNL     1      -1.874   2.008  23.438  0.00  0.00    -0.048 C 
ATOM     21  C   UNL     1      -2.263   2.042  22.712  0.00  0.00    +0.026 C 
ATOM     22  C   UNL     1      -1.064   1.855  23.466  0.00  0.00    -0.033 C 
ATOM     23  C   UNL     1      -0.675   1.821  24.193  0.00  0.00    +0.041 C 
ENDROOT
BRANCH   4   2
ATOM      1  C   UNL     1      -0.674   1.197  26.036  0.00  0.00    +0.000 C 
ATOM      2  C   UNL     1      -0.708   1.907  25.619  0.00  0.00    +0.000 C 
ATOM      3  C   UNL     1      -0.353   2.584  25.929  0.00  0.00    +0.000 C 
ENDBRANCH   4   2
BRANCH   6   7
ATOM      7  C   UNL     1      -3.106   2.280  24.110  0.00  0.00    +0.091 C 
BRANCH   7   8
ATOM      8  C   UNL     1      -3.635   1.779  24.496  0.00  0.00    +0.242 C 
ATOM      9  O   UNL     1      -4.093   2.065  25.121  0.00  0.00    -0.273 OA
ATOM     10  N   UNL     1      -3.706   0.992  24.258  0.00  0.00    -0.201 NA
BRANCH  10  11
ATOM     11  C   UNL     1      -4.235   0.491  24.644  0.00  0.00    +0.141 C 
BRANCH  11  12
ATOM     12  C   UNL     1      -4.111  -0.325  24.638  0.00  0.00    -0.001 A 
ATOM     13  C   UNL     1      -4.296  -0.764  23.965  0.00  0.00    -0.002 A 
ATOM     14  C   UNL     1      -4.173  -1.580  23.958  0.00  0.00    +0.010 A 
ATOM     15  C   UNL     1      -3.863  -1.956  24.625  0.00  0.00    +0.068 A 
ATOM     16  C   UNL     1      -3.678  -1.516  25.298  0.00  0.00    +0.010 A 
ATOM     17  C   UNL     1      -3.802  -0.700  25.304  0.00  0.00    -0.002 A 
BRANCH  15  18
ATOM     18  C   UNL     1      -3.740  -2.771  24.617  0.00  0.00    +0.100 C 
ATOM     19  N   UNL     1      -3.615  -3.587  24.611  0.00  0.00    -0.191 NA
ENDBRANCH  15  18
ENDBRANCH  11  12
ENDBRANCH  10  11
ENDBRANCH   7   8
ENDBRANCH   6   7
BRANCH  23  24
ATOM     24  C   UNL     1       0.135   1.668  24.221  0.00  0.00    +0.119 C 
BRANCH  24  25
ATOM     25  N   UNL     1       0.528   1.400  23.548  0.00  0.00    -0.081 NA
BRANCH  25  26
ATOM     26  S   UNL     1       1.241   0.991  23.620  0.00  0.00    +0.062 S 
ATOM     27  O   UNL     1       1.631   1.699  23.782  0.00  0.00    -0.156 OA
ATOM     28  O   UNL     1       0.851   0.284  23.458  0.00  0.00    -0.156 OA
BRANCH  26  29
ATOM     29  C   UNL     1       1.954   0.581  23.692  0.00  0.00    +0.197 C 
BRANCH  29  30
ATOM     30  C   UNL     1       2.458   0.515  23.043  0.00  0.00    +0.003 A 
ATOM     31  C   UNL     1       3.168   0.935  23.029  0.00  0.00    -0.003 A 
ATOM     32  C   UNL     1       3.673   0.868  22.379  0.00  0.00    -0.000 A 
ATOM     33  C   UNL     1       3.468   0.383  21.745  0.00  0.00    -0.000 A 
ATOM     34  C   UNL     1       2.757  -0.037  21.759  0.00  0.00    -0.000 A 
ATOM     35  C   UNL     1       2.253   0.029  22.409  0.00  0.00    -0.003 A 
ENDBRANCH  29  30
ENDBRANCH  26  29
ENDBRANCH  25  26
ENDBRANCH  24  25
ENDBRANCH  23  24
TORSDOF 11
ENDMDL
