REMARK  Name = 
REMARK  4 active torsions:
REMARK  status: ('A' for Active; 'I' for Inactive)
REMARK    1  A    between atoms: C_4  and  C_13
REMARK    2  A    between atoms: N_5  and  C_7
REMARK    3  A    between atoms: C_15  and  C_16
REMARK    4  A    between atoms: C_16  and  C_17
REMARK                            x       y       z     vdW  Elec       q    Type
REMARK                         _______ _______ _______ _____ _____    ______ ____
ROOT
ATOM     13  C   UNL     1       3.841  -5.272   0.000  0.00  0.00    +0.251 A 
ATOM     14  N   UNL     1       4.666  -5.272   0.000  0.00  0.00    -0.193 NA
ATOM     15  C   UNL     1       4.920  -6.057   0.000  0.00  0.00    +0.185 A 
ATOM     25  N   UNL     1       4.253  -6.542   0.000  0.00  0.00    -0.060 NA
ATOM     26  O   UNL     1       3.586  -6.057   0.000  0.00  0.00    -0.336 OA
ENDROOT
BRANCH  13   4
ATOM      1  O   UNL     1       2.943  -2.510   0.000  0.00  0.00    -0.222 OA
ATOM      2  C   UNL     1       2.943  -3.335   0.000  0.00  0.00    +0.170 C 
ATOM      3  C   UNL     1       3.611  -3.820   0.000  0.00  0.00    +0.060 C 
ATOM      4  C   UNL     1       3.356  -4.605   0.000  0.00  0.00    +0.140 C 
ATOM      5  N   UNL     1       2.531  -4.605   0.000  0.00  0.00    -0.265 NA
ATOM      6  C   UNL     1       2.276  -3.820   0.000  0.00  0.00    +0.106 C 
BRANCH   5   7
ATOM      7  C   UNL     1       2.046  -5.272   0.000  0.00  0.00    +0.058 C 
ATOM      8  C   UNL     1       2.381  -6.026   0.000  0.00  0.00    +0.016 C 
ATOM      9  C   UNL     1       1.896  -6.693   0.000  0.00  0.00    +0.001 C 
ATOM     10  C   UNL     1       1.076  -6.607   0.000  0.00  0.00    +0.000 C 
ATOM     11  C   UNL     1       0.740  -5.853   0.000  0.00  0.00    +0.001 C 
ATOM     12  C   UNL     1       1.225  -5.186   0.000  0.00  0.00    +0.016 C 
ENDBRANCH   5   7
ENDBRANCH  13   4
BRANCH  15  16
ATOM     16  C   UNL     1       5.705  -6.312   0.000  0.00  0.00    +0.096 C 
BRANCH  16  17
ATOM     17  C   UNL     1       5.877  -7.119   0.000  0.00  0.00    -0.004 A 
ATOM     18  C   UNL     1       6.661  -7.373   0.000  0.00  0.00    -0.001 A 
ATOM     19  C   UNL     1       6.833  -8.180   0.000  0.00  0.00    +0.029 A 
ATOM     20  C   UNL     1       6.220  -8.732   0.000  0.00  0.00    +0.141 A 
ATOM     21  F   UNL     1       6.391  -9.539   0.000  0.00  0.00    -0.204 F 
ATOM     22  C   UNL     1       5.435  -8.477   0.000  0.00  0.00    +0.041 A 
ATOM     23  C   UNL     1       5.264  -7.671   0.000  0.00  0.00    +0.056 A 
ATOM     24 CL   UNL     1       4.479  -7.416   0.000  0.00  0.00    -0.082 Cl
ENDBRANCH  16  17
ENDBRANCH  15  16
TORSDOF 4
