REMARK  Name = 
REMARK  5 active torsions:
REMARK  status: ('A' for Active; 'I' for Inactive)
REMARK    1  A    between atoms: C_2  and  C_4
REMARK    2  A    between atoms: C_6  and  C_7
REMARK    3  A    between atoms: C_7  and  C_8
REMARK    4  A    between atoms: C_25  and  C_26
REMARK    5  A    between atoms: C_26  and  C_27
REMARK                            x       y       z     vdW  Elec       q    Type
REMARK                         _______ _______ _______ _____ _____    ______ ____
ROOT
ATOM      7  C   UNL     1       1.429  -6.600   0.000  0.00  0.00    +0.089 C 
ENDROOT
BRANCH   7   8
ATOM      8  C   UNL     1       1.429  -7.425   0.000  0.00  0.00    +0.226 C 
ATOM      9  O   UNL     1       0.715  -7.838   0.000  0.00  0.00    -0.275 OA
ATOM     10  N   UNL     1       2.143  -7.838   0.000  0.00  0.00    -0.276 N 
ATOM     11  C   UNL     1       2.858  -7.425   0.000  0.00  0.00    +0.115 C 
ATOM     12  C   UNL     1       3.572  -7.838   0.000  0.00  0.00    +0.115 C 
ATOM     13  N   UNL     1       3.572  -8.662   0.000  0.00  0.00    -0.275 N 
ATOM     14  C   UNL     1       2.858  -9.075   0.000  0.00  0.00    +0.115 C 
ATOM     15  C   UNL     1       2.143  -8.662   0.000  0.00  0.00    +0.115 C 
ATOM     16  C   UNL     1       4.287  -9.075   0.000  0.00  0.00    +0.220 A 
ATOM     17  N   UNL     1       5.001  -8.662   0.000  0.00  0.00    -0.212 NA
ATOM     18  C   UNL     1       5.716  -9.075   0.000  0.00  0.00    +0.103 A 
ATOM     19  C   UNL     1       5.716  -9.900   0.000  0.00  0.00    +0.041 A 
ATOM     20  C   UNL     1       5.001 -10.312   0.000  0.00  0.00    +0.103 A 
ATOM     21  N   UNL     1       4.287  -9.900   0.000  0.00  0.00    -0.212 NA
ENDBRANCH   7   8
BRANCH   7   6
ATOM      4  C   UNL     1       0.000  -4.950   0.000  0.00  0.00    +0.005 C 
ATOM      5  C   UNL     1       0.715  -5.362   0.000  0.00  0.00    +0.005 C 
ATOM      6  C   UNL     1       0.715  -6.188   0.000  0.00  0.00    +0.027 C 
ATOM     22  C   UNL     1       0.000  -6.600   0.000  0.00  0.00    -0.048 C 
ATOM     23  C   UNL     1       0.000  -7.425   0.000  0.00  0.00    +0.026 C 
ATOM     24  C   UNL     1      -0.715  -6.188   0.000  0.00  0.00    -0.034 C 
ATOM     25  C   UNL     1      -0.715  -5.362   0.000  0.00  0.00    +0.037 C 
BRANCH   4   2
ATOM      1  C   UNL     1      -0.715  -3.712   0.000  0.00  0.00    +0.000 C 
ATOM      2  C   UNL     1       0.000  -4.125   0.000  0.00  0.00    +0.000 C 
ATOM      3  C   UNL     1       0.715  -3.712   0.000  0.00  0.00    +0.000 C 
ENDBRANCH   4   2
BRANCH  25  26
ATOM     26  C   UNL     1      -1.429  -4.950   0.000  0.00  0.00    +0.110 C 
BRANCH  26  27
ATOM     27  C   UNL     1      -2.143  -5.362   0.000  0.00  0.00    +0.073 C 
ATOM     28  N   UNL     1      -2.858  -5.775   0.000  0.00  0.00    -0.196 NA
ENDBRANCH  26  27
ENDBRANCH  25  26
ENDBRANCH   7   6
TORSDOF 5
