REMARK  Name = 
REMARK  8 active torsions:
REMARK  status: ('A' for Active; 'I' for Inactive)
REMARK    1  A    between atoms: C_2  and  N_4
REMARK    2  A    between atoms: C_5  and  O_7
REMARK    3  A    between atoms: O_7  and  C_8
REMARK    4  A    between atoms: C_13  and  C_14
REMARK    5  A    between atoms: C_14  and  C_15
REMARK    6  A    between atoms: N_17  and  C_18
REMARK    7  A    between atoms: C_18  and  C_19
REMARK    8  A    between atoms: C_30  and  C_32
REMARK                            x       y       z     vdW  Elec       q    Type
REMARK                         _______ _______ _______ _____ _____    ______ ____
ROOT
ATOM      8  C   UNL     1      -2.143   1.238   0.000  0.00  0.00    +0.173 C 
ATOM      9  C   UNL     1      -1.429   0.825   0.000  0.00  0.00    +0.044 C 
ATOM     10  C   UNL     1      -1.429   0.000   0.000  0.00  0.00    +0.004 C 
ATOM     11  C   UNL     1      -2.143  -0.412   0.000  0.00  0.00    +0.003 C 
ATOM     12  C   UNL     1      -1.429  -0.825   0.000  0.00  0.00    +0.000 C 
ATOM     13  C   UNL     1      -2.143  -1.238   0.000  0.00  0.00    +0.040 C 
ATOM     25  C   UNL     1      -2.858  -1.650   0.000  0.00  0.00    +0.152 C 
ATOM     26  O   UNL     1      -2.858  -2.475   0.000  0.00  0.00    -0.223 OA
ATOM     27  C   UNL     1      -3.572  -1.238   0.000  0.00  0.00    +0.033 C 
ATOM     28  C   UNL     1      -3.572  -0.412   0.000  0.00  0.00    +0.003 C 
ATOM     29  C   UNL     1      -2.858   0.000   0.000  0.00  0.00    +0.006 C 
ATOM     30  C   UNL     1      -2.858   0.825   0.000  0.00  0.00    +0.068 C 
ATOM     31  C   UNL     1      -3.682   0.854   0.000  0.00  0.00    +0.006 C 
ENDROOT
BRANCH  30  32
ATOM     32  C   UNL     1      -3.295   1.525   0.000  0.00  0.00    +0.185 C 
ATOM     33  O   UNL     1      -2.908   2.253   0.000  0.00  0.00    -0.220 OA
ENDBRANCH  30  32
BRANCH   8   7
ATOM      7  O   UNL     1      -2.143   2.062   0.000  0.00  0.00    -0.437 OA
BRANCH   7   5
ATOM      4  N   UNL     1      -0.715   2.062   0.000  0.00  0.00    -0.170 NA
ATOM      5  C   UNL     1      -1.429   2.475   0.000  0.00  0.00    +0.421 C 
ATOM      6  O   UNL     1      -1.429   3.300   0.000  0.00  0.00    -0.225 OA
BRANCH   4   2
ATOM      1  C   UNL     1       0.715   2.062   0.000  0.00  0.00    +0.024 C 
ATOM      2  C   UNL     1       0.000   2.475   0.000  0.00  0.00    +0.099 C 
ATOM      3  C   UNL     1       0.000   3.300   0.000  0.00  0.00    +0.024 C 
ENDBRANCH   4   2
ENDBRANCH   7   5
ENDBRANCH   8   7
BRANCH  13  14
ATOM     14  C   UNL     1      -1.429  -1.650   0.000  0.00  0.00    +0.089 C 
BRANCH  14  15
ATOM     15  C   UNL     1      -0.715  -1.238   0.000  0.00  0.00    +0.242 C 
ATOM     16  O   UNL     1      -0.715  -0.412   0.000  0.00  0.00    -0.273 OA
ATOM     17  N   UNL     1       0.000  -1.650   0.000  0.00  0.00    -0.201 NA
BRANCH  17  18
ATOM     18  C   UNL     1       0.715  -1.238   0.000  0.00  0.00    +0.141 C 
BRANCH  18  19
ATOM     19  C   UNL     1       1.429  -1.650   0.000  0.00  0.00    -0.001 A 
ATOM     20  C   UNL     1       2.143  -1.238   0.000  0.00  0.00    -0.003 A 
ATOM     21  C   UNL     1       2.858  -1.650   0.000  0.00  0.00    -0.000 A 
ATOM     22  C   UNL     1       2.858  -2.475   0.000  0.00  0.00    -0.000 A 
ATOM     23  C   UNL     1       2.143  -2.888   0.000  0.00  0.00    -0.000 A 
ATOM     24  C   UNL     1       1.429  -2.475   0.000  0.00  0.00    -0.003 A 
ENDBRANCH  18  19
ENDBRANCH  17  18
ENDBRANCH  14  15
ENDBRANCH  13  14
TORSDOF 8
