MODEL 1
REMARK VINA RESULT:     -12.0      0.000      0.000
REMARK  Name = 
REMARK  6 active torsions:
REMARK  status: ('A' for Active; 'I' for Inactive)
REMARK    1  A    between atoms: O_2  and  C_3
REMARK    2  A    between atoms: C_6  and  C_9
REMARK    3  A    between atoms: C_12  and  C_14
REMARK    4  A    between atoms: C_16  and  N_20
REMARK    5  A    between atoms: N_20  and  C_21
REMARK    6  A    between atoms: C_21  and  C_22
REMARK                            x       y       z     vdW  Elec       q    Type
REMARK                         _______ _______ _______ _____ _____    ______ ____
ROOT
ATOM     14  C   UNL     1      -4.535   2.099  25.167  0.00  0.00    +0.139 C 
ATOM     15  C   UNL     1      -3.860   2.533  24.976  0.00  0.00    +0.044 C 
ATOM     16  C   UNL     1      -3.953   3.294  25.279  0.00  0.00    +0.091 C 
ATOM     17  C   UNL     1      -4.685   3.332  25.656  0.00  0.00    +0.090 C 
ATOM     18  N   UNL     1      -5.045   2.592  25.587  0.00  0.00    -0.264 NA
ATOM     19  C   UNL     1      -5.785   2.384  25.885  0.00  0.00    +0.090 C 
ENDROOT
BRANCH  14  12
ATOM      9  C   UNL     1      -4.499   0.003  24.763  0.00  0.00    +0.203 A 
ATOM     10  N   UNL     1      -5.280   0.188  24.577  0.00  0.00    -0.056 NA
ATOM     11  O   UNL     1      -5.389   0.996  24.705  0.00  0.00    -0.336 OA
ATOM     12  C   UNL     1      -4.675   1.310  24.971  0.00  0.00    +0.251 A 
ATOM     13  N   UNL     1      -4.124   0.696  25.007  0.00  0.00    -0.190 NA
BRANCH   9   6
ATOM      3  C   UNL     1      -3.459  -2.239  24.618  0.00  0.00    +0.139 A 
ATOM      4  C   UNL     1      -3.875  -1.934  23.973  0.00  0.00    +0.037 A 
ATOM      5  C   UNL     1      -4.221  -1.186  24.022  0.00  0.00    +0.006 A 
ATOM      6  C   UNL     1      -4.152  -0.744  24.715  0.00  0.00    +0.039 A 
ATOM      7  C   UNL     1      -3.737  -1.049  25.360  0.00  0.00    +0.006 A 
ATOM      8  C   UNL     1      -3.390  -1.796  25.311  0.00  0.00    +0.037 A 
BRANCH   3   2
ATOM      1  C   UNL     1      -2.301  -3.056  24.438  0.00  0.00    +0.252 C 
ATOM      2  O   UNL     1      -3.112  -2.986  24.569  0.00  0.00    -0.471 OA
ENDBRANCH   3   2
ENDBRANCH   9   6
ENDBRANCH  14  12
BRANCH  16  20
ATOM     20  N   UNL     1      -3.409   3.911  25.215  0.00  0.00    -0.213 NA
BRANCH  20  21
ATOM     21  C   UNL     1      -2.711   3.893  25.657  0.00  0.00    +0.115 C 
BRANCH  21  22
ATOM     22  C   UNL     1      -2.049   4.312  25.398  0.00  0.00    -0.005 A 
ATOM     23  C   UNL     1      -2.096   5.126  25.276  0.00  0.00    -0.001 A 
ATOM     24  C   UNL     1      -1.435   5.544  25.017  0.00  0.00    +0.029 A 
ATOM     25  C   UNL     1      -0.724   5.148  24.881  0.00  0.00    +0.140 A 
ATOM     26  F   UNL     1      -0.061   5.566  24.622  0.00  0.00    -0.204 F 
ATOM     27  C   UNL     1      -0.676   4.333  25.003  0.00  0.00    +0.029 A 
ATOM     28  C   UNL     1      -1.338   3.915  25.261  0.00  0.00    -0.001 A 
ENDBRANCH  21  22
ENDBRANCH  20  21
ENDBRANCH  16  20
TORSDOF 6
ENDMDL
MODEL 2
REMARK VINA RESULT:     -11.2      2.384      5.744
REMARK  Name = 
REMARK  6 active torsions:
REMARK  status: ('A' for Active; 'I' for Inactive)
REMARK    1  A    between atoms: O_2  and  C_3
REMARK    2  A    between atoms: C_6  and  C_9
REMARK    3  A    between atoms: C_12  and  C_14
REMARK    4  A    between atoms: C_16  and  N_20
REMARK    5  A    between atoms: N_20  and  C_21
REMARK    6  A    between atoms: C_21  and  C_22
REMARK                            x       y       z     vdW  Elec       q    Type
REMARK                         _______ _______ _______ _____ _____    ______ ____
ROOT
ATOM     14  C   UNL     1      -4.496   2.018  25.262  0.00  0.00    +0.139 C 
ATOM     15  C   UNL     1      -4.183   1.259  25.176  0.00  0.00    +0.044 C 
ATOM     16  C   UNL     1      -4.801   0.751  24.976  0.00  0.00    +0.091 C 
ATOM     17  C   UNL     1      -5.495   1.193  24.938  0.00  0.00    +0.090 C 
ATOM     18  N   UNL     1      -5.307   1.977  25.115  0.00  0.00    -0.264 NA
ATOM     19  C   UNL     1      -5.837   2.609  25.140  0.00  0.00    +0.090 C 
ENDROOT
BRANCH  14  12
ATOM      9  C   UNL     1      -3.125   3.637  25.495  0.00  0.00    +0.203 A 
ATOM     10  N   UNL     1      -3.714   3.848  26.032  0.00  0.00    -0.056 NA
ATOM     11  O   UNL     1      -4.300   3.267  26.010  0.00  0.00    -0.336 OA
ATOM     12  C   UNL     1      -4.073   2.697  25.460  0.00  0.00    +0.251 A 
ATOM     13  N   UNL     1      -3.346   2.926  25.141  0.00  0.00    -0.190 NA
BRANCH   9   6
ATOM      3  C   UNL     1      -1.057   4.914  25.028  0.00  0.00    +0.139 A 
ATOM      4  C   UNL     1      -1.025   4.093  25.113  0.00  0.00    +0.037 A 
ATOM      5  C   UNL     1      -1.715   3.668  25.268  0.00  0.00    +0.006 A 
ATOM      6  C   UNL     1      -2.435   4.063  25.339  0.00  0.00    +0.039 A 
ATOM      7  C   UNL     1      -2.468   4.883  25.255  0.00  0.00    +0.006 A 
ATOM      8  C   UNL     1      -1.778   5.309  25.099  0.00  0.00    +0.037 A 
BRANCH   3   2
ATOM      1  C   UNL     1       0.047   5.211  24.170  0.00  0.00    +0.252 C 
ATOM      2  O   UNL     1      -0.367   5.339  24.873  0.00  0.00    -0.471 OA
ENDBRANCH   3   2
ENDBRANCH   9   6
ENDBRANCH  14  12
BRANCH  16  20
ATOM     20  N   UNL     1      -4.735  -0.060  24.838  0.00  0.00    -0.213 NA
BRANCH  20  21
ATOM     21  C   UNL     1      -4.030  -0.373  24.543  0.00  0.00    +0.115 C 
BRANCH  21  22
ATOM     22  C   UNL     1      -3.932  -1.190  24.490  0.00  0.00    -0.005 A 
ATOM     23  C   UNL     1      -4.254  -1.605  23.854  0.00  0.00    -0.001 A 
ATOM     24  C   UNL     1      -4.156  -2.421  23.801  0.00  0.00    +0.029 A 
ATOM     25  C   UNL     1      -3.735  -2.825  24.384  0.00  0.00    +0.140 A 
ATOM     26  F   UNL     1      -3.637  -3.643  24.331  0.00  0.00    -0.204 F 
ATOM     27  C   UNL     1      -3.412  -2.411  25.021  0.00  0.00    +0.029 A 
ATOM     28  C   UNL     1      -3.511  -1.595  25.074  0.00  0.00    -0.001 A 
ENDBRANCH  21  22
ENDBRANCH  20  21
ENDBRANCH  16  20
TORSDOF 6
ENDMDL
MODEL 3
REMARK VINA RESULT:     -10.7      2.384      3.284
REMARK  Name = 
REMARK  6 active torsions:
REMARK  status: ('A' for Active; 'I' for Inactive)
REMARK    1  A    between atoms: O_2  and  C_3
REMARK    2  A    between atoms: C_6  and  C_9
REMARK    3  A    between atoms: C_12  and  C_14
REMARK    4  A    between atoms: C_16  and  N_20
REMARK    5  A    between atoms: N_20  and  C_21
REMARK    6  A    between atoms: C_21  and  C_22
REMARK                            x       y       z     vdW  Elec       q    Type
REMARK                         _______ _______ _______ _____ _____    ______ ____
ROOT
ATOM     14  C   UNL     1      -0.377   0.615  24.528  0.00  0.00    +0.139 C 
ATOM     15  C   UNL     1      -0.596   1.335  24.865  0.00  0.00    +0.044 C 
ATOM     16  C   UNL     1      -0.152   1.930  24.504  0.00  0.00    +0.091 C 
ATOM     17  C   UNL     1       0.341   1.578  23.946  0.00  0.00    +0.090 C 
ATOM     18  N   UNL     1       0.202   0.764  23.960  0.00  0.00    -0.264 NA
ATOM     19  C   UNL     1       0.577   0.200  23.489  0.00  0.00    +0.090 C 
ENDROOT
BRANCH  14  12
ATOM      9  C   UNL     1      -1.496  -1.182  24.806  0.00  0.00    +0.203 A 
ATOM     10  N   UNL     1      -0.818  -1.346  25.246  0.00  0.00    -0.056 NA
ATOM     11  O   UNL     1      -0.316  -0.693  25.195  0.00  0.00    -0.336 OA
ATOM     12  C   UNL     1      -0.684  -0.125  24.724  0.00  0.00    +0.251 A 
ATOM     13  N   UNL     1      -1.414  -0.427  24.484  0.00  0.00    -0.190 NA
BRANCH   9   6
ATOM      3  C   UNL     1      -3.438  -2.688  24.508  0.00  0.00    +0.139 A 
ATOM      4  C   UNL     1      -2.692  -2.915  24.235  0.00  0.00    +0.037 A 
ATOM      5  C   UNL     1      -2.045  -2.413  24.334  0.00  0.00    +0.006 A 
ATOM      6  C   UNL     1      -2.143  -1.684  24.707  0.00  0.00    +0.039 A 
ATOM      7  C   UNL     1      -2.888  -1.455  24.980  0.00  0.00    +0.006 A 
ATOM      8  C   UNL     1      -3.535  -1.957  24.881  0.00  0.00    +0.037 A 
BRANCH   3   2
ATOM      1  C   UNL     1      -4.568  -3.112  23.744  0.00  0.00    +0.252 C 
ATOM      2  O   UNL     1      -4.085  -3.190  24.408  0.00  0.00    -0.471 OA
ENDBRANCH   3   2
ENDBRANCH   9   6
ENDBRANCH  14  12
BRANCH  16  20
ATOM     20  N   UNL     1      -0.194   2.736  24.674  0.00  0.00    -0.213 NA
BRANCH  20  21
ATOM     21  C   UNL     1      -0.747   3.015  25.220  0.00  0.00    +0.115 C 
BRANCH  21  22
ATOM     22  C   UNL     1      -0.996   3.801  25.190  0.00  0.00    -0.005 A 
ATOM     23  C   UNL     1      -1.742   4.009  25.475  0.00  0.00    -0.001 A 
ATOM     24  C   UNL     1      -1.991   4.794  25.445  0.00  0.00    +0.029 A 
ATOM     25  C   UNL     1      -1.494   5.373  25.130  0.00  0.00    +0.140 A 
ATOM     26  F   UNL     1      -1.743   6.159  25.101  0.00  0.00    -0.204 F 
ATOM     27  C   UNL     1      -0.747   5.165  24.846  0.00  0.00    +0.029 A 
ATOM     28  C   UNL     1      -0.499   4.380  24.875  0.00  0.00    -0.001 A 
ENDBRANCH  21  22
ENDBRANCH  20  21
ENDBRANCH  16  20
TORSDOF 6
ENDMDL
MODEL 4
REMARK VINA RESULT:     -10.6      3.177      6.508
REMARK  Name = 
REMARK  6 active torsions:
REMARK  status: ('A' for Active; 'I' for Inactive)
REMARK    1  A    between atoms: O_2  and  C_3
REMARK    2  A    between atoms: C_6  and  C_9
REMARK    3  A    between atoms: C_12  and  C_14
REMARK    4  A    between atoms: C_16  and  N_20
REMARK    5  A    between atoms: N_20  and  C_21
REMARK    6  A    between atoms: C_21  and  C_22
REMARK                            x       y       z     vdW  Elec       q    Type
REMARK                         _______ _______ _______ _____ _____    ______ ____
ROOT
ATOM     14  C   UNL     1      -0.678   0.605  24.815  0.00  0.00    +0.139 C 
ATOM     15  C   UNL     1      -1.296   0.095  25.016  0.00  0.00    +0.044 C 
ATOM     16  C   UNL     1      -1.198  -0.603  24.587  0.00  0.00    +0.091 C 
ATOM     17  C   UNL     1      -0.522  -0.526  24.122  0.00  0.00    +0.090 C 
ATOM     18  N   UNL     1      -0.200   0.221  24.262  0.00  0.00    -0.264 NA
ATOM     19  C   UNL     1       0.480   0.529  23.912  0.00  0.00    +0.090 C 
ENDROOT
BRANCH  14  12
ATOM      9  C   UNL     1      -0.701   2.670  25.354  0.00  0.00    +0.203 A 
ATOM     10  N   UNL     1      -0.058   2.398  25.792  0.00  0.00    -0.056 NA
ATOM     11  O   UNL     1       0.029   1.590  25.643  0.00  0.00    -0.336 OA
ATOM     12  C   UNL     1      -0.560   1.364  25.113  0.00  0.00    +0.251 A 
ATOM     13  N   UNL     1      -1.012   2.031  24.934  0.00  0.00    -0.190 NA
BRANCH   9   6
ATOM      3  C   UNL     1      -1.550   4.994  25.305  0.00  0.00    +0.139 A 
ATOM      4  C   UNL     1      -1.991   4.401  25.674  0.00  0.00    +0.037 A 
ATOM      5  C   UNL     1      -1.708   3.626  25.690  0.00  0.00    +0.006 A 
ATOM      6  C   UNL     1      -0.984   3.445  25.337  0.00  0.00    +0.039 A 
ATOM      7  C   UNL     1      -0.543   4.037  24.969  0.00  0.00    +0.006 A 
ATOM      8  C   UNL     1      -0.826   4.812  24.953  0.00  0.00    +0.037 A 
BRANCH   3   2
ATOM      1  C   UNL     1      -1.878   6.177  24.573  0.00  0.00    +0.252 C 
ATOM      2  O   UNL     1      -1.833   5.769  25.289  0.00  0.00    -0.471 OA
ENDBRANCH   3   2
ENDBRANCH   9   6
ENDBRANCH  14  12
BRANCH  16  20
ATOM     20  N   UNL     1      -1.691  -1.264  24.619  0.00  0.00    -0.213 NA
BRANCH  20  21
ATOM     21  C   UNL     1      -2.470  -1.185  24.883  0.00  0.00    +0.115 C 
BRANCH  21  22
ATOM     22  C   UNL     1      -3.059  -1.681  24.585  0.00  0.00    -0.005 A 
ATOM     23  C   UNL     1      -3.014  -2.495  24.708  0.00  0.00    -0.001 A 
ATOM     24  C   UNL     1      -3.602  -2.990  24.410  0.00  0.00    +0.029 A 
ATOM     25  C   UNL     1      -4.236  -2.671  23.989  0.00  0.00    +0.140 A 
ATOM     26  F   UNL     1      -4.825  -3.167  23.691  0.00  0.00    -0.204 F 
ATOM     27  C   UNL     1      -4.281  -1.856  23.867  0.00  0.00    +0.029 A 
ATOM     28  C   UNL     1      -3.693  -1.361  24.164  0.00  0.00    -0.001 A 
ENDBRANCH  21  22
ENDBRANCH  20  21
ENDBRANCH  16  20
TORSDOF 6
ENDMDL
MODEL 5
REMARK VINA RESULT:      -9.3      3.194      4.632
REMARK  Name = 
REMARK  6 active torsions:
REMARK  status: ('A' for Active; 'I' for Inactive)
REMARK    1  A    between atoms: O_2  and  C_3
REMARK    2  A    between atoms: C_6  and  C_9
REMARK    3  A    between atoms: C_12  and  C_14
REMARK    4  A    between atoms: C_16  and  N_20
REMARK    5  A    between atoms: N_20  and  C_21
REMARK    6  A    between atoms: C_21  and  C_22
REMARK                            x       y       z     vdW  Elec       q    Type
REMARK                         _______ _______ _______ _____ _____    ______ ____
ROOT
ATOM     14  C   UNL     1      -2.580  -0.471  24.821  0.00  0.00    +0.139 C 
ATOM     15  C   UNL     1      -2.959   0.229  25.039  0.00  0.00    +0.044 C 
ATOM     16  C   UNL     1      -3.769   0.080  25.072  0.00  0.00    +0.091 C 
ATOM     17  C   UNL     1      -3.892  -0.711  24.875  0.00  0.00    +0.090 C 
ATOM     18  N   UNL     1      -3.156  -1.052  24.719  0.00  0.00    -0.264 NA
ATOM     19  C   UNL     1      -3.022  -1.836  24.501  0.00  0.00    +0.090 C 
ENDROOT
BRANCH  14  12
ATOM      9  C   UNL     1      -0.521  -0.456  24.256  0.00  0.00    +0.203 A 
ATOM     10  N   UNL     1      -0.512  -0.994  24.881  0.00  0.00    -0.056 NA
ATOM     11  O   UNL     1      -1.282  -1.065  25.169  0.00  0.00    -0.336 OA
ATOM     12  C   UNL     1      -1.767  -0.571  24.722  0.00  0.00    +0.251 A 
ATOM     13  N   UNL     1      -1.297  -0.195  24.158  0.00  0.00    -0.190 NA
BRANCH   9   6
ATOM      3  C   UNL     1       1.434   0.250  22.913  0.00  0.00    +0.139 A 
ATOM      4  C   UNL     1       1.108  -0.501  22.805  0.00  0.00    +0.037 A 
ATOM      5  C   UNL     1       0.456  -0.736  23.253  0.00  0.00    +0.006 A 
ATOM      6  C   UNL     1       0.131  -0.221  23.809  0.00  0.00    +0.039 A 
ATOM      7  C   UNL     1       0.456   0.530  23.918  0.00  0.00    +0.006 A 
ATOM      8  C   UNL     1       1.108   0.765  23.470  0.00  0.00    +0.037 A 
BRANCH   3   2
ATOM      1  C   UNL     1       2.846   0.263  22.697  0.00  0.00    +0.252 C 
ATOM      2  O   UNL     1       2.086   0.485  22.465  0.00  0.00    -0.471 OA
ENDBRANCH   3   2
ENDBRANCH   9   6
ENDBRANCH  14  12
BRANCH  16  20
ATOM     20  N   UNL     1      -4.355   0.626  25.268  0.00  0.00    -0.213 NA
BRANCH  20  21
ATOM     21  C   UNL     1      -4.583   1.202  24.722  0.00  0.00    +0.115 C 
BRANCH  21  22
ATOM     22  C   UNL     1      -4.928   1.905  24.982  0.00  0.00    -0.005 A 
ATOM     23  C   UNL     1      -5.623   1.884  25.426  0.00  0.00    -0.001 A 
ATOM     24  C   UNL     1      -5.968   2.586  25.685  0.00  0.00    +0.029 A 
ATOM     25  C   UNL     1      -5.618   3.310  25.502  0.00  0.00    +0.140 A 
ATOM     26  F   UNL     1      -5.963   4.013  25.762  0.00  0.00    -0.204 F 
ATOM     27  C   UNL     1      -4.923   3.331  25.057  0.00  0.00    +0.029 A 
ATOM     28  C   UNL     1      -4.578   2.629  24.798  0.00  0.00    -0.001 A 
ENDBRANCH  21  22
ENDBRANCH  20  21
ENDBRANCH  16  20
TORSDOF 6
ENDMDL
MODEL 6
REMARK VINA RESULT:      -9.3      4.792      6.066
REMARK  Name = 
REMARK  6 active torsions:
REMARK  status: ('A' for Active; 'I' for Inactive)
REMARK    1  A    between atoms: O_2  and  C_3
REMARK    2  A    between atoms: C_6  and  C_9
REMARK    3  A    between atoms: C_12  and  C_14
REMARK    4  A    between atoms: C_16  and  N_20
REMARK    5  A    between atoms: N_20  and  C_21
REMARK    6  A    between atoms: C_21  and  C_22
REMARK                            x       y       z     vdW  Elec       q    Type
REMARK                         _______ _______ _______ _____ _____    ______ ____
ROOT
ATOM     14  C   UNL     1      -0.107   0.242  23.644  0.00  0.00    +0.139 C 
ATOM     15  C   UNL     1      -0.607   0.896  23.588  0.00  0.00    +0.044 C 
ATOM     16  C   UNL     1      -1.237   0.779  24.108  0.00  0.00    +0.091 C 
ATOM     17  C   UNL     1      -1.127   0.054  24.485  0.00  0.00    +0.090 C 
ATOM     18  N   UNL     1      -0.428  -0.279  24.197  0.00  0.00    -0.264 NA
ATOM     19  C   UNL     1      -0.108  -1.004  24.424  0.00  0.00    +0.090 C 
ENDROOT
BRANCH  14  12
ATOM      9  C   UNL     1       1.883   0.108  22.883  0.00  0.00    +0.203 A 
ATOM     10  N   UNL     1       1.450  -0.200  22.252  0.00  0.00    -0.056 NA
ATOM     11  O   UNL     1       0.651  -0.187  22.461  0.00  0.00    -0.336 OA
ATOM     12  C   UNL     1       0.591   0.128  23.220  0.00  0.00    +0.251 A 
ATOM     13  N   UNL     1       1.352   0.311  23.481  0.00  0.00    -0.190 NA
BRANCH   9   6
ATOM      3  C   UNL     1       4.342   0.376  22.967  0.00  0.00    +0.139 A 
ATOM      4  C   UNL     1       4.003  -0.366  23.094  0.00  0.00    +0.037 A 
ATOM      5  C   UNL     1       3.183  -0.455  23.066  0.00  0.00    +0.006 A 
ATOM      6  C   UNL     1       2.703   0.197  22.911  0.00  0.00    +0.039 A 
ATOM      7  C   UNL     1       3.041   0.939  22.784  0.00  0.00    +0.006 A 
ATOM      8  C   UNL     1       3.860   1.029  22.812  0.00  0.00    +0.037 A 
BRANCH   3   2
ATOM      1  C   UNL     1       5.586   0.174  23.639  0.00  0.00    +0.252 C 
ATOM      2  O   UNL     1       5.162   0.465  22.995  0.00  0.00    -0.471 OA
ENDBRANCH   3   2
ENDBRANCH   9   6
ENDBRANCH  14  12
BRANCH  16  20
ATOM     20  N   UNL     1      -1.867   1.297  24.230  0.00  0.00    -0.213 NA
BRANCH  20  21
ATOM     21  C   UNL     1      -2.576   1.189  23.822  0.00  0.00    +0.115 C 
BRANCH  21  22
ATOM     22  C   UNL     1      -3.240   1.637  24.020  0.00  0.00    -0.005 A 
ATOM     23  C   UNL     1      -3.284   2.430  23.798  0.00  0.00    -0.001 A 
ATOM     24  C   UNL     1      -3.946   2.878  23.996  0.00  0.00    +0.029 A 
ATOM     25  C   UNL     1      -4.566   2.534  24.418  0.00  0.00    +0.140 A 
ATOM     26  F   UNL     1      -5.230   2.983  24.616  0.00  0.00    -0.204 F 
ATOM     27  C   UNL     1      -4.523   1.740  24.641  0.00  0.00    +0.029 A 
ATOM     28  C   UNL     1      -3.860   1.292  24.442  0.00  0.00    -0.001 A 
ENDBRANCH  21  22
ENDBRANCH  20  21
ENDBRANCH  16  20
TORSDOF 6
ENDMDL
MODEL 7
REMARK VINA RESULT:      -9.2      3.346      4.920
REMARK  Name = 
REMARK  6 active torsions:
REMARK  status: ('A' for Active; 'I' for Inactive)
REMARK    1  A    between atoms: O_2  and  C_3
REMARK    2  A    between atoms: C_6  and  C_9
REMARK    3  A    between atoms: C_12  and  C_14
REMARK    4  A    between atoms: C_16  and  N_20
REMARK    5  A    between atoms: N_20  and  C_21
REMARK    6  A    between atoms: C_21  and  C_22
REMARK                            x       y       z     vdW  Elec       q    Type
REMARK                         _______ _______ _______ _____ _____    ______ ____
ROOT
ATOM     14  C   UNL     1      -1.785  -0.349  24.588  0.00  0.00    +0.139 C 
ATOM     15  C   UNL     1      -1.206  -0.197  24.020  0.00  0.00    +0.044 C 
ATOM     16  C   UNL     1      -0.498  -0.527  24.284  0.00  0.00    +0.091 C 
ATOM     17  C   UNL     1      -0.638  -0.883  25.014  0.00  0.00    +0.090 C 
ATOM     18  N   UNL     1      -1.434  -0.773  25.202  0.00  0.00    -0.264 NA
ATOM     19  C   UNL     1      -1.812  -1.040  25.885  0.00  0.00    +0.090 C 
ENDROOT
BRANCH  14  12
ATOM      9  C   UNL     1      -3.695   0.602  24.654  0.00  0.00    +0.203 A 
ATOM     10  N   UNL     1      -3.890  -0.125  24.318  0.00  0.00    -0.056 NA
ATOM     11  O   UNL     1      -3.199  -0.570  24.253  0.00  0.00    -0.336 OA
ATOM     12  C   UNL     1      -2.576  -0.118  24.547  0.00  0.00    +0.251 A 
ATOM     13  N   UNL     1      -2.883   0.607  24.795  0.00  0.00    -0.190 NA
BRANCH   9   6
ATOM      3  C   UNL     1      -5.269   2.447  25.148  0.00  0.00    +0.139 A 
ATOM      4  C   UNL     1      -5.447   1.677  25.388  0.00  0.00    +0.037 A 
ATOM      5  C   UNL     1      -4.922   1.062  25.223  0.00  0.00    +0.006 A 
ATOM      6  C   UNL     1      -4.220   1.217  24.819  0.00  0.00    +0.039 A 
ATOM      7  C   UNL     1      -4.042   1.986  24.578  0.00  0.00    +0.006 A 
ATOM      8  C   UNL     1      -4.566   2.601  24.743  0.00  0.00    +0.037 A 
BRANCH   3   2
ATOM      1  C   UNL     1      -5.505   3.798  25.548  0.00  0.00    +0.252 C 
ATOM      2  O   UNL     1      -5.794   3.062  25.313  0.00  0.00    -0.471 OA
ENDBRANCH   3   2
ENDBRANCH   9   6
ENDBRANCH  14  12
BRANCH  16  20
ATOM     20  N   UNL     1       0.225  -0.504  23.887  0.00  0.00    -0.213 NA
BRANCH  20  21
ATOM     21  C   UNL     1       0.424   0.154  23.430  0.00  0.00    +0.115 C 
BRANCH  21  22
ATOM     22  C   UNL     1       1.184   0.223  23.116  0.00  0.00    -0.005 A 
ATOM     23  C   UNL     1       1.718   0.761  23.442  0.00  0.00    -0.001 A 
ATOM     24  C   UNL     1       2.477   0.831  23.129  0.00  0.00    +0.029 A 
ATOM     25  C   UNL     1       2.704   0.362  22.489  0.00  0.00    +0.140 A 
ATOM     26  F   UNL     1       3.464   0.432  22.176  0.00  0.00    -0.204 F 
ATOM     27  C   UNL     1       2.171  -0.177  22.163  0.00  0.00    +0.029 A 
ATOM     28  C   UNL     1       1.411  -0.246  22.476  0.00  0.00    -0.001 A 
ENDBRANCH  21  22
ENDBRANCH  20  21
ENDBRANCH  16  20
TORSDOF 6
ENDMDL
MODEL 8
REMARK VINA RESULT:      -9.0      3.288      4.736
REMARK  Name = 
REMARK  6 active torsions:
REMARK  status: ('A' for Active; 'I' for Inactive)
REMARK    1  A    between atoms: O_2  and  C_3
REMARK    2  A    between atoms: C_6  and  C_9
REMARK    3  A    between atoms: C_12  and  C_14
REMARK    4  A    between atoms: C_16  and  N_20
REMARK    5  A    between atoms: N_20  and  C_21
REMARK    6  A    between atoms: C_21  and  C_22
REMARK                            x       y       z     vdW  Elec       q    Type
REMARK                         _______ _______ _______ _____ _____    ______ ____
ROOT
ATOM     14  C   UNL     1      -1.464   3.202  25.186  0.00  0.00    +0.139 C 
ATOM     15  C   UNL     1      -2.226   2.915  25.325  0.00  0.00    +0.044 C 
ATOM     16  C   UNL     1      -2.735   3.561  25.384  0.00  0.00    +0.091 C 
ATOM     17  C   UNL     1      -2.290   4.247  25.281  0.00  0.00    +0.090 C 
ATOM     18  N   UNL     1      -1.504   4.026  25.159  0.00  0.00    -0.264 NA
ATOM     19  C   UNL     1      -0.870   4.538  25.032  0.00  0.00    +0.090 C 
ENDROOT
BRANCH  14  12
ATOM      9  C   UNL     1       0.105   1.880  24.599  0.00  0.00    +0.203 A 
ATOM     10  N   UNL     1       0.421   2.207  25.288  0.00  0.00    -0.056 NA
ATOM     11  O   UNL     1      -0.129   2.742  25.591  0.00  0.00    -0.336 OA
ATOM     12  C   UNL     1      -0.784   2.746  25.091  0.00  0.00    +0.251 A 
ATOM     13  N   UNL     1      -0.639   2.213  24.478  0.00  0.00    -0.190 NA
BRANCH   9   6
ATOM      3  C   UNL     1       1.200   0.196  23.154  0.00  0.00    +0.139 A 
ATOM      4  C   UNL     1       1.590   0.901  23.335  0.00  0.00    +0.037 A 
ATOM      5  C   UNL     1       1.225   1.462  23.817  0.00  0.00    +0.006 A 
ATOM      6  C   UNL     1       0.470   1.319  24.117  0.00  0.00    +0.039 A 
ATOM      7  C   UNL     1       0.080   0.614  23.937  0.00  0.00    +0.006 A 
ATOM      8  C   UNL     1       0.445   0.053  23.455  0.00  0.00    +0.037 A 
BRANCH   3   2
ATOM      1  C   UNL     1       1.540  -0.283  21.851  0.00  0.00    +0.252 C 
ATOM      2  O   UNL     1       1.566  -0.365  22.672  0.00  0.00    -0.471 OA
ENDBRANCH   3   2
ENDBRANCH   9   6
ENDBRANCH  14  12
BRANCH  16  20
ATOM     20  N   UNL     1      -3.547   3.527  25.521  0.00  0.00    -0.213 NA
BRANCH  20  21
ATOM     21  C   UNL     1      -4.062   3.334  24.905  0.00  0.00    +0.115 C 
BRANCH  21  22
ATOM     22  C   UNL     1      -4.767   2.936  25.065  0.00  0.00    -0.005 A 
ATOM     23  C   UNL     1      -5.259   3.197  25.674  0.00  0.00    -0.001 A 
ATOM     24  C   UNL     1      -5.963   2.800  25.834  0.00  0.00    +0.029 A 
ATOM     25  C   UNL     1      -6.176   2.141  25.386  0.00  0.00    +0.140 A 
ATOM     26  F   UNL     1      -6.881   1.743  25.547  0.00  0.00    -0.204 F 
ATOM     27  C   UNL     1      -5.684   1.879  24.777  0.00  0.00    +0.029 A 
ATOM     28  C   UNL     1      -4.980   2.277  24.617  0.00  0.00    -0.001 A 
ENDBRANCH  21  22
ENDBRANCH  20  21
ENDBRANCH  16  20
TORSDOF 6
ENDMDL
MODEL 9
REMARK VINA RESULT:      -9.0      5.117      7.026
REMARK  Name = 
REMARK  6 active torsions:
REMARK  status: ('A' for Active; 'I' for Inactive)
REMARK    1  A    between atoms: O_2  and  C_3
REMARK    2  A    between atoms: C_6  and  C_9
REMARK    3  A    between atoms: C_12  and  C_14
REMARK    4  A    between atoms: C_16  and  N_20
REMARK    5  A    between atoms: N_20  and  C_21
REMARK    6  A    between atoms: C_21  and  C_22
REMARK                            x       y       z     vdW  Elec       q    Type
REMARK                         _______ _______ _______ _____ _____    ______ ____
ROOT
ATOM     14  C   UNL     1       0.146  -0.052  23.681  0.00  0.00    +0.139 C 
ATOM     15  C   UNL     1      -0.300  -0.732  23.821  0.00  0.00    +0.044 C 
ATOM     16  C   UNL     1      -0.941  -0.523  24.296  0.00  0.00    +0.091 C 
ATOM     17  C   UNL     1      -0.892   0.286  24.450  0.00  0.00    +0.090 C 
ATOM     18  N   UNL     1      -0.220   0.577  24.070  0.00  0.00    -0.264 NA
ATOM     19  C   UNL     1       0.040   1.359  24.077  0.00  0.00    +0.090 C 
ENDROOT
BRANCH  14  12
ATOM      9  C   UNL     1       2.122   0.088  22.887  0.00  0.00    +0.203 A 
ATOM     10  N   UNL     1       1.676   0.025  22.196  0.00  0.00    -0.056 NA
ATOM     11  O   UNL     1       0.881  -0.035  22.409  0.00  0.00    -0.336 OA
ATOM     12  C   UNL     1       0.836  -0.009  23.232  0.00  0.00    +0.251 A 
ATOM     13  N   UNL     1       1.603   0.067  23.527  0.00  0.00    -0.190 NA
BRANCH   9   6
ATOM      3  C   UNL     1       4.584   0.304  23.015  0.00  0.00    +0.139 A 
ATOM      4  C   UNL     1       4.129   0.931  22.729  0.00  0.00    +0.037 A 
ATOM      5  C   UNL     1       3.308   0.859  22.686  0.00  0.00    +0.006 A 
ATOM      6  C   UNL     1       2.943   0.160  22.929  0.00  0.00    +0.039 A 
ATOM      7  C   UNL     1       3.397  -0.466  23.215  0.00  0.00    +0.006 A 
ATOM      8  C   UNL     1       4.218  -0.394  23.258  0.00  0.00    +0.037 A 
BRANCH   3   2
ATOM      1  C   UNL     1       5.826  -0.039  23.633  0.00  0.00    +0.252 C 
ATOM      2  O   UNL     1       5.405   0.376  23.058  0.00  0.00    -0.471 OA
ENDBRANCH   3   2
ENDBRANCH   9   6
ENDBRANCH  14  12
BRANCH  16  20
ATOM     20  N   UNL     1      -1.529  -1.033  24.570  0.00  0.00    -0.213 NA
BRANCH  20  21
ATOM     21  C   UNL     1      -2.316  -0.785  24.587  0.00  0.00    +0.115 C 
BRANCH  21  22
ATOM     22  C   UNL     1      -2.923  -1.326  24.447  0.00  0.00    -0.005 A 
ATOM     23  C   UNL     1      -3.593  -1.095  24.025  0.00  0.00    -0.001 A 
ATOM     24  C   UNL     1      -4.199  -1.635  23.885  0.00  0.00    +0.029 A 
ATOM     25  C   UNL     1      -4.136  -2.408  24.165  0.00  0.00    +0.140 A 
ATOM     26  F   UNL     1      -4.742  -2.949  24.025  0.00  0.00    -0.204 F 
ATOM     27  C   UNL     1      -3.465  -2.640  24.587  0.00  0.00    +0.029 A 
ATOM     28  C   UNL     1      -2.859  -2.100  24.728  0.00  0.00    -0.001 A 
ENDBRANCH  21  22
ENDBRANCH  20  21
ENDBRANCH  16  20
TORSDOF 6
ENDMDL
MODEL 10
REMARK VINA RESULT:      -8.9      2.924      5.987
REMARK  Name = 
REMARK  6 active torsions:
REMARK  status: ('A' for Active; 'I' for Inactive)
REMARK    1  A    between atoms: O_2  and  C_3
REMARK    2  A    between atoms: C_6  and  C_9
REMARK    3  A    between atoms: C_12  and  C_14
REMARK    4  A    between atoms: C_16  and  N_20
REMARK    5  A    between atoms: N_20  and  C_21
REMARK    6  A    between atoms: C_21  and  C_22
REMARK                            x       y       z     vdW  Elec       q    Type
REMARK                         _______ _______ _______ _____ _____    ______ ____
ROOT
ATOM     14  C   UNL     1      -1.072   1.134  24.483  0.00  0.00    +0.139 C 
ATOM     15  C   UNL     1      -1.471   0.412  24.502  0.00  0.00    +0.044 C 
ATOM     16  C   UNL     1      -0.914  -0.189  24.409  0.00  0.00    +0.091 C 
ATOM     17  C   UNL     1      -0.171   0.160  24.332  0.00  0.00    +0.090 C 
ATOM     18  N   UNL     1      -0.269   0.978  24.378  0.00  0.00    -0.264 NA
ATOM     19  C   UNL     1       0.332   1.541  24.328  0.00  0.00    +0.090 C 
ENDROOT
BRANCH  14  12
ATOM      9  C   UNL     1      -2.310   2.852  24.754  0.00  0.00    +0.203 A 
ATOM     10  N   UNL     1      -1.583   3.203  24.585  0.00  0.00    -0.056 NA
ATOM     11  O   UNL     1      -1.031   2.602  24.463  0.00  0.00    -0.336 OA
ATOM     12  C   UNL     1      -1.416   1.880  24.557  0.00  0.00    +0.251 A 
ATOM     13  N   UNL     1      -2.207   2.034  24.736  0.00  0.00    -0.190 NA
BRANCH   9   6
ATOM      3  C   UNL     1      -4.427   4.042  25.230  0.00  0.00    +0.139 A 
ATOM      4  C   UNL     1      -3.885   3.904  25.838  0.00  0.00    +0.037 A 
ATOM      5  C   UNL     1      -3.179   3.507  25.679  0.00  0.00    +0.006 A 
ATOM      6  C   UNL     1      -3.016   3.249  24.913  0.00  0.00    +0.039 A 
ATOM      7  C   UNL     1      -3.557   3.386  24.305  0.00  0.00    +0.006 A 
ATOM      8  C   UNL     1      -4.262   3.782  24.464  0.00  0.00    +0.037 A 
BRANCH   3   2
ATOM      1  C   UNL     1      -5.797   4.015  25.635  0.00  0.00    +0.252 C 
ATOM      2  O   UNL     1      -5.133   4.439  25.389  0.00  0.00    -0.471 OA
ENDBRANCH   3   2
ENDBRANCH   9   6
ENDBRANCH  14  12
BRANCH  16  20
ATOM     20  N   UNL     1      -1.073  -0.999  24.395  0.00  0.00    -0.213 NA
BRANCH  20  21
ATOM     21  C   UNL     1      -1.486  -1.349  25.018  0.00  0.00    +0.115 C 
BRANCH  21  22
ATOM     22  C   UNL     1      -2.082  -1.898  24.861  0.00  0.00    -0.005 A 
ATOM     23  C   UNL     1      -2.826  -1.808  25.205  0.00  0.00    -0.001 A 
ATOM     24  C   UNL     1      -3.421  -2.356  25.048  0.00  0.00    +0.029 A 
ATOM     25  C   UNL     1      -3.274  -2.994  24.547  0.00  0.00    +0.140 A 
ATOM     26  F   UNL     1      -3.870  -3.543  24.390  0.00  0.00    -0.204 F 
ATOM     27  C   UNL     1      -2.529  -3.084  24.203  0.00  0.00    +0.029 A 
ATOM     28  C   UNL     1      -1.934  -2.537  24.359  0.00  0.00    -0.001 A 
ENDBRANCH  21  22
ENDBRANCH  20  21
ENDBRANCH  16  20
TORSDOF 6
ENDMDL
