MODEL 1
REMARK VINA RESULT:     -11.2      0.000      0.000
REMARK  Name = 
REMARK  5 active torsions:
REMARK  status: ('A' for Active; 'I' for Inactive)
REMARK    1  A    between atoms: N_2  and  C_4
REMARK    2  A    between atoms: C_7  and  C_8
REMARK    3  A    between atoms: C_8  and  N_9
REMARK    4  A    between atoms: C_12  and  C_14
REMARK    5  A    between atoms: C_17  and  C_19
REMARK                            x       y       z     vdW  Elec       q    Type
REMARK                         _______ _______ _______ _____ _____    ______ ____
ROOT
ATOM      9  N   UNL     1      -0.880  -0.424  25.207  0.00  0.00    -0.268 NA
ATOM     10  C   UNL     1      -0.472  -0.293  24.502  0.00  0.00    +0.073 C 
ATOM     11  C   UNL     1      -0.296   0.512  24.456  0.00  0.00    +0.028 C 
ATOM     12  C   UNL     1      -0.594   0.878  25.133  0.00  0.00    +0.096 C 
ATOM     13  C   UNL     1      -0.956   0.298  25.597  0.00  0.00    +0.082 C 
ENDROOT
BRANCH  12  14
ATOM     14  C   UNL     1      -0.541   1.680  25.315  0.00  0.00    +0.227 A 
ATOM     15  N   UNL     1       0.100   2.054  25.676  0.00  0.00    -0.111 NA
ATOM     16  N   UNL     1      -0.082   2.855  25.752  0.00  0.00    -0.107 NA
ATOM     17  C   UNL     1      -0.835   2.977  25.438  0.00  0.00    +0.250 A 
ATOM     18  O   UNL     1      -1.119   2.250  25.167  0.00  0.00    -0.419 OA
BRANCH  17  19
ATOM     19  C   UNL     1      -1.235   3.698  25.400  0.00  0.00    +0.058 A 
ATOM     20  C   UNL     1      -2.003   3.759  25.695  0.00  0.00    +0.025 A 
ATOM     21  C   UNL     1      -2.402   4.481  25.657  0.00  0.00    +0.099 A 
ATOM     22  N   UNL     1      -2.034   5.139  25.325  0.00  0.00    -0.242 NA
ATOM     23  C   UNL     1      -1.266   5.077  25.030  0.00  0.00    +0.099 A 
ATOM     24  C   UNL     1      -0.866   4.357  25.068  0.00  0.00    +0.025 A 
ENDBRANCH  17  19
ENDBRANCH  12  14
BRANCH   9   8
ATOM      8  C   UNL     1      -1.163  -1.151  25.474  0.00  0.00    +0.099 C 
BRANCH   8   7
ATOM      4  C   UNL     1      -3.238  -2.102  24.514  0.00  0.00    +0.143 A 
ATOM      5  C   UNL     1      -3.282  -1.511  25.088  0.00  0.00    +0.024 A 
ATOM      6  C   UNL     1      -2.590  -1.193  25.408  0.00  0.00    -0.001 A 
ATOM      7  C   UNL     1      -1.855  -1.468  25.154  0.00  0.00    -0.006 A 
ATOM     25  C   UNL     1      -1.811  -2.059  24.580  0.00  0.00    -0.001 A 
ATOM     26  C   UNL     1      -2.502  -2.375  24.261  0.00  0.00    +0.024 A 
BRANCH   4   2
ATOM      1  O   UNL     1      -4.498  -1.918  23.867  0.00  0.00    -0.126 OA
ATOM      2  N   UNL     1      -3.929  -2.418  24.195  0.00  0.00    +0.058 N 
ATOM      3  O   UNL     1      -4.052  -3.234  24.202  0.00  0.00    -0.126 OA
ENDBRANCH   4   2
ENDBRANCH   8   7
ENDBRANCH   9   8
TORSDOF 5
ENDMDL
MODEL 2
REMARK VINA RESULT:     -11.1      2.175      6.063
REMARK  Name = 
REMARK  5 active torsions:
REMARK  status: ('A' for Active; 'I' for Inactive)
REMARK    1  A    between atoms: N_2  and  C_4
REMARK    2  A    between atoms: C_7  and  C_8
REMARK    3  A    between atoms: C_8  and  N_9
REMARK    4  A    between atoms: C_12  and  C_14
REMARK    5  A    between atoms: C_17  and  C_19
REMARK                            x       y       z     vdW  Elec       q    Type
REMARK                         _______ _______ _______ _____ _____    ______ ____
ROOT
ATOM      9  N   UNL     1      -4.404   2.718  25.328  0.00  0.00    -0.268 NA
ATOM     10  C   UNL     1      -5.161   2.556  25.044  0.00  0.00    +0.073 C 
ATOM     11  C   UNL     1      -5.138   1.823  24.665  0.00  0.00    +0.028 C 
ATOM     12  C   UNL     1      -4.367   1.534  24.715  0.00  0.00    +0.096 C 
ATOM     13  C   UNL     1      -3.913   2.088  25.126  0.00  0.00    +0.082 C 
ENDROOT
BRANCH  12  14
ATOM     14  C   UNL     1      -4.097   0.817  24.410  0.00  0.00    +0.227 A 
ATOM     15  N   UNL     1      -3.687   0.716  23.701  0.00  0.00    -0.111 NA
ATOM     16  N   UNL     1      -3.526  -0.088  23.611  0.00  0.00    -0.107 NA
ATOM     17  C   UNL     1      -3.836  -0.485  24.265  0.00  0.00    +0.250 A 
ATOM     18  O   UNL     1      -4.190   0.075  24.758  0.00  0.00    -0.419 OA
BRANCH  17  19
ATOM     19  C   UNL     1      -3.800  -1.298  24.402  0.00  0.00    +0.058 A 
ATOM     20  C   UNL     1      -3.402  -1.587  25.064  0.00  0.00    +0.025 A 
ATOM     21  C   UNL     1      -3.366  -2.400  25.200  0.00  0.00    +0.099 A 
ATOM     22  N   UNL     1      -3.728  -2.923  24.675  0.00  0.00    -0.242 NA
ATOM     23  C   UNL     1      -4.126  -2.633  24.013  0.00  0.00    +0.099 A 
ATOM     24  C   UNL     1      -4.162  -1.821  23.876  0.00  0.00    +0.025 A 
ENDBRANCH  17  19
ENDBRANCH  12  14
BRANCH   9   8
ATOM      8  C   UNL     1      -4.177   3.394  25.743  0.00  0.00    +0.099 C 
BRANCH   8   7
ATOM      4  C   UNL     1      -1.996   4.465  25.269  0.00  0.00    +0.143 A 
ATOM      5  C   UNL     1      -2.101   4.032  25.963  0.00  0.00    +0.024 A 
ATOM      6  C   UNL     1      -2.828   3.675  26.121  0.00  0.00    -0.001 A 
ATOM      7  C   UNL     1      -3.450   3.752  25.585  0.00  0.00    -0.006 A 
ATOM     25  C   UNL     1      -3.345   4.185  24.891  0.00  0.00    -0.001 A 
ATOM     26  C   UNL     1      -2.619   4.541  24.733  0.00  0.00    +0.024 A 
BRANCH   4   2
ATOM      1  O   UNL     1      -0.597   4.356  24.998  0.00  0.00    -0.126 OA
ATOM      2  N   UNL     1      -1.270   4.822  25.111  0.00  0.00    +0.058 N 
ATOM      3  O   UNL     1      -1.214   5.644  25.067  0.00  0.00    -0.126 OA
ENDBRANCH   4   2
ENDBRANCH   8   7
ENDBRANCH   9   8
TORSDOF 5
ENDMDL
MODEL 3
REMARK VINA RESULT:     -11.0      1.859      2.645
REMARK  Name = 
REMARK  5 active torsions:
REMARK  status: ('A' for Active; 'I' for Inactive)
REMARK    1  A    between atoms: N_2  and  C_4
REMARK    2  A    between atoms: C_7  and  C_8
REMARK    3  A    between atoms: C_8  and  N_9
REMARK    4  A    between atoms: C_12  and  C_14
REMARK    5  A    between atoms: C_17  and  C_19
REMARK                            x       y       z     vdW  Elec       q    Type
REMARK                         _______ _______ _______ _____ _____    ______ ____
ROOT
ATOM      9  N   UNL     1      -4.513   0.928  24.980  0.00  0.00    -0.268 NA
ATOM     10  C   UNL     1      -4.769   1.311  24.296  0.00  0.00    +0.073 C 
ATOM     11  C   UNL     1      -4.441   2.068  24.290  0.00  0.00    +0.028 C 
ATOM     12  C   UNL     1      -3.982   2.152  24.971  0.00  0.00    +0.096 C 
ATOM     13  C   UNL     1      -4.027   1.446  25.397  0.00  0.00    +0.082 C 
ENDROOT
BRANCH  12  14
ATOM     14  C   UNL     1      -3.554   2.822  25.187  0.00  0.00    +0.227 A 
ATOM     15  N   UNL     1      -3.793   3.396  25.730  0.00  0.00    -0.111 NA
ATOM     16  N   UNL     1      -3.198   3.966  25.778  0.00  0.00    -0.107 NA
ATOM     17  C   UNL     1      -2.591   3.745  25.264  0.00  0.00    +0.250 A 
ATOM     18  O   UNL     1      -2.811   3.038  24.899  0.00  0.00    -0.419 OA
BRANCH  17  19
ATOM     19  C   UNL     1      -1.887   4.157  25.138  0.00  0.00    +0.058 A 
ATOM     20  C   UNL     1      -1.182   3.744  25.024  0.00  0.00    +0.025 A 
ATOM     21  C   UNL     1      -0.479   4.157  24.897  0.00  0.00    +0.099 A 
ATOM     22  N   UNL     1      -0.481   4.982  24.886  0.00  0.00    -0.242 NA
ATOM     23  C   UNL     1      -1.187   5.394  25.000  0.00  0.00    +0.099 A 
ATOM     24  C   UNL     1      -1.890   4.982  25.126  0.00  0.00    +0.025 A 
ENDBRANCH  17  19
ENDBRANCH  12  14
BRANCH   9   8
ATOM      8  C   UNL     1      -4.709   0.159  25.207  0.00  0.00    +0.099 C 
BRANCH   8   7
ATOM      4  C   UNL     1      -3.217  -1.725  24.615  0.00  0.00    +0.143 A 
ATOM      5  C   UNL     1      -3.780  -1.460  24.074  0.00  0.00    +0.024 A 
ATOM      6  C   UNL     1      -4.278  -0.831  24.271  0.00  0.00    -0.001 A 
ATOM      7  C   UNL     1      -4.211  -0.469  25.009  0.00  0.00    -0.006 A 
ATOM     25  C   UNL     1      -3.648  -0.735  25.550  0.00  0.00    -0.001 A 
ATOM     26  C   UNL     1      -3.151  -1.363  25.353  0.00  0.00    +0.024 A 
BRANCH   4   2
ATOM      1  O   UNL     1      -3.037  -3.103  24.280  0.00  0.00    -0.126 OA
ATOM      2  N   UNL     1      -2.720  -2.353  24.417  0.00  0.00    +0.058 N 
ATOM      3  O   UNL     1      -1.906  -2.233  24.357  0.00  0.00    -0.126 OA
ENDBRANCH   4   2
ENDBRANCH   8   7
ENDBRANCH   9   8
TORSDOF 5
ENDMDL
MODEL 4
REMARK VINA RESULT:     -10.9      1.265      5.412
REMARK  Name = 
REMARK  5 active torsions:
REMARK  status: ('A' for Active; 'I' for Inactive)
REMARK    1  A    between atoms: N_2  and  C_4
REMARK    2  A    between atoms: C_7  and  C_8
REMARK    3  A    between atoms: C_8  and  N_9
REMARK    4  A    between atoms: C_12  and  C_14
REMARK    5  A    between atoms: C_17  and  C_19
REMARK                            x       y       z     vdW  Elec       q    Type
REMARK                         _______ _______ _______ _____ _____    ______ ____
ROOT
ATOM      9  N   UNL     1      -0.218   1.401  25.059  0.00  0.00    -0.268 NA
ATOM     10  C   UNL     1       0.036   1.191  24.303  0.00  0.00    +0.073 C 
ATOM     11  C   UNL     1      -0.310   0.467  24.110  0.00  0.00    +0.028 C 
ATOM     12  C   UNL     1      -0.778   0.231  24.747  0.00  0.00    +0.096 C 
ATOM     13  C   UNL     1      -0.721   0.809  25.333  0.00  0.00    +0.082 C 
ENDROOT
BRANCH  12  14
ATOM     14  C   UNL     1      -1.225  -0.461  24.790  0.00  0.00    +0.227 A 
ATOM     15  N   UNL     1      -0.993  -1.166  25.151  0.00  0.00    -0.111 NA
ATOM     16  N   UNL     1      -1.606  -1.711  25.065  0.00  0.00    -0.107 NA
ATOM     17  C   UNL     1      -2.217  -1.343  24.649  0.00  0.00    +0.250 A 
ATOM     18  O   UNL     1      -1.981  -0.570  24.480  0.00  0.00    -0.419 OA
BRANCH  17  19
ATOM     19  C   UNL     1      -2.938  -1.687  24.441  0.00  0.00    +0.058 A 
ATOM     20  C   UNL     1      -3.025  -2.507  24.466  0.00  0.00    +0.025 A 
ATOM     21  C   UNL     1      -3.746  -2.851  24.257  0.00  0.00    +0.099 A 
ATOM     22  N   UNL     1      -4.378  -2.375  24.023  0.00  0.00    -0.242 NA
ATOM     23  C   UNL     1      -4.289  -1.555  23.998  0.00  0.00    +0.099 A 
ATOM     24  C   UNL     1      -3.569  -1.211  24.206  0.00  0.00    +0.025 A 
ENDBRANCH  17  19
ENDBRANCH  12  14
BRANCH   9   8
ATOM      8  C   UNL     1      -0.006   2.085  25.468  0.00  0.00    +0.099 C 
BRANCH   8   7
ATOM      4  C   UNL     1      -1.401   4.122  25.282  0.00  0.00    +0.143 A 
ATOM      5  C   UNL     1      -0.796   3.986  24.739  0.00  0.00    +0.024 A 
ATOM      6  C   UNL     1      -0.330   3.306  24.801  0.00  0.00    -0.001 A 
ATOM      7  C   UNL     1      -0.472   2.765  25.406  0.00  0.00    -0.006 A 
ATOM     25  C   UNL     1      -1.077   2.901  25.950  0.00  0.00    -0.001 A 
ATOM     26  C   UNL     1      -1.541   3.580  25.888  0.00  0.00    +0.024 A 
BRANCH   4   2
ATOM      1  O   UNL     1      -2.684   4.734  25.138  0.00  0.00    -0.126 OA
ATOM      2  N   UNL     1      -1.865   4.801  25.220  0.00  0.00    +0.058 N 
ATOM      3  O   UNL     1      -1.512   5.546  25.240  0.00  0.00    -0.126 OA
ENDBRANCH   4   2
ENDBRANCH   8   7
ENDBRANCH   9   8
TORSDOF 5
ENDMDL
MODEL 5
REMARK VINA RESULT:     -10.4      2.037      5.150
REMARK  Name = 
REMARK  5 active torsions:
REMARK  status: ('A' for Active; 'I' for Inactive)
REMARK    1  A    between atoms: N_2  and  C_4
REMARK    2  A    between atoms: C_7  and  C_8
REMARK    3  A    between atoms: C_8  and  N_9
REMARK    4  A    between atoms: C_12  and  C_14
REMARK    5  A    between atoms: C_17  and  C_19
REMARK                            x       y       z     vdW  Elec       q    Type
REMARK                         _______ _______ _______ _____ _____    ______ ____
ROOT
ATOM      9  N   UNL     1      -1.891   2.526  24.932  0.00  0.00    -0.268 NA
ATOM     10  C   UNL     1      -1.210   2.546  25.398  0.00  0.00    +0.073 C 
ATOM     11  C   UNL     1      -0.963   1.769  25.522  0.00  0.00    +0.028 C 
ATOM     12  C   UNL     1      -1.492   1.268  25.133  0.00  0.00    +0.096 C 
ATOM     13  C   UNL     1      -2.065   1.737  24.768  0.00  0.00    +0.082 C 
ENDROOT
BRANCH  12  14
ATOM     14  C   UNL     1      -1.454   0.445  25.112  0.00  0.00    +0.227 A 
ATOM     15  N   UNL     1      -0.774  -0.012  25.214  0.00  0.00    -0.111 NA
ATOM     16  N   UNL     1      -0.988  -0.806  25.151  0.00  0.00    -0.107 NA
ATOM     17  C   UNL     1      -1.801  -0.840  25.009  0.00  0.00    +0.250 A 
ATOM     18  O   UNL     1      -2.088  -0.067  24.985  0.00  0.00    -0.419 OA
BRANCH  17  19
ATOM     19  C   UNL     1      -2.248  -1.527  24.908  0.00  0.00    +0.058 A 
ATOM     20  C   UNL     1      -1.939  -2.160  24.478  0.00  0.00    +0.025 A 
ATOM     21  C   UNL     1      -2.386  -2.847  24.378  0.00  0.00    +0.099 A 
ATOM     22  N   UNL     1      -3.140  -2.900  24.707  0.00  0.00    -0.242 NA
ATOM     23  C   UNL     1      -3.448  -2.266  25.137  0.00  0.00    +0.099 A 
ATOM     24  C   UNL     1      -3.002  -1.580  25.237  0.00  0.00    +0.025 A 
ENDBRANCH  17  19
ENDBRANCH  12  14
BRANCH   9   8
ATOM      8  C   UNL     1      -2.321   3.181  24.675  0.00  0.00    +0.099 C 
BRANCH   8   7
ATOM      4  C   UNL     1      -4.645   3.520  25.459  0.00  0.00    +0.143 A 
ATOM      5  C   UNL     1      -4.503   3.141  24.740  0.00  0.00    +0.024 A 
ATOM      6  C   UNL     1      -3.729   3.028  24.478  0.00  0.00    -0.001 A 
ATOM      7  C   UNL     1      -3.096   3.294  24.936  0.00  0.00    -0.006 A 
ATOM     25  C   UNL     1      -3.238   3.672  25.656  0.00  0.00    -0.001 A 
ATOM     26  C   UNL     1      -4.011   3.785  25.917  0.00  0.00    +0.024 A 
BRANCH   4   2
ATOM      1  O   UNL     1      -5.799   4.353  25.585  0.00  0.00    -0.126 OA
ATOM      2  N   UNL     1      -5.419   3.633  25.720  0.00  0.00    +0.058 N 
ATOM      3  O   UNL     1      -5.814   3.026  26.117  0.00  0.00    -0.126 OA
ENDBRANCH   4   2
ENDBRANCH   8   7
ENDBRANCH   9   8
TORSDOF 5
ENDMDL
MODEL 6
REMARK VINA RESULT:     -10.3      2.300      4.537
REMARK  Name = 
REMARK  5 active torsions:
REMARK  status: ('A' for Active; 'I' for Inactive)
REMARK    1  A    between atoms: N_2  and  C_4
REMARK    2  A    between atoms: C_7  and  C_8
REMARK    3  A    between atoms: C_8  and  N_9
REMARK    4  A    between atoms: C_12  and  C_14
REMARK    5  A    between atoms: C_17  and  C_19
REMARK                            x       y       z     vdW  Elec       q    Type
REMARK                         _______ _______ _______ _____ _____    ______ ____
ROOT
ATOM      9  N   UNL     1      -2.731   3.769  24.911  0.00  0.00    -0.268 NA
ATOM     10  C   UNL     1      -2.261   4.168  25.459  0.00  0.00    +0.073 C 
ATOM     11  C   UNL     1      -1.545   3.763  25.521  0.00  0.00    +0.028 C 
ATOM     12  C   UNL     1      -1.573   3.114  25.013  0.00  0.00    +0.096 C 
ATOM     13  C   UNL     1      -2.307   3.118  24.636  0.00  0.00    +0.082 C 
ENDROOT
BRANCH  12  14
ATOM     14  C   UNL     1      -0.974   2.559  24.901  0.00  0.00    +0.227 A 
ATOM     15  N   UNL     1      -0.178   2.658  25.098  0.00  0.00    -0.111 NA
ATOM     16  N   UNL     1       0.224   1.968  24.891  0.00  0.00    -0.107 NA
ATOM     17  C   UNL     1      -0.323   1.443  24.565  0.00  0.00    +0.250 A 
ATOM     18  O   UNL     1      -1.063   1.808  24.571  0.00  0.00    -0.419 OA
BRANCH  17  19
ATOM     19  C   UNL     1      -0.159   0.685  24.283  0.00  0.00    +0.058 A 
ATOM     20  C   UNL     1       0.323   0.587  23.620  0.00  0.00    +0.025 A 
ATOM     21  C   UNL     1       0.487  -0.171  23.338  0.00  0.00    +0.099 A 
ATOM     22  N   UNL     1       0.169  -0.830  23.718  0.00  0.00    -0.242 NA
ATOM     23  C   UNL     1      -0.313  -0.732  24.381  0.00  0.00    +0.099 A 
ATOM     24  C   UNL     1      -0.477   0.025  24.663  0.00  0.00    +0.025 A 
ENDBRANCH  17  19
ENDBRANCH  12  14
BRANCH   9   8
ATOM      8  C   UNL     1      -3.494   3.983  24.680  0.00  0.00    +0.099 C 
BRANCH   8   7
ATOM      4  C   UNL     1      -5.416   2.533  25.255  0.00  0.00    +0.143 A 
ATOM      5  C   UNL     1      -5.026   2.435  24.535  0.00  0.00    +0.024 A 
ATOM      6  C   UNL     1      -4.385   2.918  24.343  0.00  0.00    -0.001 A 
ATOM      7  C   UNL     1      -4.135   3.500  24.872  0.00  0.00    -0.006 A 
ATOM     25  C   UNL     1      -4.525   3.598  25.592  0.00  0.00    -0.001 A 
ATOM     26  C   UNL     1      -5.165   3.115  25.783  0.00  0.00    +0.024 A 
BRANCH   4   2
ATOM      1  O   UNL     1      -6.534   1.741  24.847  0.00  0.00    -0.126 OA
ATOM      2  N   UNL     1      -6.057   2.050  25.446  0.00  0.00    +0.058 N 
ATOM      3  O   UNL     1      -6.221   1.875  26.235  0.00  0.00    -0.126 OA
ENDBRANCH   4   2
ENDBRANCH   8   7
ENDBRANCH   9   8
TORSDOF 5
ENDMDL
MODEL 7
REMARK VINA RESULT:      -8.7     15.776     17.816
REMARK  Name = 
REMARK  5 active torsions:
REMARK  status: ('A' for Active; 'I' for Inactive)
REMARK    1  A    between atoms: N_2  and  C_4
REMARK    2  A    between atoms: C_7  and  C_8
REMARK    3  A    between atoms: C_8  and  N_9
REMARK    4  A    between atoms: C_12  and  C_14
REMARK    5  A    between atoms: C_17  and  C_19
REMARK                            x       y       z     vdW  Elec       q    Type
REMARK                         _______ _______ _______ _____ _____    ______ ____
ROOT
ATOM      9  N   UNL     1      13.809   7.908  18.347  0.00  0.00    -0.268 NA
ATOM     10  C   UNL     1      13.326   7.486  17.828  0.00  0.00    +0.073 C 
ATOM     11  C   UNL     1      12.556   7.508  18.122  0.00  0.00    +0.028 C 
ATOM     12  C   UNL     1      12.562   7.943  18.823  0.00  0.00    +0.096 C 
ATOM     13  C   UNL     1      13.337   8.190  18.962  0.00  0.00    +0.082 C 
ENDROOT
BRANCH  12  14
ATOM     14  C   UNL     1      11.910   8.103  19.301  0.00  0.00    +0.227 A 
ATOM     15  N   UNL     1      11.156   8.313  19.038  0.00  0.00    -0.111 NA
ATOM     16  N   UNL     1      10.676   8.421  19.700  0.00  0.00    -0.107 NA
ATOM     17  C   UNL     1      11.132   8.278  20.372  0.00  0.00    +0.250 A 
ATOM     18  O   UNL     1      11.895   8.081  20.126  0.00  0.00    -0.419 OA
BRANCH  17  19
ATOM     19  C   UNL     1      10.872   8.323  21.154  0.00  0.00    +0.058 A 
ATOM     20  C   UNL     1      10.874   9.048  21.548  0.00  0.00    +0.025 A 
ATOM     21  C   UNL     1      10.614   9.094  22.330  0.00  0.00    +0.099 A 
ATOM     22  N   UNL     1      10.353   8.414  22.718  0.00  0.00    -0.242 NA
ATOM     23  C   UNL     1      10.351   7.689  22.323  0.00  0.00    +0.099 A 
ATOM     24  C   UNL     1      10.611   7.644  21.542  0.00  0.00    +0.025 A 
ENDBRANCH  17  19
ENDBRANCH  12  14
BRANCH   9   8
ATOM      8  C   UNL     1      14.621   8.027  18.266  0.00  0.00    +0.099 C 
BRANCH   8   7
ATOM      4  C   UNL     1      16.199   6.882  19.792  0.00  0.00    +0.143 A 
ATOM      5  C   UNL     1      15.908   6.488  19.128  0.00  0.00    +0.024 A 
ATOM      6  C   UNL     1      15.382   6.870  18.619  0.00  0.00    -0.001 A 
ATOM      7  C   UNL     1      15.147   7.645  18.775  0.00  0.00    -0.006 A 
ATOM     25  C   UNL     1      15.438   8.039  19.439  0.00  0.00    -0.001 A 
ATOM     26  C   UNL     1      15.963   7.657  19.947  0.00  0.00    +0.024 A 
BRANCH   4   2
ATOM      1  O   UNL     1      16.569   6.474  21.110  0.00  0.00    -0.126 OA
ATOM      2  N   UNL     1      16.724   6.500  20.300  0.00  0.00    +0.058 N 
ATOM      3  O   UNL     1      17.405   6.145  19.999  0.00  0.00    -0.126 OA
ENDBRANCH   4   2
ENDBRANCH   8   7
ENDBRANCH   9   8
TORSDOF 5
ENDMDL
MODEL 8
REMARK VINA RESULT:      -7.8     15.789     17.839
REMARK  Name = 
REMARK  5 active torsions:
REMARK  status: ('A' for Active; 'I' for Inactive)
REMARK    1  A    between atoms: N_2  and  C_4
REMARK    2  A    between atoms: C_7  and  C_8
REMARK    3  A    between atoms: C_8  and  N_9
REMARK    4  A    between atoms: C_12  and  C_14
REMARK    5  A    between atoms: C_17  and  C_19
REMARK                            x       y       z     vdW  Elec       q    Type
REMARK                         _______ _______ _______ _____ _____    ______ ____
ROOT
ATOM      9  N   UNL     1      12.316   8.156  18.976  0.00  0.00    -0.268 NA
ATOM     10  C   UNL     1      12.209   7.605  18.371  0.00  0.00    +0.073 C 
ATOM     11  C   UNL     1      12.927   7.215  18.252  0.00  0.00    +0.028 C 
ATOM     12  C   UNL     1      13.476   7.525  18.784  0.00  0.00    +0.096 C 
ATOM     13  C   UNL     1      13.098   8.106  19.231  0.00  0.00    +0.082 C 
ENDROOT
BRANCH  12  14
ATOM     14  C   UNL     1      14.265   7.294  18.857  0.00  0.00    +0.227 A 
ATOM     15  N   UNL     1      14.795   7.177  18.235  0.00  0.00    -0.111 NA
ATOM     16  N   UNL     1      15.520   6.951  18.557  0.00  0.00    -0.107 NA
ATOM     17  C   UNL     1      15.438   6.927  19.378  0.00  0.00    +0.250 A 
ATOM     18  O   UNL     1      14.662   7.140  19.563  0.00  0.00    -0.419 OA
BRANCH  17  19
ATOM     19  C   UNL     1      16.028   6.727  19.919  0.00  0.00    +0.058 A 
ATOM     20  C   UNL     1      16.813   6.669  19.670  0.00  0.00    +0.025 A 
ATOM     21  C   UNL     1      17.403   6.469  20.211  0.00  0.00    +0.099 A 
ATOM     22  N   UNL     1      17.208   6.327  21.000  0.00  0.00    -0.242 NA
ATOM     23  C   UNL     1      16.423   6.385  21.248  0.00  0.00    +0.099 A 
ATOM     24  C   UNL     1      15.834   6.585  20.708  0.00  0.00    +0.025 A 
ENDBRANCH  17  19
ENDBRANCH  12  14
BRANCH   9   8
ATOM      8  C   UNL     1      11.740   8.666  19.273  0.00  0.00    +0.099 C 
BRANCH   8   7
ATOM      4  C   UNL     1      10.925   8.395  21.595  0.00  0.00    +0.143 A 
ATOM      5  C   UNL     1      11.464   8.993  21.414  0.00  0.00    +0.024 A 
ATOM      6  C   UNL     1      11.736   9.084  20.640  0.00  0.00    -0.001 A 
ATOM      7  C   UNL     1      11.468   8.576  20.047  0.00  0.00    -0.006 A 
ATOM     25  C   UNL     1      10.929   7.978  20.228  0.00  0.00    -0.001 A 
ATOM     26  C   UNL     1      10.658   7.888  21.001  0.00  0.00    +0.024 A 
BRANCH   4   2
ATOM      1  O   UNL     1      11.021   8.714  22.985  0.00  0.00    -0.126 OA
ATOM      2  N   UNL     1      10.653   8.305  22.368  0.00  0.00    +0.058 N 
ATOM      3  O   UNL     1      10.014   7.808  22.526  0.00  0.00    -0.126 OA
ENDBRANCH   4   2
ENDBRANCH   8   7
ENDBRANCH   9   8
TORSDOF 5
ENDMDL
MODEL 9
REMARK VINA RESULT:      -7.5     15.836     17.832
REMARK  Name = 
REMARK  5 active torsions:
REMARK  status: ('A' for Active; 'I' for Inactive)
REMARK    1  A    between atoms: N_2  and  C_4
REMARK    2  A    between atoms: C_7  and  C_8
REMARK    3  A    between atoms: C_8  and  N_9
REMARK    4  A    between atoms: C_12  and  C_14
REMARK    5  A    between atoms: C_17  and  C_19
REMARK                            x       y       z     vdW  Elec       q    Type
REMARK                         _______ _______ _______ _____ _____    ______ ____
ROOT
ATOM      9  N   UNL     1      14.773   7.629  19.245  0.00  0.00    -0.268 NA
ATOM     10  C   UNL     1      14.928   6.856  19.487  0.00  0.00    +0.073 C 
ATOM     11  C   UNL     1      14.496   6.713  20.176  0.00  0.00    +0.028 C 
ATOM     12  C   UNL     1      14.075   7.399  20.359  0.00  0.00    +0.096 C 
ATOM     13  C   UNL     1      14.246   7.965  19.783  0.00  0.00    +0.082 C 
ENDROOT
BRANCH  12  14
ATOM     14  C   UNL     1      13.571   7.501  21.004  0.00  0.00    +0.227 A 
ATOM     15  N   UNL     1      13.798   7.532  21.797  0.00  0.00    -0.111 NA
ATOM     16  N   UNL     1      13.120   7.640  22.253  0.00  0.00    -0.107 NA
ATOM     17  C   UNL     1      12.472   7.676  21.742  0.00  0.00    +0.250 A 
ATOM     18  O   UNL     1      12.751   7.590  20.970  0.00  0.00    -0.419 OA
BRANCH  17  19
ATOM     19  C   UNL     1      11.684   7.780  21.964  0.00  0.00    +0.058 A 
ATOM     20  C   UNL     1      11.444   8.488  22.312  0.00  0.00    +0.025 A 
ATOM     21  C   UNL     1      10.656   8.592  22.534  0.00  0.00    +0.099 A 
ATOM     22  N   UNL     1      10.108   7.988  22.407  0.00  0.00    -0.242 NA
ATOM     23  C   UNL     1      10.349   7.280  22.059  0.00  0.00    +0.099 A 
ATOM     24  C   UNL     1      11.137   7.176  21.837  0.00  0.00    +0.025 A 
ENDBRANCH  17  19
ENDBRANCH  12  14
BRANCH   9   8
ATOM      8  C   UNL     1      15.090   8.001  18.581  0.00  0.00    +0.099 C 
BRANCH   8   7
ATOM      4  C   UNL     1      13.644   8.504  16.635  0.00  0.00    +0.143 A 
ATOM      5  C   UNL     1      13.956   7.746  16.733  0.00  0.00    +0.024 A 
ATOM      6  C   UNL     1      14.438   7.578  17.381  0.00  0.00    -0.001 A 
ATOM      7  C   UNL     1      14.607   8.169  17.932  0.00  0.00    -0.006 A 
ATOM     25  C   UNL     1      14.295   8.926  17.834  0.00  0.00    -0.001 A 
ATOM     26  C   UNL     1      13.814   9.093  17.187  0.00  0.00    +0.024 A 
BRANCH   4   2
ATOM      1  O   UNL     1      13.493   8.737  15.233  0.00  0.00    -0.126 OA
ATOM      2  N   UNL     1      13.162   8.671  15.987  0.00  0.00    +0.058 N 
ATOM      3  O   UNL     1      12.350   8.771  16.091  0.00  0.00    -0.126 OA
ENDBRANCH   4   2
ENDBRANCH   8   7
ENDBRANCH   9   8
TORSDOF 5
ENDMDL
MODEL 10
REMARK VINA RESULT:      -7.5     16.539     18.362
REMARK  Name = 
REMARK  5 active torsions:
REMARK  status: ('A' for Active; 'I' for Inactive)
REMARK    1  A    between atoms: N_2  and  C_4
REMARK    2  A    between atoms: C_7  and  C_8
REMARK    3  A    between atoms: C_8  and  N_9
REMARK    4  A    between atoms: C_12  and  C_14
REMARK    5  A    between atoms: C_17  and  C_19
REMARK                            x       y       z     vdW  Elec       q    Type
REMARK                         _______ _______ _______ _____ _____    ______ ____
ROOT
ATOM      9  N   UNL     1      12.202   8.150  19.760  0.00  0.00    -0.268 NA
ATOM     10  C   UNL     1      11.906   7.529  20.214  0.00  0.00    +0.073 C 
ATOM     11  C   UNL     1      12.548   7.111  20.523  0.00  0.00    +0.028 C 
ATOM     12  C   UNL     1      13.239   7.475  20.258  0.00  0.00    +0.096 C 
ATOM     13  C   UNL     1      13.025   8.118  19.787  0.00  0.00    +0.082 C 
ENDROOT
BRANCH  12  14
ATOM     14  C   UNL     1      14.010   7.239  20.434  0.00  0.00    +0.227 A 
ATOM     15  N   UNL     1      14.341   7.189  21.188  0.00  0.00    -0.111 NA
ATOM     16  N   UNL     1      15.120   6.930  21.108  0.00  0.00    -0.107 NA
ATOM     17  C   UNL     1      15.271   6.820  20.304  0.00  0.00    +0.250 A 
ATOM     18  O   UNL     1      14.584   7.011  19.888  0.00  0.00    -0.419 OA
BRANCH  17  19
ATOM     19  C   UNL     1      15.982   6.564  19.974  0.00  0.00    +0.058 A 
ATOM     20  C   UNL     1      16.684   6.636  20.401  0.00  0.00    +0.025 A 
ATOM     21  C   UNL     1      17.396   6.379  20.071  0.00  0.00    +0.099 A 
ATOM     22  N   UNL     1      17.405   6.052  19.314  0.00  0.00    -0.242 NA
ATOM     23  C   UNL     1      16.703   5.980  18.887  0.00  0.00    +0.099 A 
ATOM     24  C   UNL     1      15.992   6.236  19.217  0.00  0.00    +0.025 A 
ENDBRANCH  17  19
ENDBRANCH  12  14
BRANCH   9   8
ATOM      8  C   UNL     1      11.752   8.708  19.350  0.00  0.00    +0.099 C 
BRANCH   8   7
ATOM      4  C   UNL     1      11.774   8.738  16.875  0.00  0.00    +0.143 A 
ATOM      5  C   UNL     1      12.387   9.094  17.297  0.00  0.00    +0.024 A 
ATOM      6  C   UNL     1      12.380   9.084  18.122  0.00  0.00    -0.001 A 
ATOM      7  C   UNL     1      11.759   8.718  18.525  0.00  0.00    -0.006 A 
ATOM     25  C   UNL     1      11.146   8.362  18.102  0.00  0.00    -0.001 A 
ATOM     26  C   UNL     1      11.154   8.372  17.278  0.00  0.00    +0.024 A 
BRANCH   4   2
ATOM      1  O   UNL     1      11.070   8.723  15.631  0.00  0.00    -0.126 OA
ATOM      2  N   UNL     1      11.781   8.748  16.050  0.00  0.00    +0.058 N 
ATOM      3  O   UNL     1      12.498   8.783  15.644  0.00  0.00    -0.126 OA
ENDBRANCH   4   2
ENDBRANCH   8   7
ENDBRANCH   9   8
TORSDOF 5
ENDMDL
