MODEL 1
REMARK VINA RESULT:      -9.6      0.000      0.000
REMARK  Name = 
REMARK  8 active torsions:
REMARK  status: ('A' for Active; 'I' for Inactive)
REMARK    1  A    between atoms: O_2  and  C_3
REMARK    2  A    between atoms: C_6  and  C_7
REMARK    3  A    between atoms: C_7  and  N_8
REMARK    4  A    between atoms: C_9  and  C_11
REMARK    5  A    between atoms: C_11  and  C_12
REMARK    6  A    between atoms: C_12  and  C_13
REMARK    7  A    between atoms: N_22  and  C_23
REMARK    8  A    between atoms: C_23  and  C_24
REMARK                            x       y       z     vdW  Elec       q    Type
REMARK                         _______ _______ _______ _____ _____    ______ ____
ROOT
ATOM     13  C   UNL     1      -1.037   0.742  23.737  0.00  0.00    +0.080 C 
ATOM     14  C   UNL     1      -1.087   1.409  23.256  0.00  0.00    +0.131 C 
ATOM     15  N   UNL     1      -1.714   1.941  23.176  0.00  0.00    -0.203 NA
ATOM     16  C   UNL     1      -2.445   1.935  23.558  0.00  0.00    +0.257 C 
ATOM     17  O   UNL     1      -2.959   2.548  23.358  0.00  0.00    -0.272 OA
ATOM     18  C   UNL     1      -2.729   1.396  24.115  0.00  0.00    +0.151 C 
ATOM     19  C   UNL     1      -2.354   0.731  24.427  0.00  0.00    +0.083 C 
ATOM     20  C   UNL     1      -2.869   0.375  24.964  0.00  0.00    +0.035 C 
ATOM     21  C   UNL     1      -3.563   0.821  24.984  0.00  0.00    +0.074 C 
ATOM     22  N   UNL     1      -3.477   1.452  24.459  0.00  0.00    -0.262 NA
ATOM     31  N   UNL     1      -1.601   0.440  24.259  0.00  0.00    -0.271 NA
ATOM     32  C   UNL     1      -1.383  -0.244  24.666  0.00  0.00    +0.090 C 
ENDROOT
BRANCH  13  12
ATOM     12  C   UNL     1      -0.329   0.320  23.692  0.00  0.00    +0.027 C 
BRANCH  12  11
ATOM     11  C   UNL     1       0.329   0.657  23.326  0.00  0.00    +0.088 C 
BRANCH  11   9
ATOM      8  N   UNL     1       1.702   0.405  23.019  0.00  0.00    -0.201 NA
ATOM      9  C   UNL     1       0.910   0.172  22.997  0.00  0.00    +0.242 C 
ATOM     10  O   UNL     1       0.700  -0.544  22.646  0.00  0.00    -0.273 OA
BRANCH   8   7
ATOM      7  C   UNL     1       2.283  -0.079  22.691  0.00  0.00    +0.141 C 
BRANCH   7   6
ATOM      3  C   UNL     1       4.672   0.361  23.166  0.00  0.00    +0.139 A 
ATOM      4  C   UNL     1       4.337  -0.365  23.371  0.00  0.00    +0.037 A 
ATOM      5  C   UNL     1       3.542  -0.511  23.213  0.00  0.00    +0.001 A 
ATOM      6  C   UNL     1       3.080   0.067  22.849  0.00  0.00    -0.000 A 
ATOM     33  C   UNL     1       3.414   0.793  22.644  0.00  0.00    +0.001 A 
ATOM     34  C   UNL     1       4.211   0.940  22.802  0.00  0.00    +0.037 A 
BRANCH   3   2
ATOM      1  C   UNL     1       5.853   0.096  23.927  0.00  0.00    +0.252 C 
ATOM      2  O   UNL     1       5.468   0.508  23.324  0.00  0.00    -0.471 OA
ENDBRANCH   3   2
ENDBRANCH   7   6
ENDBRANCH   8   7
ENDBRANCH  11   9
ENDBRANCH  12  11
ENDBRANCH  13  12
BRANCH  22  23
ATOM     23  C   UNL     1      -4.040   2.036  24.306  0.00  0.00    +0.100 C 
BRANCH  23  24
ATOM     24  C   UNL     1      -4.642   2.182  24.851  0.00  0.00    -0.006 A 
ATOM     25  C   UNL     1      -5.330   1.727  24.838  0.00  0.00    +0.000 A 
ATOM     26  C   UNL     1      -5.932   1.873  25.383  0.00  0.00    +0.042 A 
ATOM     27  C   UNL     1      -5.846   2.474  25.940  0.00  0.00    +0.196 A 
ATOM     28  O   UNL     1      -6.447   2.621  26.485  0.00  0.00    -0.287 OA
ATOM     29  C   UNL     1      -5.157   2.930  25.954  0.00  0.00    +0.042 A 
ATOM     30  C   UNL     1      -4.556   2.783  25.409  0.00  0.00    +0.000 A 
ENDBRANCH  23  24
ENDBRANCH  22  23
TORSDOF 8
ENDMDL
MODEL 2
REMARK VINA RESULT:      -7.4      3.185      6.080
REMARK  Name = 
REMARK  8 active torsions:
REMARK  status: ('A' for Active; 'I' for Inactive)
REMARK    1  A    between atoms: O_2  and  C_3
REMARK    2  A    between atoms: C_6  and  C_7
REMARK    3  A    between atoms: C_7  and  N_8
REMARK    4  A    between atoms: C_9  and  C_11
REMARK    5  A    between atoms: C_11  and  C_12
REMARK    6  A    between atoms: C_12  and  C_13
REMARK    7  A    between atoms: N_22  and  C_23
REMARK    8  A    between atoms: C_23  and  C_24
REMARK                            x       y       z     vdW  Elec       q    Type
REMARK                         _______ _______ _______ _____ _____    ______ ____
ROOT
ATOM     13  C   UNL     1      -0.473   1.807  25.050  0.00  0.00    +0.080 C 
ATOM     14  C   UNL     1      -0.442   1.585  25.843  0.00  0.00    +0.131 C 
ATOM     15  N   UNL     1      -0.631   0.856  26.181  0.00  0.00    -0.203 NA
ATOM     16  C   UNL     1      -0.898   0.170  25.808  0.00  0.00    +0.257 C 
ATOM     17  O   UNL     1      -1.040  -0.475  26.303  0.00  0.00    -0.272 OA
ATOM     18  C   UNL     1      -1.041   0.044  25.005  0.00  0.00    +0.151 C 
ATOM     19  C   UNL     1      -0.953   0.571  24.377  0.00  0.00    +0.083 C 
ATOM     20  C   UNL     1      -1.167   0.180  23.683  0.00  0.00    +0.035 C 
ATOM     21  C   UNL     1      -1.387  -0.590  23.882  0.00  0.00    +0.074 C 
ATOM     22  N   UNL     1      -1.309  -0.675  24.700  0.00  0.00    -0.262 NA
ATOM     31  N   UNL     1      -0.700   1.356  24.397  0.00  0.00    -0.271 NA
ATOM     32  C   UNL     1      -0.671   1.741  23.668  0.00  0.00    +0.090 C 
ENDROOT
BRANCH  13  12
ATOM     12  C   UNL     1      -0.246   2.584  24.886  0.00  0.00    +0.027 C 
BRANCH  12  11
ATOM     11  C   UNL     1      -0.366   3.175  25.449  0.00  0.00    +0.088 C 
BRANCH  11   9
ATOM      8  N   UNL     1      -1.695   3.693  25.527  0.00  0.00    -0.201 NA
ATOM      9  C   UNL     1      -0.906   3.781  25.301  0.00  0.00    +0.242 C 
ATOM     10  O   UNL     1      -0.658   4.473  24.928  0.00  0.00    -0.273 OA
BRANCH   8   7
ATOM      7  C   UNL     1      -2.235   4.299  25.379  0.00  0.00    +0.141 C 
BRANCH   7   6
ATOM      3  C   UNL     1      -4.665   3.827  25.431  0.00  0.00    +0.139 A 
ATOM      4  C   UNL     1      -4.271   3.882  24.708  0.00  0.00    +0.037 A 
ATOM      5  C   UNL     1      -3.461   4.039  24.691  0.00  0.00    +0.001 A 
ATOM      6  C   UNL     1      -3.046   4.141  25.396  0.00  0.00    -0.000 A 
ATOM     33  C   UNL     1      -3.439   4.087  26.119  0.00  0.00    +0.001 A 
ATOM     34  C   UNL     1      -4.250   3.929  26.136  0.00  0.00    +0.037 A 
BRANCH   3   2
ATOM      1  C   UNL     1      -5.744   2.905  25.602  0.00  0.00    +0.252 C 
ATOM      2  O   UNL     1      -5.474   3.670  25.449  0.00  0.00    -0.471 OA
ENDBRANCH   3   2
ENDBRANCH   7   6
ENDBRANCH   8   7
ENDBRANCH  11   9
ENDBRANCH  12  11
ENDBRANCH  13  12
BRANCH  22  23
ATOM     23  C   UNL     1      -1.471  -1.357  25.134  0.00  0.00    +0.100 C 
BRANCH  23  24
ATOM     24  C   UNL     1      -2.086  -1.856  24.904  0.00  0.00    -0.006 A 
ATOM     25  C   UNL     1      -2.860  -1.691  25.137  0.00  0.00    +0.000 A 
ATOM     26  C   UNL     1      -3.476  -2.191  24.907  0.00  0.00    +0.042 A 
ATOM     27  C   UNL     1      -3.316  -2.854  24.445  0.00  0.00    +0.196 A 
ATOM     28  O   UNL     1      -3.931  -3.355  24.215  0.00  0.00    -0.287 OA
ATOM     29  C   UNL     1      -2.542  -3.020  24.212  0.00  0.00    +0.042 A 
ATOM     30  C   UNL     1      -1.928  -2.520  24.442  0.00  0.00    +0.000 A 
ENDBRANCH  23  24
ENDBRANCH  22  23
TORSDOF 8
ENDMDL
MODEL 3
REMARK VINA RESULT:      -7.1      1.062      7.442
REMARK  Name = 
REMARK  8 active torsions:
REMARK  status: ('A' for Active; 'I' for Inactive)
REMARK    1  A    between atoms: O_2  and  C_3
REMARK    2  A    between atoms: C_6  and  C_7
REMARK    3  A    between atoms: C_7  and  N_8
REMARK    4  A    between atoms: C_9  and  C_11
REMARK    5  A    between atoms: C_11  and  C_12
REMARK    6  A    between atoms: C_12  and  C_13
REMARK    7  A    between atoms: N_22  and  C_23
REMARK    8  A    between atoms: C_23  and  C_24
REMARK                            x       y       z     vdW  Elec       q    Type
REMARK                         _______ _______ _______ _____ _____    ______ ____
ROOT
ATOM     13  C   UNL     1      -0.816   0.298  24.145  0.00  0.00    +0.080 C 
ATOM     14  C   UNL     1      -0.813  -0.387  23.687  0.00  0.00    +0.131 C 
ATOM     15  N   UNL     1      -0.208  -0.683  23.208  0.00  0.00    -0.203 NA
ATOM     16  C   UNL     1       0.541  -0.365  23.070  0.00  0.00    +0.257 C 
ATOM     17  O   UNL     1       1.024  -0.795  22.559  0.00  0.00    -0.272 OA
ATOM     18  C   UNL     1       0.870   0.326  23.377  0.00  0.00    +0.151 C 
ATOM     19  C   UNL     1       0.533   0.871  23.897  0.00  0.00    +0.083 C 
ATOM     20  C   UNL     1       1.086   1.467  24.036  0.00  0.00    +0.035 C 
ATOM     21  C   UNL     1       1.765   1.291  23.603  0.00  0.00    +0.074 C 
ATOM     22  N   UNL     1       1.632   0.586  23.195  0.00  0.00    -0.262 NA
ATOM     31  N   UNL     1      -0.217   0.858  24.239  0.00  0.00    -0.271 NA
ATOM     32  C   UNL     1      -0.393   1.489  24.741  0.00  0.00    +0.090 C 
ENDROOT
BRANCH  13  12
ATOM     12  C   UNL     1      -1.512   0.444  24.566  0.00  0.00    +0.027 C 
BRANCH  12  11
ATOM     11  C   UNL     1      -2.233   0.168  24.277  0.00  0.00    +0.088 C 
BRANCH  11   9
ATOM      8  N   UNL     1      -3.452   0.780  24.704  0.00  0.00    -0.201 NA
ATOM      9  C   UNL     1      -2.899   0.169  24.764  0.00  0.00    +0.242 C 
ATOM     10  O   UNL     1      -3.013  -0.438  25.310  0.00  0.00    -0.273 OA
BRANCH   8   7
ATOM      7  C   UNL     1      -4.118   0.781  25.191  0.00  0.00    +0.141 C 
BRANCH   7   6
ATOM      3  C   UNL     1      -5.509   2.821  25.375  0.00  0.00    +0.139 A 
ATOM      4  C   UNL     1      -4.695   2.864  25.501  0.00  0.00    +0.037 A 
ATOM      5  C   UNL     1      -4.231   2.185  25.440  0.00  0.00    +0.001 A 
ATOM      6  C   UNL     1      -4.582   1.462  25.253  0.00  0.00    -0.000 A 
ATOM     33  C   UNL     1      -5.396   1.418  25.126  0.00  0.00    +0.001 A 
ATOM     34  C   UNL     1      -5.860   2.098  25.188  0.00  0.00    +0.037 A 
BRANCH   3   2
ATOM      1  C   UNL     1      -5.617   4.244  25.443  0.00  0.00    +0.252 C 
ATOM      2  O   UNL     1      -5.973   3.500  25.437  0.00  0.00    -0.471 OA
ENDBRANCH   3   2
ENDBRANCH   7   6
ENDBRANCH   8   7
ENDBRANCH  11   9
ENDBRANCH  12  11
ENDBRANCH  13  12
BRANCH  22  23
ATOM     23  C   UNL     1       2.167   0.207  22.693  0.00  0.00    +0.100 C 
BRANCH  23  24
ATOM     24  C   UNL     1       2.978   0.279  22.825  0.00  0.00    -0.006 A 
ATOM     25  C   UNL     1       3.386  -0.319  23.221  0.00  0.00    +0.000 A 
ATOM     26  C   UNL     1       4.197  -0.247  23.353  0.00  0.00    +0.042 A 
ATOM     27  C   UNL     1       4.600   0.422  23.088  0.00  0.00    +0.196 A 
ATOM     28  O   UNL     1       5.411   0.494  23.220  0.00  0.00    -0.287 OA
ATOM     29  C   UNL     1       4.192   1.020  22.692  0.00  0.00    +0.042 A 
ATOM     30  C   UNL     1       3.381   0.948  22.561  0.00  0.00    +0.000 A 
ENDBRANCH  23  24
ENDBRANCH  22  23
TORSDOF 8
ENDMDL
MODEL 4
REMARK VINA RESULT:      -7.0     15.013     16.769
REMARK  Name = 
REMARK  8 active torsions:
REMARK  status: ('A' for Active; 'I' for Inactive)
REMARK    1  A    between atoms: O_2  and  C_3
REMARK    2  A    between atoms: C_6  and  C_7
REMARK    3  A    between atoms: C_7  and  N_8
REMARK    4  A    between atoms: C_9  and  C_11
REMARK    5  A    between atoms: C_11  and  C_12
REMARK    6  A    between atoms: C_12  and  C_13
REMARK    7  A    between atoms: N_22  and  C_23
REMARK    8  A    between atoms: C_23  and  C_24
REMARK                            x       y       z     vdW  Elec       q    Type
REMARK                         _______ _______ _______ _____ _____    ______ ____
ROOT
ATOM     13  C   UNL     1      -4.247 -10.684  14.699  0.00  0.00    +0.080 C 
ATOM     14  C   UNL     1      -3.424 -10.648  14.668  0.00  0.00    +0.131 C 
ATOM     15  N   UNL     1      -2.937 -10.554  14.008  0.00  0.00    -0.203 NA
ATOM     16  C   UNL     1      -3.154 -10.474  13.216  0.00  0.00    +0.257 C 
ATOM     17  O   UNL     1      -2.533 -10.389  12.681  0.00  0.00    -0.272 OA
ATOM     18  C   UNL     1      -3.912 -10.467  12.889  0.00  0.00    +0.151 C 
ATOM     19  C   UNL     1      -4.639 -10.539  13.272  0.00  0.00    +0.083 C 
ATOM     20  C   UNL     1      -5.233 -10.499  12.701  0.00  0.00    +0.035 C 
ATOM     21  C   UNL     1      -4.874 -10.402  11.966  0.00  0.00    +0.074 C 
ATOM     22  N   UNL     1      -4.057 -10.382  12.081  0.00  0.00    -0.262 NA
ATOM     31  N   UNL     1      -4.788 -10.636  14.077  0.00  0.00    -0.271 NA
ATOM     32  C   UNL     1      -5.584 -10.691  14.290  0.00  0.00    +0.090 C 
ENDROOT
BRANCH  13  12
ATOM     12  C   UNL     1      -4.574 -10.781  15.451  0.00  0.00    +0.027 C 
BRANCH  12  11
ATOM     11  C   UNL     1      -4.380 -10.255  16.055  0.00  0.00    +0.088 C 
BRANCH  11   9
ATOM      8  N   UNL     1      -5.194 -10.424  17.218  0.00  0.00    -0.201 NA
ATOM      9  C   UNL     1      -4.460 -10.485  16.843  0.00  0.00    +0.242 C 
ATOM     10  O   UNL     1      -3.809 -10.776  17.257  0.00  0.00    -0.273 OA
BRANCH   8   7
ATOM      7  C   UNL     1      -5.274 -10.655  18.005  0.00  0.00    +0.141 C 
BRANCH   7   6
ATOM      3  C   UNL     1      -7.518 -10.722  19.050  0.00  0.00    +0.139 A 
ATOM      4  C   UNL     1      -6.842 -10.781  19.519  0.00  0.00    +0.037 A 
ATOM      5  C   UNL     1      -6.094 -10.759  19.172  0.00  0.00    +0.001 A 
ATOM      6  C   UNL     1      -6.022 -10.677  18.354  0.00  0.00    -0.000 A 
ATOM     33  C   UNL     1      -6.698 -10.618  17.884  0.00  0.00    +0.001 A 
ATOM     34  C   UNL     1      -7.446 -10.641  18.232  0.00  0.00    +0.037 A 
BRANCH   3   2
ATOM      1  C   UNL     1      -8.921 -10.458  18.987  0.00  0.00    +0.252 C 
ATOM      2  O   UNL     1      -8.265 -10.745  19.398  0.00  0.00    -0.471 OA
ENDBRANCH   3   2
ENDBRANCH   7   6
ENDBRANCH   8   7
ENDBRANCH  11   9
ENDBRANCH  12  11
ENDBRANCH  13  12
BRANCH  22  23
ATOM     23  C   UNL     1      -3.486 -10.293  11.492  0.00  0.00    +0.100 C 
BRANCH  23  24
ATOM     24  C   UNL     1      -3.713 -10.103  10.722  0.00  0.00    -0.006 A 
ATOM     25  C   UNL     1      -3.980 -10.694  10.213  0.00  0.00    +0.000 A 
ATOM     26  C   UNL     1      -4.207 -10.504   9.443  0.00  0.00    +0.042 A 
ATOM     27  C   UNL     1      -4.166  -9.722   9.183  0.00  0.00    +0.196 A 
ATOM     28  O   UNL     1      -4.393  -9.531   8.413  0.00  0.00    -0.287 OA
ATOM     29  C   UNL     1      -3.899  -9.130   9.692  0.00  0.00    +0.042 A 
ATOM     30  C   UNL     1      -3.672  -9.322  10.462  0.00  0.00    +0.000 A 
ENDBRANCH  23  24
ENDBRANCH  22  23
TORSDOF 8
ENDMDL
MODEL 5
REMARK VINA RESULT:      -6.5      2.561      4.115
REMARK  Name = 
REMARK  8 active torsions:
REMARK  status: ('A' for Active; 'I' for Inactive)
REMARK    1  A    between atoms: O_2  and  C_3
REMARK    2  A    between atoms: C_6  and  C_7
REMARK    3  A    between atoms: C_7  and  N_8
REMARK    4  A    between atoms: C_9  and  C_11
REMARK    5  A    between atoms: C_11  and  C_12
REMARK    6  A    between atoms: C_12  and  C_13
REMARK    7  A    between atoms: N_22  and  C_23
REMARK    8  A    between atoms: C_23  and  C_24
REMARK                            x       y       z     vdW  Elec       q    Type
REMARK                         _______ _______ _______ _____ _____    ______ ____
ROOT
ATOM     13  C   UNL     1      -0.846   1.698  24.220  0.00  0.00    +0.080 C 
ATOM     14  C   UNL     1      -0.594   1.983  24.951  0.00  0.00    +0.131 C 
ATOM     15  N   UNL     1      -0.978   2.510  25.458  0.00  0.00    -0.203 NA
ATOM     16  C   UNL     1      -1.709   2.880  25.358  0.00  0.00    +0.257 C 
ATOM     17  O   UNL     1      -1.944   3.381  25.970  0.00  0.00    -0.272 OA
ATOM     18  C   UNL     1      -2.235   2.815  24.726  0.00  0.00    +0.151 C 
ATOM     19  C   UNL     1      -2.162   2.365  24.039  0.00  0.00    +0.083 C 
ATOM     20  C   UNL     1      -2.836   2.489  23.579  0.00  0.00    +0.035 C 
ATOM     21  C   UNL     1      -3.326   3.016  23.982  0.00  0.00    +0.074 C 
ATOM     22  N   UNL     1      -2.955   3.218  24.691  0.00  0.00    -0.262 NA
ATOM     31  N   UNL     1      -1.544   1.868  23.813  0.00  0.00    -0.271 NA
ATOM     32  C   UNL     1      -1.636   1.490  23.085  0.00  0.00    +0.090 C 
ENDROOT
BRANCH  13  12
ATOM     12  C   UNL     1      -0.332   1.173  23.844  0.00  0.00    +0.027 C 
BRANCH  12  11
ATOM     11  C   UNL     1       0.108   0.636  24.291  0.00  0.00    +0.088 C 
BRANCH  11   9
ATOM      8  N   UNL     1      -0.490  -0.627  24.587  0.00  0.00    -0.201 NA
ATOM      9  C   UNL     1       0.040  -0.173  24.146  0.00  0.00    +0.242 C 
ATOM     10  O   UNL     1       0.500  -0.528  23.561  0.00  0.00    -0.273 OA
BRANCH   8   7
ATOM      7  C   UNL     1      -0.558  -1.436  24.441  0.00  0.00    +0.141 C 
BRANCH   7   6
ATOM      3  C   UNL     1      -2.736  -2.570  24.758  0.00  0.00    +0.139 A 
ATOM      4  C   UNL     1      -2.532  -1.928  25.234  0.00  0.00    +0.037 A 
ATOM      5  C   UNL     1      -1.807  -1.550  25.129  0.00  0.00    +0.001 A 
ATOM      6  C   UNL     1      -1.285  -1.814  24.547  0.00  0.00    -0.000 A 
ATOM     33  C   UNL     1      -1.488  -2.456  24.070  0.00  0.00    +0.001 A 
ATOM     34  C   UNL     1      -2.215  -2.834  24.176  0.00  0.00    +0.037 A 
BRANCH   3   2
ATOM      1  C   UNL     1      -4.050  -2.880  24.288  0.00  0.00    +0.252 C 
ATOM      2  O   UNL     1      -3.462  -2.948  24.863  0.00  0.00    -0.471 OA
ENDBRANCH   3   2
ENDBRANCH   7   6
ENDBRANCH   8   7
ENDBRANCH  11   9
ENDBRANCH  12  11
ENDBRANCH  13  12
BRANCH  22  23
ATOM     23  C   UNL     1      -3.251   3.732  25.264  0.00  0.00    +0.100 C 
BRANCH  23  24
ATOM     24  C   UNL     1      -4.064   3.777  25.398  0.00  0.00    -0.006 A 
ATOM     25  C   UNL     1      -4.452   3.163  25.790  0.00  0.00    +0.000 A 
ATOM     26  C   UNL     1      -5.265   3.208  25.924  0.00  0.00    +0.042 A 
ATOM     27  C   UNL     1      -5.689   3.866  25.666  0.00  0.00    +0.196 A 
ATOM     28  O   UNL     1      -6.502   3.911  25.800  0.00  0.00    -0.287 OA
ATOM     29  C   UNL     1      -5.302   4.480  25.274  0.00  0.00    +0.042 A 
ATOM     30  C   UNL     1      -4.489   4.435  25.141  0.00  0.00    +0.000 A 
ENDBRANCH  23  24
ENDBRANCH  22  23
TORSDOF 8
ENDMDL
MODEL 6
REMARK VINA RESULT:      -6.2     14.339     16.537
REMARK  Name = 
REMARK  8 active torsions:
REMARK  status: ('A' for Active; 'I' for Inactive)
REMARK    1  A    between atoms: O_2  and  C_3
REMARK    2  A    between atoms: C_6  and  C_7
REMARK    3  A    between atoms: C_7  and  N_8
REMARK    4  A    between atoms: C_9  and  C_11
REMARK    5  A    between atoms: C_11  and  C_12
REMARK    6  A    between atoms: C_12  and  C_13
REMARK    7  A    between atoms: N_22  and  C_23
REMARK    8  A    between atoms: C_23  and  C_24
REMARK                            x       y       z     vdW  Elec       q    Type
REMARK                         _______ _______ _______ _____ _____    ______ ____
ROOT
ATOM     13  C   UNL     1      -5.008 -10.651  15.628  0.00  0.00    +0.080 C 
ATOM     14  C   UNL     1      -4.358 -10.694  16.132  0.00  0.00    +0.131 C 
ATOM     15  N   UNL     1      -3.556 -10.730  15.937  0.00  0.00    -0.203 NA
ATOM     16  C   UNL     1      -3.209 -10.732  15.188  0.00  0.00    +0.257 C 
ATOM     17  O   UNL     1      -2.386 -10.773  15.175  0.00  0.00    -0.272 OA
ATOM     18  C   UNL     1      -3.578 -10.699  14.451  0.00  0.00    +0.151 C 
ATOM     19  C   UNL     1      -4.384 -10.655  14.279  0.00  0.00    +0.083 C 
ATOM     20  C   UNL     1      -4.469 -10.634  13.459  0.00  0.00    +0.035 C 
ATOM     21  C   UNL     1      -3.716 -10.664  13.123  0.00  0.00    +0.074 C 
ATOM     22  N   UNL     1      -3.165 -10.705  13.736  0.00  0.00    -0.262 NA
ATOM     31  N   UNL     1      -5.020 -10.634  14.803  0.00  0.00    -0.271 NA
ATOM     32  C   UNL     1      -5.768 -10.590  14.456  0.00  0.00    +0.090 C 
ENDROOT
BRANCH  13  12
ATOM     12  C   UNL     1      -5.746 -10.622  15.997  0.00  0.00    +0.027 C 
BRANCH  12  11
ATOM     11  C   UNL     1      -5.845 -10.179  16.686  0.00  0.00    +0.088 C 
BRANCH  11   9
ATOM      8  N   UNL     1      -7.168  -9.663  16.846  0.00  0.00    -0.201 NA
ATOM      9  C   UNL     1      -6.571 -10.184  17.078  0.00  0.00    +0.242 C 
ATOM     10  O   UNL     1      -6.700 -10.709  17.701  0.00  0.00    -0.273 OA
BRANCH   8   7
ATOM      7  C   UNL     1      -7.894  -9.668  17.238  0.00  0.00    +0.141 C 
BRANCH   7   6
ATOM      3  C   UNL     1      -9.779  -8.321  16.365  0.00  0.00    +0.139 A 
ATOM      4  C   UNL     1      -9.534  -8.999  15.962  0.00  0.00    +0.037 A 
ATOM      5  C   UNL     1      -8.906  -9.447  16.253  0.00  0.00    +0.001 A 
ATOM      6  C   UNL     1      -8.522  -9.219  16.946  0.00  0.00    -0.000 A 
ATOM     33  C   UNL     1      -8.766  -8.542  17.349  0.00  0.00    +0.001 A 
ATOM     34  C   UNL     1      -9.395  -8.092  17.058  0.00  0.00    +0.037 A 
BRANCH   3   2
ATOM      1  C   UNL     1     -10.375  -7.048  16.106  0.00  0.00    +0.252 C 
ATOM      2  O   UNL     1     -10.406  -7.872  16.074  0.00  0.00    -0.471 OA
ENDBRANCH   3   2
ENDBRANCH   7   6
ENDBRANCH   8   7
ENDBRANCH  11   9
ENDBRANCH  12  11
ENDBRANCH  13  12
BRANCH  22  23
ATOM     23  C   UNL     1      -2.346 -10.744  13.649  0.00  0.00    +0.100 C 
BRANCH  23  24
ATOM     24  C   UNL     1      -1.984 -10.407  12.989  0.00  0.00    -0.006 A 
ATOM     25  C   UNL     1      -2.048 -10.772  12.252  0.00  0.00    +0.000 A 
ATOM     26  C   UNL     1      -1.686 -10.435  11.591  0.00  0.00    +0.042 A 
ATOM     27  C   UNL     1      -1.260  -9.733  11.669  0.00  0.00    +0.196 A 
ATOM     28  O   UNL     1      -0.898  -9.396  11.009  0.00  0.00    -0.287 OA
ATOM     29  C   UNL     1      -1.195  -9.367  12.406  0.00  0.00    +0.042 A 
ATOM     30  C   UNL     1      -1.557  -9.705  13.065  0.00  0.00    +0.000 A 
ENDBRANCH  23  24
ENDBRANCH  22  23
TORSDOF 8
ENDMDL
MODEL 7
REMARK VINA RESULT:      -5.8     15.857     17.694
REMARK  Name = 
REMARK  8 active torsions:
REMARK  status: ('A' for Active; 'I' for Inactive)
REMARK    1  A    between atoms: O_2  and  C_3
REMARK    2  A    between atoms: C_6  and  C_7
REMARK    3  A    between atoms: C_7  and  N_8
REMARK    4  A    between atoms: C_9  and  C_11
REMARK    5  A    between atoms: C_11  and  C_12
REMARK    6  A    between atoms: C_12  and  C_13
REMARK    7  A    between atoms: N_22  and  C_23
REMARK    8  A    between atoms: C_23  and  C_24
REMARK                            x       y       z     vdW  Elec       q    Type
REMARK                         _______ _______ _______ _____ _____    ______ ____
ROOT
ATOM     13  C   UNL     1      -7.932  -9.833  13.672  0.00  0.00    +0.080 C 
ATOM     14  C   UNL     1      -7.290  -9.913  14.182  0.00  0.00    +0.131 C 
ATOM     15  N   UNL     1      -6.484  -9.896  14.001  0.00  0.00    -0.203 NA
ATOM     16  C   UNL     1      -6.124  -9.794  13.266  0.00  0.00    +0.257 C 
ATOM     17  O   UNL     1      -5.300  -9.804  13.266  0.00  0.00    -0.272 OA
ATOM     18  C   UNL     1      -6.481  -9.684  12.530  0.00  0.00    +0.151 C 
ATOM     19  C   UNL     1      -7.284  -9.649  12.347  0.00  0.00    +0.083 C 
ATOM     20  C   UNL     1      -7.356  -9.530  11.534  0.00  0.00    +0.035 C 
ATOM     21  C   UNL     1      -6.597  -9.493  11.214  0.00  0.00    +0.074 C 
ATOM     22  N   UNL     1      -6.055  -9.588  11.829  0.00  0.00    -0.262 NA
ATOM     31  N   UNL     1      -7.930  -9.715  12.855  0.00  0.00    -0.271 NA
ATOM     32  C   UNL     1      -8.673  -9.655  12.500  0.00  0.00    +0.090 C 
ENDROOT
BRANCH  13  12
ATOM     12  C   UNL     1      -8.677  -9.875  14.026  0.00  0.00    +0.027 C 
BRANCH  12  11
ATOM     11  C   UNL     1      -8.740  -9.996  14.839  0.00  0.00    +0.088 C 
BRANCH  11   9
ATOM      8  N   UNL     1      -9.538 -10.029  16.024  0.00  0.00    -0.201 NA
ATOM      9  C   UNL     1      -9.481  -9.970  15.203  0.00  0.00    +0.242 C 
ATOM     10  O   UNL     1     -10.162  -9.886  14.746  0.00  0.00    -0.273 OA
BRANCH   8   7
ATOM      7  C   UNL     1     -10.279 -10.003  16.388  0.00  0.00    +0.141 C 
BRANCH   7   6
ATOM      3  C   UNL     1     -10.449 -10.131  18.854  0.00  0.00    +0.139 A 
ATOM      4  C   UNL     1     -10.665  -9.439  18.461  0.00  0.00    +0.037 A 
ATOM      5  C   UNL     1     -10.608  -9.396  17.639  0.00  0.00    +0.001 A 
ATOM      6  C   UNL     1     -10.335 -10.046  17.210  0.00  0.00    -0.000 A 
ATOM     33  C   UNL     1     -10.120 -10.738  17.603  0.00  0.00    +0.001 A 
ATOM     34  C   UNL     1     -10.177 -10.781  18.425  0.00  0.00    +0.037 A 
BRANCH   3   2
ATOM      1  C   UNL     1     -10.012 -10.683  20.098  0.00  0.00    +0.252 C 
ATOM      2  O   UNL     1     -10.506 -10.174  19.676  0.00  0.00    -0.471 OA
ENDBRANCH   3   2
ENDBRANCH   7   6
ENDBRANCH   8   7
ENDBRANCH  11   9
ENDBRANCH  12  11
ENDBRANCH  13  12
BRANCH  22  23
ATOM     23  C   UNL     1      -5.234  -9.586  11.756  0.00  0.00    +0.100 C 
BRANCH  23  24
ATOM     24  C   UNL     1      -4.884  -9.421  11.028  0.00  0.00    -0.006 A 
ATOM     25  C   UNL     1      -4.632 -10.038  10.541  0.00  0.00    +0.000 A 
ATOM     26  C   UNL     1      -4.283  -9.872   9.812  0.00  0.00    +0.042 A 
ATOM     27  C   UNL     1      -4.185  -9.090   9.571  0.00  0.00    +0.196 A 
ATOM     28  O   UNL     1      -3.835  -8.924   8.842  0.00  0.00    -0.287 OA
ATOM     29  C   UNL     1      -4.436  -8.472  10.058  0.00  0.00    +0.042 A 
ATOM     30  C   UNL     1      -4.785  -8.639  10.786  0.00  0.00    +0.000 A 
ENDBRANCH  23  24
ENDBRANCH  22  23
TORSDOF 8
ENDMDL
MODEL 8
REMARK VINA RESULT:      -5.6     16.566     17.261
REMARK  Name = 
REMARK  8 active torsions:
REMARK  status: ('A' for Active; 'I' for Inactive)
REMARK    1  A    between atoms: O_2  and  C_3
REMARK    2  A    between atoms: C_6  and  C_7
REMARK    3  A    between atoms: C_7  and  N_8
REMARK    4  A    between atoms: C_9  and  C_11
REMARK    5  A    between atoms: C_11  and  C_12
REMARK    6  A    between atoms: C_12  and  C_13
REMARK    7  A    between atoms: N_22  and  C_23
REMARK    8  A    between atoms: C_23  and  C_24
REMARK                            x       y       z     vdW  Elec       q    Type
REMARK                         _______ _______ _______ _____ _____    ______ ____
ROOT
ATOM     13  C   UNL     1      -3.976  -9.412  10.257  0.00  0.00    +0.080 C 
ATOM     14  C   UNL     1      -3.814  -9.377   9.450  0.00  0.00    +0.131 C 
ATOM     15  N   UNL     1      -4.337  -9.242   8.825  0.00  0.00    -0.203 NA
ATOM     16  C   UNL     1      -5.150  -9.109   8.855  0.00  0.00    +0.257 C 
ATOM     17  O   UNL     1      -5.521  -8.991   8.128  0.00  0.00    -0.272 OA
ATOM     18  C   UNL     1      -5.642  -9.077   9.518  0.00  0.00    +0.151 C 
ATOM     19  C   UNL     1      -5.442  -9.171  10.312  0.00  0.00    +0.083 C 
ATOM     20  C   UNL     1      -6.130  -9.090  10.760  0.00  0.00    +0.035 C 
ATOM     21  C   UNL     1      -6.755  -8.946  10.242  0.00  0.00    +0.074 C 
ATOM     22  N   UNL     1      -6.454  -8.938   9.474  0.00  0.00    -0.262 NA
ATOM     31  N   UNL     1      -4.700  -9.320  10.641  0.00  0.00    -0.271 NA
ATOM     32  C   UNL     1      -4.681  -9.386  11.464  0.00  0.00    +0.090 C 
ENDROOT
BRANCH  13  12
ATOM     12  C   UNL     1      -3.327  -9.558  10.747  0.00  0.00    +0.027 C 
BRANCH  12  11
ATOM     11  C   UNL     1      -2.570  -9.338  10.503  0.00  0.00    +0.088 C 
BRANCH  11   9
ATOM      8  N   UNL     1      -1.306  -8.976  11.062  0.00  0.00    -0.201 NA
ATOM      9  C   UNL     1      -1.917  -9.523  10.972  0.00  0.00    +0.242 C 
ATOM     10  O   UNL     1      -1.875 -10.255  11.351  0.00  0.00    -0.273 OA
BRANCH   8   7
ATOM      7  C   UNL     1      -0.653  -9.161  11.531  0.00  0.00    +0.141 C 
BRANCH   7   6
ATOM      3  C   UNL     1       0.999  -7.406  12.097  0.00  0.00    +0.139 A 
ATOM      4  C   UNL     1       0.335  -7.517  12.574  0.00  0.00    +0.037 A 
ATOM      5  C   UNL     1      -0.215  -8.102  12.386  0.00  0.00    +0.001 A 
ATOM      6  C   UNL     1      -0.102  -8.575  11.720  0.00  0.00    -0.000 A 
ATOM     33  C   UNL     1       0.561  -8.464  11.242  0.00  0.00    +0.001 A 
ATOM     34  C   UNL     1       1.112  -7.879  11.431  0.00  0.00    +0.037 A 
BRANCH   3   2
ATOM      1  C   UNL     1       2.319  -6.868  11.992  0.00  0.00    +0.252 C 
ATOM      2  O   UNL     1       1.549  -6.821  12.285  0.00  0.00    -0.471 OA
ENDBRANCH   3   2
ENDBRANCH   7   6
ENDBRANCH   8   7
ENDBRANCH  11   9
ENDBRANCH  12  11
ENDBRANCH  13  12
BRANCH  22  23
ATOM     23  C   UNL     1      -6.888  -8.813   8.784  0.00  0.00    +0.100 C 
BRANCH  23  24
ATOM     24  C   UNL     1      -7.695  -8.646   8.828  0.00  0.00    -0.006 A 
ATOM     25  C   UNL     1      -7.953  -7.863   8.860  0.00  0.00    +0.000 A 
ATOM     26  C   UNL     1      -8.760  -7.696   8.905  0.00  0.00    +0.042 A 
ATOM     27  C   UNL     1      -9.308  -8.311   8.918  0.00  0.00    +0.196 A 
ATOM     28  O   UNL     1     -10.115  -8.145   8.962  0.00  0.00    -0.287 OA
ATOM     29  C   UNL     1      -9.050  -9.095   8.886  0.00  0.00    +0.042 A 
ATOM     30  C   UNL     1      -8.244  -9.261   8.842  0.00  0.00    +0.000 A 
ENDBRANCH  23  24
ENDBRANCH  22  23
TORSDOF 8
ENDMDL
