REMARK  Name = 
REMARK  6 active torsions:
REMARK  status: ('A' for Active; 'I' for Inactive)
REMARK    1  A    between atoms: C_5  and  S_8
REMARK    2  A    between atoms: S_8  and  N_11
REMARK    3  A    between atoms: N_11  and  C_12
REMARK    4  A    between atoms: C_12  and  C_13
REMARK    5  A    between atoms: C_20  and  C_21
REMARK    6  A    between atoms: C_21  and  N_22
REMARK                            x       y       z     vdW  Elec       q    Type
REMARK                         _______ _______ _______ _____ _____    ______ ____
ROOT
ATOM     13  C   UNL     1       4.765  -2.245   0.000  0.00  0.00    +0.077 C 
ATOM     14  C   UNL     1       4.867  -1.474   0.000  0.00  0.00    +0.018 C 
ATOM     15  C   UNL     1       4.275  -0.920   0.000  0.00  0.00    +0.006 C 
ATOM     16  C   UNL     1       4.601  -0.085   0.000  0.00  0.00    +0.017 C 
ATOM     17  C   UNL     1       4.636  -0.737   0.000  0.00  0.00    +0.072 C 
ATOM     18  N   UNL     1       4.168  -1.675   0.000  0.00  0.00    -0.272 NA
ATOM     19  C   UNL     1       3.258  -1.743   0.000  0.00  0.00    +0.074 C 
ATOM     20  C   UNL     1       3.401  -0.994   0.000  0.00  0.00    +0.036 C 
ENDROOT
BRANCH  13  12
ATOM     12  C   UNL     1       5.038  -3.023   0.000  0.00  0.00    +0.131 C 
BRANCH  12  11
ATOM     11  N   UNL     1       4.501  -3.649   0.000  0.00  0.00    -0.076 NA
BRANCH  11   8
ATOM      8  S   UNL     1       4.774  -4.428   0.000  0.00  0.00    +0.077 S 
ATOM      9  O   UNL     1       5.553  -4.154   0.000  0.00  0.00    -0.152 OA
ATOM     10  O   UNL     1       3.996  -4.701   0.000  0.00  0.00    -0.152 OA
BRANCH   8   5
ATOM      1 CL   UNL     1       5.869  -7.541   0.000  0.00  0.00    -0.082 Cl
ATOM      2  C   UNL     1       5.595  -6.763   0.000  0.00  0.00    +0.058 A 
ATOM      3  C   UNL     1       4.784  -6.611   0.000  0.00  0.00    +0.013 A 
ATOM      4  C   UNL     1       4.511  -5.832   0.000  0.00  0.00    +0.021 A 
ATOM      5  C   UNL     1       5.048  -5.206   0.000  0.00  0.00    +0.124 A 
ATOM      6  C   UNL     1       5.859  -5.358   0.000  0.00  0.00    +0.021 A 
ATOM      7  C   UNL     1       6.132  -6.137   0.000  0.00  0.00    +0.013 A 
ENDBRANCH   8   5
ENDBRANCH  11   8
ENDBRANCH  12  11
ENDBRANCH  13  12
BRANCH  20  21
ATOM     21  C   UNL     1       2.849  -0.381   0.000  0.00  0.00    +0.092 C 
BRANCH  21  22
ATOM     22  N   UNL     1       2.042  -0.552   0.000  0.00  0.00    -0.307 N 
ATOM     23  C   UNL     1       1.706  -1.306   0.000  0.00  0.00    +0.095 C 
ATOM     24  C   UNL     1       0.886  -1.220   0.000  0.00  0.00    +0.049 C 
ATOM     25  C   UNL     1       0.715  -0.412   0.000  0.00  0.00    -0.007 A 
ATOM     26  C   UNL     1       0.000   0.000   0.000  0.00  0.00    -0.003 A 
ATOM     27  C   UNL     1       0.000   0.825   0.000  0.00  0.00    -0.000 A 
ATOM     28  C   UNL     1       0.715   1.238   0.000  0.00  0.00    +0.001 A 
ATOM     29  C   UNL     1       1.429   0.825   0.000  0.00  0.00    +0.014 A 
ATOM     30  C   UNL     1       1.429   0.000   0.000  0.00  0.00    +0.044 A 
ENDBRANCH  21  22
ENDBRANCH  20  21
TORSDOF 6
