REMARK  Name = 
REMARK  8 active torsions:
REMARK  status: ('A' for Active; 'I' for Inactive)
REMARK    1  A    between atoms: O_2  and  C_3
REMARK    2  A    between atoms: C_6  and  C_9
REMARK    3  A    between atoms: C_11  and  C_12
REMARK    4  A    between atoms: C_12  and  C_13
REMARK    5  A    between atoms: C_18  and  C_19
REMARK    6  A    between atoms: C_19  and  C_20
REMARK    7  A    between atoms: N_22  and  C_23
REMARK    8  A    between atoms: C_23  and  C_24
REMARK                            x       y       z     vdW  Elec       q    Type
REMARK                         _______ _______ _______ _____ _____    ______ ____
ROOT
ATOM     13  C   UNL     1       6.612  -5.625   0.000  0.00  0.00    +0.024 C 
ATOM     14  C   UNL     1       6.948  -4.871   0.000  0.00  0.00    +0.089 C 
ATOM     15  N   UNL     1       7.769  -4.785   0.000  0.00  0.00    -0.218 NA
ATOM     16  C   UNL     1       8.254  -5.452   0.000  0.00  0.00    +0.089 C 
ATOM     17  C   UNL     1       7.918  -6.206   0.000  0.00  0.00    +0.019 C 
ATOM     18  C   UNL     1       7.097  -6.292   0.000  0.00  0.00    +0.012 C 
ENDROOT
BRANCH  13  12
ATOM     12  C   UNL     1       5.792  -5.711   0.000  0.00  0.00    +0.051 C 
BRANCH  12  11
ATOM      9  C   UNL     1       4.895  -3.774   0.000  0.00  0.00    +0.177 A 
ATOM     10  C   UNL     1       5.562  -4.259   0.000  0.00  0.00    +0.058 A 
ATOM     11  C   UNL     1       5.307  -5.044   0.000  0.00  0.00    +0.101 A 
ATOM     31  N   UNL     1       4.482  -5.044   0.000  0.00  0.00    -0.081 NA
ATOM     32  O   UNL     1       4.227  -4.259   0.000  0.00  0.00    -0.354 OA
BRANCH   9   6
ATOM      3  C   UNL     1       4.895  -1.299   0.000  0.00  0.00    +0.139 A 
ATOM      4  C   UNL     1       5.609  -1.712   0.000  0.00  0.00    +0.037 A 
ATOM      5  C   UNL     1       5.609  -2.537   0.000  0.00  0.00    +0.006 A 
ATOM      6  C   UNL     1       4.895  -2.949   0.000  0.00  0.00    +0.037 A 
ATOM      7  C   UNL     1       4.180  -2.537   0.000  0.00  0.00    +0.006 A 
ATOM      8  C   UNL     1       4.180  -1.712   0.000  0.00  0.00    +0.037 A 
BRANCH   3   2
ATOM      1  C   UNL     1       4.180  -0.062   0.000  0.00  0.00    +0.252 C 
ATOM      2  O   UNL     1       4.895  -0.474   0.000  0.00  0.00    -0.471 OA
ENDBRANCH   3   2
ENDBRANCH   9   6
ENDBRANCH  12  11
ENDBRANCH  13  12
BRANCH  18  19
ATOM     19  C   UNL     1       6.762  -7.046   0.000  0.00  0.00    +0.087 C 
BRANCH  19  20
ATOM     20  C   UNL     1       7.247  -7.713   0.000  0.00  0.00    +0.242 C 
ATOM     21  O   UNL     1       8.067  -7.627   0.000  0.00  0.00    -0.273 OA
ATOM     22  N   UNL     1       6.911  -8.467   0.000  0.00  0.00    -0.201 NA
BRANCH  22  23
ATOM     23  C   UNL     1       7.396  -9.134   0.000  0.00  0.00    +0.141 C 
BRANCH  23  24
ATOM     24  C   UNL     1       7.061  -9.888   0.000  0.00  0.00    -0.000 A 
ATOM     25  C   UNL     1       7.545 -10.556   0.000  0.00  0.00    -0.000 A 
ATOM     26  C   UNL     1       7.210 -11.309   0.000  0.00  0.00    +0.029 A 
ATOM     27  C   UNL     1       6.389 -11.396   0.000  0.00  0.00    +0.140 A 
ATOM     28  F   UNL     1       6.054 -12.149   0.000  0.00  0.00    -0.204 F 
ATOM     29  C   UNL     1       5.905 -10.728   0.000  0.00  0.00    +0.029 A 
ATOM     30  C   UNL     1       6.240  -9.974   0.000  0.00  0.00    -0.000 A 
ENDBRANCH  23  24
ENDBRANCH  22  23
ENDBRANCH  19  20
ENDBRANCH  18  19
TORSDOF 8
