REMARK  Name = 
REMARK  7 active torsions:
REMARK  status: ('A' for Active; 'I' for Inactive)
REMARK    1  A    between atoms: C_2  and  C_3
REMARK    2  A    between atoms: C_5  and  O_24
REMARK    3  A    between atoms: C_10  and  C_11
REMARK    4  A    between atoms: C_11  and  C_12
REMARK    5  A    between atoms: O_24  and  C_25
REMARK    6  A    between atoms: N_27  and  C_28
REMARK    7  A    between atoms: C_30  and  C_34
REMARK                            x       y       z     vdW  Elec       q    Type
REMARK                         _______ _______ _______ _____ _____    ______ ____
ROOT
ATOM      1  C   UNL     1       0.899  -2.282   0.000  0.00  0.00    +0.006 C 
ATOM      2  C   UNL     1       1.429  -1.650   0.000  0.00  0.00    +0.068 C 
ATOM      5  C   UNL     1       0.715  -1.238   0.000  0.00  0.00    +0.173 C 
ATOM      6  C   UNL     1       0.715  -0.412   0.000  0.00  0.00    +0.044 C 
ATOM      7  C   UNL     1       1.429   0.000   0.000  0.00  0.00    +0.004 C 
ATOM      8  C   UNL     1       2.143  -0.412   0.000  0.00  0.00    +0.003 C 
ATOM      9  C   UNL     1       2.143   0.412   0.000  0.00  0.00    +0.000 C 
ATOM     10  C   UNL     1       2.858   0.000   0.000  0.00  0.00    +0.040 C 
ATOM     19  C   UNL     1       3.572  -0.412   0.000  0.00  0.00    +0.152 C 
ATOM     20  O   UNL     1       4.287   0.000   0.000  0.00  0.00    -0.223 OA
ATOM     21  C   UNL     1       3.572  -1.238   0.000  0.00  0.00    +0.033 C 
ATOM     22  C   UNL     1       2.858  -1.650   0.000  0.00  0.00    +0.003 C 
ATOM     23  C   UNL     1       2.143  -1.238   0.000  0.00  0.00    +0.006 C 
ENDROOT
BRANCH   2   3
ATOM      3  C   UNL     1       1.959  -2.282   0.000  0.00  0.00    +0.185 C 
ATOM      4  O   UNL     1       2.772  -2.139   0.000  0.00  0.00    -0.220 OA
ENDBRANCH   2   3
BRANCH  10  11
ATOM     11  C   UNL     1       2.858   0.825   0.000  0.00  0.00    +0.088 C 
BRANCH  11  12
ATOM     12  C   UNL     1       3.572   1.238   0.000  0.00  0.00    +0.226 C 
ATOM     13  O   UNL     1       4.287   0.825   0.000  0.00  0.00    -0.275 OA
ATOM     14  N   UNL     1       3.572   2.062   0.000  0.00  0.00    -0.280 N 
ATOM     15  C   UNL     1       2.905   2.547   0.000  0.00  0.00    +0.093 C 
ATOM     16  C   UNL     1       3.160   3.332   0.000  0.00  0.00    +0.023 C 
ATOM     17  C   UNL     1       3.985   3.332   0.000  0.00  0.00    +0.023 C 
ATOM     18  C   UNL     1       4.240   2.547   0.000  0.00  0.00    +0.093 C 
ENDBRANCH  11  12
ENDBRANCH  10  11
BRANCH   5  24
ATOM     24  O   UNL     1       0.000  -1.650   0.000  0.00  0.00    -0.437 OA
BRANCH  24  25
ATOM     25  C   UNL     1      -0.715  -1.238   0.000  0.00  0.00    +0.425 C 
ATOM     26  O   UNL     1      -0.715  -0.412   0.000  0.00  0.00    -0.224 OA
ATOM     27  N   UNL     1      -1.429  -1.650   0.000  0.00  0.00    -0.142 NA
BRANCH  27  28
ATOM     28  C   UNL     1      -2.143  -1.238   0.000  0.00  0.00    +0.077 A 
ATOM     29  C   UNL     1      -2.858  -1.650   0.000  0.00  0.00    +0.021 A 
ATOM     30  C   UNL     1      -3.572  -1.238   0.000  0.00  0.00    +0.073 A 
ATOM     31  C   UNL     1      -3.572  -0.412   0.000  0.00  0.00    +0.004 A 
ATOM     32  C   UNL     1      -2.858   0.000   0.000  0.00  0.00    +0.001 A 
ATOM     33  C   UNL     1      -2.143  -0.412   0.000  0.00  0.00    +0.017 A 
BRANCH  30  34
ATOM     34  C   UNL     1      -4.287  -1.650   0.000  0.00  0.00    +0.419 C 
ATOM     35  F   UNL     1      -5.001  -2.062   0.000  0.00  0.00    -0.166 F 
ATOM     36  F   UNL     1      -4.699  -0.935   0.000  0.00  0.00    -0.166 F 
ATOM     37  F   UNL     1      -3.874  -2.365   0.000  0.00  0.00    -0.166 F 
ENDBRANCH  30  34
ENDBRANCH  27  28
ENDBRANCH  24  25
ENDBRANCH   5  24
TORSDOF 7
