MODEL 1
REMARK VINA RESULT:     -12.4      0.000      0.000
REMARK  Name = 
REMARK  6 active torsions:
REMARK  status: ('A' for Active; 'I' for Inactive)
REMARK    1  A    between atoms: O_2  and  C_3
REMARK    2  A    between atoms: C_3  and  C_4
REMARK    3  A    between atoms: N_6  and  C_7
REMARK    4  A    between atoms: C_9  and  C_12
REMARK    5  A    between atoms: N_15  and  C_19
REMARK    6  A    between atoms: C_22  and  C_25
REMARK                            x       y       z     vdW  Elec       q    Type
REMARK                         _______ _______ _______ _____ _____    ______ ____
ROOT
ATOM     12  C   UNL     1      -4.310   1.783  24.890  0.00  0.00    +0.010 A 
ATOM     13  C   UNL     1      -3.903   1.100  24.669  0.00  0.00    +0.058 A 
ATOM     14  C   UNL     1      -3.173   1.072  24.287  0.00  0.00    +0.052 C 
ATOM     15  N   UNL     1      -4.356   0.450  24.898  0.00  0.00    -0.234 N 
ATOM     16  N   UNL     1      -5.042   0.730  25.260  0.00  0.00    -0.170 NA
ATOM     17  C   UNL     1      -5.013   1.555  25.255  0.00  0.00    +0.077 A 
ATOM     18  C   UNL     1      -5.588   2.062  25.561  0.00  0.00    +0.054 C 
ENDROOT
BRANCH  15  19
ATOM     19  C   UNL     1      -4.157  -0.344  24.785  0.00  0.00    +0.082 A 
ATOM     20  C   UNL     1      -3.787  -0.766  25.390  0.00  0.00    +0.019 A 
ATOM     21  C   UNL     1      -3.589  -1.558  25.277  0.00  0.00    -0.003 A 
ATOM     22  C   UNL     1      -3.760  -1.929  24.560  0.00  0.00    -0.023 A 
ATOM     23  C   UNL     1      -4.131  -1.507  23.956  0.00  0.00    -0.003 A 
ATOM     24  C   UNL     1      -4.329  -0.714  24.069  0.00  0.00    +0.019 A 
BRANCH  22  25
ATOM     25  C   UNL     1      -3.562  -2.722  24.448  0.00  0.00    +0.019 C 
ATOM     26  C   UNL     1      -3.364  -3.515  24.336  0.00  0.00    +0.004 C 
ATOM     27  C   UNL     1      -2.934  -2.640  24.976  0.00  0.00    +0.004 C 
ATOM     28  C   UNL     1      -4.190  -2.805  23.920  0.00  0.00    +0.004 C 
ENDBRANCH  22  25
ENDBRANCH  15  19
BRANCH  12   9
ATOM      7  C   UNL     1      -3.428   3.727  24.911  0.00  0.00    +0.118 C 
ATOM      8  C   UNL     1      -3.519   2.974  25.235  0.00  0.00    +0.035 C 
ATOM      9  C   UNL     1      -4.057   2.558  24.767  0.00  0.00    +0.048 C 
ATOM     10  C   UNL     1      -4.297   3.055  24.152  0.00  0.00    -0.025 C 
ATOM     11  C   UNL     1      -3.908   3.777  24.242  0.00  0.00    -0.009 C 
BRANCH   7   6
ATOM      4  C   UNL     1      -2.147   4.357  24.981  0.00  0.00    +0.272 C 
ATOM      5  O   UNL     1      -1.841   3.793  24.465  0.00  0.00    -0.271 OA
ATOM      6  N   UNL     1      -2.941   4.325  25.205  0.00  0.00    -0.201 NA
BRANCH   4   3
ATOM      3  C   UNL     1      -1.660   4.956  25.275  0.00  0.00    +0.229 C 
BRANCH   3   2
ATOM      1  C   UNL     1      -0.571   5.782  24.859  0.00  0.00    +0.175 C 
ATOM      2  O   UNL     1      -0.888   5.032  24.996  0.00  0.00    -0.342 OA
ENDBRANCH   3   2
ENDBRANCH   4   3
ENDBRANCH   7   6
ENDBRANCH  12   9
TORSDOF 6
ENDMDL
MODEL 2
REMARK VINA RESULT:     -10.3      2.866      6.250
REMARK  Name = 
REMARK  6 active torsions:
REMARK  status: ('A' for Active; 'I' for Inactive)
REMARK    1  A    between atoms: O_2  and  C_3
REMARK    2  A    between atoms: C_3  and  C_4
REMARK    3  A    between atoms: N_6  and  C_7
REMARK    4  A    between atoms: C_9  and  C_12
REMARK    5  A    between atoms: N_15  and  C_19
REMARK    6  A    between atoms: C_22  and  C_25
REMARK                            x       y       z     vdW  Elec       q    Type
REMARK                         _______ _______ _______ _____ _____    ______ ____
ROOT
ATOM     12  C   UNL     1      -0.673   0.229  24.511  0.00  0.00    +0.010 A 
ATOM     13  C   UNL     1      -1.032   0.911  24.806  0.00  0.00    +0.058 A 
ATOM     14  C   UNL     1      -1.675   0.938  25.321  0.00  0.00    +0.052 C 
ATOM     15  N   UNL     1      -0.634   1.563  24.493  0.00  0.00    -0.234 N 
ATOM     16  N   UNL     1      -0.030   1.284  24.006  0.00  0.00    -0.170 NA
ATOM     17  C   UNL     1      -0.054   0.459  24.017  0.00  0.00    +0.077 A 
ATOM     18  C   UNL     1       0.452  -0.048  23.607  0.00  0.00    +0.054 C 
ENDROOT
BRANCH  15  19
ATOM     19  C   UNL     1      -0.809   2.356  24.641  0.00  0.00    +0.082 A 
ATOM     20  C   UNL     1      -0.446   2.747  25.270  0.00  0.00    +0.019 A 
ATOM     21  C   UNL     1      -0.621   3.539  25.419  0.00  0.00    -0.003 A 
ATOM     22  C   UNL     1      -1.159   3.940  24.938  0.00  0.00    -0.023 A 
ATOM     23  C   UNL     1      -1.521   3.549  24.309  0.00  0.00    -0.003 A 
ATOM     24  C   UNL     1      -1.346   2.756  24.160  0.00  0.00    +0.019 A 
BRANCH  22  25
ATOM     25  C   UNL     1      -1.333   4.733  25.086  0.00  0.00    +0.019 C 
ATOM     26  C   UNL     1      -1.508   5.525  25.235  0.00  0.00    +0.004 C 
ATOM     27  C   UNL     1      -0.637   4.958  24.705  0.00  0.00    +0.004 C 
ATOM     28  C   UNL     1      -2.029   4.508  25.468  0.00  0.00    +0.004 C 
ENDBRANCH  22  25
ENDBRANCH  15  19
BRANCH  12   9
ATOM      7  C   UNL     1      -1.503  -1.734  24.630  0.00  0.00    +0.118 C 
ATOM      8  C   UNL     1      -1.457  -0.993  24.272  0.00  0.00    +0.035 C 
ATOM      9  C   UNL     1      -0.896  -0.547  24.682  0.00  0.00    +0.048 C 
ATOM     10  C   UNL     1      -0.595  -1.015  25.292  0.00  0.00    -0.025 C 
ATOM     11  C   UNL     1      -0.971  -1.748  25.259  0.00  0.00    -0.009 C 
BRANCH   7   6
ATOM      4  C   UNL     1      -2.763  -2.405  24.696  0.00  0.00    +0.272 C 
ATOM      5  O   UNL     1      -3.037  -1.838  25.227  0.00  0.00    -0.271 OA
ATOM      6  N   UNL     1      -1.996  -2.354  24.397  0.00  0.00    -0.201 NA
BRANCH   4   3
ATOM      3  C   UNL     1      -3.256  -3.025  24.463  0.00  0.00    +0.229 C 
BRANCH   3   2
ATOM      1  C   UNL     1      -4.440  -3.234  23.691  0.00  0.00    +0.175 C 
ATOM      2  O   UNL     1      -4.059  -2.887  24.336  0.00  0.00    -0.342 OA
ENDBRANCH   3   2
ENDBRANCH   4   3
ENDBRANCH   7   6
ENDBRANCH  12   9
TORSDOF 6
ENDMDL
MODEL 3
REMARK VINA RESULT:      -9.9      2.737      4.645
REMARK  Name = 
REMARK  6 active torsions:
REMARK  status: ('A' for Active; 'I' for Inactive)
REMARK    1  A    between atoms: O_2  and  C_3
REMARK    2  A    between atoms: C_3  and  C_4
REMARK    3  A    between atoms: N_6  and  C_7
REMARK    4  A    between atoms: C_9  and  C_12
REMARK    5  A    between atoms: N_15  and  C_19
REMARK    6  A    between atoms: C_22  and  C_25
REMARK                            x       y       z     vdW  Elec       q    Type
REMARK                         _______ _______ _______ _____ _____    ______ ____
ROOT
ATOM     12  C   UNL     1      -2.332  -0.494  24.605  0.00  0.00    +0.010 A 
ATOM     13  C   UNL     1      -2.676   0.237  24.770  0.00  0.00    +0.058 A 
ATOM     14  C   UNL     1      -2.272   0.942  24.910  0.00  0.00    +0.052 C 
ATOM     15  N   UNL     1      -3.495   0.139  24.769  0.00  0.00    -0.234 N 
ATOM     16  N   UNL     1      -3.657  -0.653  24.604  0.00  0.00    -0.170 NA
ATOM     17  C   UNL     1      -2.938  -1.045  24.502  0.00  0.00    +0.077 A 
ATOM     18  C   UNL     1      -2.841  -1.845  24.329  0.00  0.00    +0.054 C 
ENDROOT
BRANCH  15  19
ATOM     19  C   UNL     1      -4.055   0.729  24.909  0.00  0.00    +0.082 A 
ATOM     20  C   UNL     1      -4.583   0.654  25.539  0.00  0.00    +0.019 A 
ATOM     21  C   UNL     1      -5.143   1.243  25.680  0.00  0.00    -0.003 A 
ATOM     22  C   UNL     1      -5.175   1.907  25.190  0.00  0.00    -0.023 A 
ATOM     23  C   UNL     1      -4.646   1.981  24.561  0.00  0.00    -0.003 A 
ATOM     24  C   UNL     1      -4.087   1.392  24.420  0.00  0.00    +0.019 A 
BRANCH  22  25
ATOM     25  C   UNL     1      -5.734   2.497  25.331  0.00  0.00    +0.019 C 
ATOM     26  C   UNL     1      -6.294   3.086  25.472  0.00  0.00    +0.004 C 
ATOM     27  C   UNL     1      -6.313   2.034  24.967  0.00  0.00    +0.004 C 
ATOM     28  C   UNL     1      -5.156   2.959  25.695  0.00  0.00    +0.004 C 
ENDBRANCH  22  25
ENDBRANCH  15  19
BRANCH  12   9
ATOM      7  C   UNL     1      -0.291  -0.812  24.065  0.00  0.00    +0.118 C 
ATOM      8  C   UNL     1      -1.067  -0.621  23.864  0.00  0.00    +0.035 C 
ATOM      9  C   UNL     1      -1.523  -0.648  24.552  0.00  0.00    +0.048 C 
ATOM     10  C   UNL     1      -1.027  -0.857  25.178  0.00  0.00    -0.025 C 
ATOM     11  C   UNL     1      -0.265  -0.958  24.876  0.00  0.00    -0.009 C 
BRANCH   7   6
ATOM      4  C   UNL     1       0.749  -0.162  23.332  0.00  0.00    +0.272 C 
ATOM      5  O   UNL     1       0.511   0.565  23.639  0.00  0.00    -0.271 OA
ATOM      6  N   UNL     1       0.349  -0.851  23.544  0.00  0.00    -0.201 NA
BRANCH   4   3
ATOM      3  C   UNL     1       1.389  -0.201  22.812  0.00  0.00    +0.229 C 
BRANCH   3   2
ATOM      1  C   UNL     1       2.714   0.210  22.468  0.00  0.00    +0.175 C 
ATOM      2  O   UNL     1       2.011   0.336  22.883  0.00  0.00    -0.342 OA
ENDBRANCH   3   2
ENDBRANCH   4   3
ENDBRANCH   7   6
ENDBRANCH  12   9
TORSDOF 6
ENDMDL
MODEL 4
REMARK VINA RESULT:      -9.9      2.000      5.562
REMARK  Name = 
REMARK  6 active torsions:
REMARK  status: ('A' for Active; 'I' for Inactive)
REMARK    1  A    between atoms: O_2  and  C_3
REMARK    2  A    between atoms: C_3  and  C_4
REMARK    3  A    between atoms: N_6  and  C_7
REMARK    4  A    between atoms: C_9  and  C_12
REMARK    5  A    between atoms: N_15  and  C_19
REMARK    6  A    between atoms: C_22  and  C_25
REMARK                            x       y       z     vdW  Elec       q    Type
REMARK                         _______ _______ _______ _____ _____    ______ ____
ROOT
ATOM     12  C   UNL     1      -4.171   1.539  24.859  0.00  0.00    +0.010 A 
ATOM     13  C   UNL     1      -3.436   1.912  24.904  0.00  0.00    +0.058 A 
ATOM     14  C   UNL     1      -2.704   1.537  24.963  0.00  0.00    +0.052 C 
ATOM     15  N   UNL     1      -3.563   2.727  24.879  0.00  0.00    -0.234 N 
ATOM     16  N   UNL     1      -4.375   2.858  24.819  0.00  0.00    -0.170 NA
ATOM     17  C   UNL     1      -4.751   2.123  24.807  0.00  0.00    +0.077 A 
ATOM     18  C   UNL     1      -5.564   1.995  24.752  0.00  0.00    +0.054 C 
ENDROOT
BRANCH  15  19
ATOM     19  C   UNL     1      -2.979   3.310  24.909  0.00  0.00    +0.082 A 
ATOM     20  C   UNL     1      -2.818   3.695  25.621  0.00  0.00    +0.019 A 
ATOM     21  C   UNL     1      -2.235   4.278  25.652  0.00  0.00    -0.003 A 
ATOM     22  C   UNL     1      -1.813   4.476  24.970  0.00  0.00    -0.023 A 
ATOM     23  C   UNL     1      -1.976   4.091  24.259  0.00  0.00    -0.003 A 
ATOM     24  C   UNL     1      -2.558   3.508  24.228  0.00  0.00    +0.019 A 
BRANCH  22  25
ATOM     25  C   UNL     1      -1.231   5.059  25.001  0.00  0.00    +0.019 C 
ATOM     26  C   UNL     1      -0.648   5.642  25.031  0.00  0.00    +0.004 C 
ATOM     27  C   UNL     1      -0.650   4.483  24.892  0.00  0.00    +0.004 C 
ATOM     28  C   UNL     1      -1.812   5.634  25.109  0.00  0.00    +0.004 C 
ENDBRANCH  22  25
ENDBRANCH  15  19
BRANCH  12   9
ATOM      7  C   UNL     1      -4.246  -0.573  24.557  0.00  0.00    +0.118 C 
ATOM      8  C   UNL     1      -3.962   0.174  24.353  0.00  0.00    +0.035 C 
ATOM      9  C   UNL     1      -4.301   0.725  24.866  0.00  0.00    +0.048 C 
ATOM     10  C   UNL     1      -4.795   0.317  25.387  0.00  0.00    -0.025 C 
ATOM     11  C   UNL     1      -4.760  -0.485  25.196  0.00  0.00    -0.009 C 
BRANCH   7   6
ATOM      4  C   UNL     1      -3.669  -1.879  24.613  0.00  0.00    +0.272 C 
ATOM      5  O   UNL     1      -3.485  -1.764  25.408  0.00  0.00    -0.271 OA
ATOM      6  N   UNL     1      -4.049  -1.284  24.187  0.00  0.00    -0.201 NA
BRANCH   4   3
ATOM      3  C   UNL     1      -3.472  -2.590  24.243  0.00  0.00    +0.229 C 
BRANCH   3   2
ATOM      1  C   UNL     1      -2.283  -3.296  23.881  0.00  0.00    +0.175 C 
ATOM      2  O   UNL     1      -2.786  -2.992  24.462  0.00  0.00    -0.342 OA
ENDBRANCH   3   2
ENDBRANCH   4   3
ENDBRANCH   7   6
ENDBRANCH  12   9
TORSDOF 6
ENDMDL
MODEL 5
REMARK VINA RESULT:      -9.8      2.060      2.771
REMARK  Name = 
REMARK  6 active torsions:
REMARK  status: ('A' for Active; 'I' for Inactive)
REMARK    1  A    between atoms: O_2  and  C_3
REMARK    2  A    between atoms: C_3  and  C_4
REMARK    3  A    between atoms: N_6  and  C_7
REMARK    4  A    between atoms: C_9  and  C_12
REMARK    5  A    between atoms: N_15  and  C_19
REMARK    6  A    between atoms: C_22  and  C_25
REMARK                            x       y       z     vdW  Elec       q    Type
REMARK                         _______ _______ _______ _____ _____    ______ ____
ROOT
ATOM     12  C   UNL     1      -0.801   0.904  24.759  0.00  0.00    +0.010 A 
ATOM     13  C   UNL     1      -1.501   0.483  24.879  0.00  0.00    +0.058 A 
ATOM     14  C   UNL     1      -2.140   0.726  25.340  0.00  0.00    +0.052 C 
ATOM     15  N   UNL     1      -1.448  -0.224  24.457  0.00  0.00    -0.234 N 
ATOM     16  N   UNL     1      -0.717  -0.240  24.076  0.00  0.00    -0.170 NA
ATOM     17  C   UNL     1      -0.317   0.457  24.263  0.00  0.00    +0.077 A 
ATOM     18  C   UNL     1       0.436   0.670  24.000  0.00  0.00    +0.054 C 
ENDROOT
BRANCH  15  19
ATOM     19  C   UNL     1      -2.026  -0.812  24.422  0.00  0.00    +0.082 A 
ATOM     20  C   UNL     1      -1.868  -1.564  24.723  0.00  0.00    +0.019 A 
ATOM     21  C   UNL     1      -2.445  -2.152  24.688  0.00  0.00    -0.003 A 
ATOM     22  C   UNL     1      -3.180  -1.989  24.351  0.00  0.00    -0.023 A 
ATOM     23  C   UNL     1      -3.338  -1.237  24.050  0.00  0.00    -0.003 A 
ATOM     24  C   UNL     1      -2.761  -0.649  24.085  0.00  0.00    +0.019 A 
BRANCH  22  25
ATOM     25  C   UNL     1      -3.758  -2.577  24.316  0.00  0.00    +0.019 C 
ATOM     26  C   UNL     1      -4.335  -3.165  24.281  0.00  0.00    +0.004 C 
ATOM     27  C   UNL     1      -3.301  -3.055  24.809  0.00  0.00    +0.004 C 
ATOM     28  C   UNL     1      -4.215  -2.099  23.823  0.00  0.00    +0.004 C 
ENDBRANCH  22  25
ENDBRANCH  15  19
BRANCH  12   9
ATOM      7  C   UNL     1      -0.453   2.958  25.221  0.00  0.00    +0.118 C 
ATOM      8  C   UNL     1      -0.698   2.369  24.698  0.00  0.00    +0.035 C 
ATOM      9  C   UNL     1      -0.618   1.641  25.079  0.00  0.00    +0.048 C 
ATOM     10  C   UNL     1      -0.324   1.782  25.838  0.00  0.00    -0.025 C 
ATOM     11  C   UNL     1      -0.222   2.596  25.924  0.00  0.00    -0.009 C 
BRANCH   7   6
ATOM      4  C   UNL     1      -1.099   4.232  25.246  0.00  0.00    +0.272 C 
ATOM      5  O   UNL     1      -1.768   3.886  25.580  0.00  0.00    -0.271 OA
ATOM      6  N   UNL     1      -0.441   3.769  25.066  0.00  0.00    -0.201 NA
BRANCH   4   3
ATOM      3  C   UNL     1      -1.088   5.043  25.091  0.00  0.00    +0.229 C 
BRANCH   3   2
ATOM      1  C   UNL     1      -1.816   6.264  24.944  0.00  0.00    +0.175 C 
ATOM      2  O   UNL     1      -1.749   5.505  25.262  0.00  0.00    -0.342 OA
ENDBRANCH   3   2
ENDBRANCH   4   3
ENDBRANCH   7   6
ENDBRANCH  12   9
TORSDOF 6
ENDMDL
MODEL 6
REMARK VINA RESULT:      -9.3      3.694      4.938
REMARK  Name = 
REMARK  6 active torsions:
REMARK  status: ('A' for Active; 'I' for Inactive)
REMARK    1  A    between atoms: O_2  and  C_3
REMARK    2  A    between atoms: C_3  and  C_4
REMARK    3  A    between atoms: N_6  and  C_7
REMARK    4  A    between atoms: C_9  and  C_12
REMARK    5  A    between atoms: N_15  and  C_19
REMARK    6  A    between atoms: C_22  and  C_25
REMARK                            x       y       z     vdW  Elec       q    Type
REMARK                         _______ _______ _______ _____ _____    ______ ____
ROOT
ATOM     12  C   UNL     1      -0.825   0.193  24.187  0.00  0.00    +0.010 A 
ATOM     13  C   UNL     1      -1.472   0.687  24.054  0.00  0.00    +0.058 A 
ATOM     14  C   UNL     1      -1.533   1.258  23.463  0.00  0.00    +0.052 C 
ATOM     15  N   UNL     1      -2.048   0.509  24.617  0.00  0.00    -0.234 N 
ATOM     16  N   UNL     1      -1.757  -0.095  25.098  0.00  0.00    -0.170 NA
ATOM     17  C   UNL     1      -1.001  -0.290  24.832  0.00  0.00    +0.077 A 
ATOM     18  C   UNL     1      -0.507  -0.868  25.154  0.00  0.00    +0.054 C 
ENDROOT
BRANCH  15  19
ATOM     19  C   UNL     1      -2.786   0.871  24.688  0.00  0.00    +0.082 A 
ATOM     20  C   UNL     1      -3.469   0.459  24.479  0.00  0.00    +0.019 A 
ATOM     21  C   UNL     1      -4.207   0.820  24.549  0.00  0.00    -0.003 A 
ATOM     22  C   UNL     1      -4.262   1.595  24.830  0.00  0.00    -0.023 A 
ATOM     23  C   UNL     1      -3.579   2.007  25.039  0.00  0.00    -0.003 A 
ATOM     24  C   UNL     1      -2.841   1.645  24.969  0.00  0.00    +0.019 A 
BRANCH  22  25
ATOM     25  C   UNL     1      -5.000   1.956  24.900  0.00  0.00    +0.019 C 
ATOM     26  C   UNL     1      -5.738   2.318  24.971  0.00  0.00    +0.004 C 
ATOM     27  C   UNL     1      -5.266   1.325  25.360  0.00  0.00    +0.004 C 
ATOM     28  C   UNL     1      -4.735   2.588  24.441  0.00  0.00    +0.004 C 
ENDBRANCH  22  25
ENDBRANCH  15  19
BRANCH  12   9
ATOM      7  C   UNL     1       1.102   0.473  23.313  0.00  0.00    +0.118 C 
ATOM      8  C   UNL     1       0.530   0.671  23.873  0.00  0.00    +0.035 C 
ATOM      9  C   UNL     1      -0.125   0.183  23.751  0.00  0.00    +0.048 C 
ATOM     10  C   UNL     1       0.044  -0.315  23.115  0.00  0.00    -0.025 C 
ATOM     11  C   UNL     1       0.803  -0.136  22.845  0.00  0.00    -0.009 C 
BRANCH   7   6
ATOM      4  C   UNL     1       2.474   0.392  22.921  0.00  0.00    +0.272 C 
ATOM      5  O   UNL     1       2.360  -0.389  22.685  0.00  0.00    -0.271 OA
ATOM      6  N   UNL     1       1.846   0.824  23.235  0.00  0.00    -0.201 NA
BRANCH   4   3
ATOM      3  C   UNL     1       3.217   0.743  22.843  0.00  0.00    +0.229 C 
BRANCH   3   2
ATOM      1  C   UNL     1       4.637   0.623  22.953  0.00  0.00    +0.175 C 
ATOM      2  O   UNL     1       3.896   0.275  22.845  0.00  0.00    -0.342 OA
ENDBRANCH   3   2
ENDBRANCH   4   3
ENDBRANCH   7   6
ENDBRANCH  12   9
TORSDOF 6
ENDMDL
MODEL 7
REMARK VINA RESULT:      -9.3      2.881      4.583
REMARK  Name = 
REMARK  6 active torsions:
REMARK  status: ('A' for Active; 'I' for Inactive)
REMARK    1  A    between atoms: O_2  and  C_3
REMARK    2  A    between atoms: C_3  and  C_4
REMARK    3  A    between atoms: N_6  and  C_7
REMARK    4  A    between atoms: C_9  and  C_12
REMARK    5  A    between atoms: N_15  and  C_19
REMARK    6  A    between atoms: C_22  and  C_25
REMARK                            x       y       z     vdW  Elec       q    Type
REMARK                         _______ _______ _______ _____ _____    ______ ____
ROOT
ATOM     12  C   UNL     1      -1.449   2.977  25.005  0.00  0.00    +0.010 A 
ATOM     13  C   UNL     1      -2.157   2.553  25.045  0.00  0.00    +0.058 A 
ATOM     14  C   UNL     1      -2.230   1.733  25.064  0.00  0.00    +0.052 C 
ATOM     15  N   UNL     1      -2.777   3.097  25.062  0.00  0.00    -0.234 N 
ATOM     16  N   UNL     1      -2.454   3.855  25.033  0.00  0.00    -0.170 NA
ATOM     17  C   UNL     1      -1.633   3.781  24.997  0.00  0.00    +0.077 A 
ATOM     18  C   UNL     1      -1.091   4.401  24.961  0.00  0.00    +0.054 C 
ENDROOT
BRANCH  15  19
ATOM     19  C   UNL     1      -3.581   2.914  25.101  0.00  0.00    +0.082 A 
ATOM     20  C   UNL     1      -3.994   3.025  25.807  0.00  0.00    +0.019 A 
ATOM     21  C   UNL     1      -4.798   2.842  25.847  0.00  0.00    -0.003 A 
ATOM     22  C   UNL     1      -5.188   2.549  25.182  0.00  0.00    -0.023 A 
ATOM     23  C   UNL     1      -4.775   2.439  24.477  0.00  0.00    -0.003 A 
ATOM     24  C   UNL     1      -3.971   2.621  24.436  0.00  0.00    +0.019 A 
BRANCH  22  25
ATOM     25  C   UNL     1      -5.992   2.367  25.222  0.00  0.00    +0.019 C 
ATOM     26  C   UNL     1      -6.795   2.185  25.262  0.00  0.00    +0.004 C 
ATOM     27  C   UNL     1      -5.847   1.645  24.851  0.00  0.00    +0.004 C 
ATOM     28  C   UNL     1      -6.137   3.090  25.592  0.00  0.00    +0.004 C 
ENDBRANCH  22  25
ENDBRANCH  15  19
BRANCH  12   9
ATOM      7  C   UNL     1       0.461   2.155  24.523  0.00  0.00    +0.118 C 
ATOM      8  C   UNL     1      -0.268   2.465  24.294  0.00  0.00    +0.035 C 
ATOM      9  C   UNL     1      -0.692   2.652  24.977  0.00  0.00    +0.048 C 
ATOM     10  C   UNL     1      -0.224   2.457  25.628  0.00  0.00    -0.025 C 
ATOM     11  C   UNL     1       0.489   2.150  25.347  0.00  0.00    -0.009 C 
BRANCH   7   6
ATOM      4  C   UNL     1       1.060   1.115  23.748  0.00  0.00    +0.272 C 
ATOM      5  O   UNL     1       0.467   0.595  23.987  0.00  0.00    -0.271 OA
ATOM      6  N   UNL     1       1.058   1.895  24.015  0.00  0.00    -0.201 NA
BRANCH   4   3
ATOM      3  C   UNL     1       1.658   0.855  23.241  0.00  0.00    +0.229 C 
BRANCH   3   2
ATOM      1  C   UNL     1       2.174  -0.126  22.338  0.00  0.00    +0.175 C 
ATOM      2  O   UNL     1       1.594   0.120  22.871  0.00  0.00    -0.342 OA
ENDBRANCH   3   2
ENDBRANCH   4   3
ENDBRANCH   7   6
ENDBRANCH  12   9
TORSDOF 6
ENDMDL
