MODEL 1
REMARK VINA RESULT:      -9.9      0.000      0.000
REMARK  Name = 
REMARK  6 active torsions:
REMARK  status: ('A' for Active; 'I' for Inactive)
REMARK    1  A    between atoms: O_2  and  C_3
REMARK    2  A    between atoms: C_6  and  N_7
REMARK    3  A    between atoms: N_10  and  C_11
REMARK    4  A    between atoms: C_11  and  C_12
REMARK    5  A    between atoms: C_19  and  C_20
REMARK    6  A    between atoms: C_20  and  N_21
REMARK                            x       y       z     vdW  Elec       q    Type
REMARK                         _______ _______ _______ _____ _____    ______ ____
ROOT
ATOM     12  C   UNL     1      -4.398   2.355  24.806  0.00  0.00    +0.079 C 
ATOM     13  C   UNL     1      -4.613   2.974  25.227  0.00  0.00    +0.018 C 
ATOM     14  C   UNL     1      -4.117   3.549  25.507  0.00  0.00    +0.005 C 
ATOM     15  C   UNL     1      -4.560   4.176  25.970  0.00  0.00    +0.017 C 
ATOM     16  C   UNL     1      -4.497   3.629  25.618  0.00  0.00    +0.072 C 
ATOM     17  N   UNL     1      -3.899   2.946  25.095  0.00  0.00    -0.272 NA
ATOM     18  C   UNL     1      -2.997   3.070  25.026  0.00  0.00    +0.073 C 
ATOM     19  C   UNL     1      -3.249   3.662  25.437  0.00  0.00    +0.032 C 
ENDROOT
BRANCH  12  11
ATOM     11  C   UNL     1      -4.549   1.657  24.395  0.00  0.00    +0.133 C 
BRANCH  11  10
ATOM      7  N   UNL     1      -4.487  -0.433  25.020  0.00  0.00    -0.161 NA
ATOM      8  C   UNL     1      -4.324   0.262  24.607  0.00  0.00    +0.344 C 
ATOM      9  O   UNL     1      -3.773   0.257  23.993  0.00  0.00    -0.249 OA
ATOM     10  N   UNL     1      -4.713   0.962  24.808  0.00  0.00    -0.185 NA
BRANCH   7   6
ATOM      3  C   UNL     1      -3.323  -2.533  24.419  0.00  0.00    +0.139 A 
ATOM      4  C   UNL     1      -3.942  -2.256  23.950  0.00  0.00    +0.038 A 
ATOM      5  C   UNL     1      -4.331  -1.556  24.150  0.00  0.00    +0.020 A 
ATOM      6  C   UNL     1      -4.100  -1.133  24.819  0.00  0.00    +0.075 A 
ATOM     27  C   UNL     1      -3.480  -1.410  25.289  0.00  0.00    +0.020 A 
ATOM     28  C   UNL     1      -3.092  -2.110  25.088  0.00  0.00    +0.038 A 
BRANCH   3   2
ATOM      1  C   UNL     1      -2.133  -3.219  24.026  0.00  0.00    +0.252 C 
ATOM      2  O   UNL     1      -2.935  -3.233  24.218  0.00  0.00    -0.471 OA
ENDBRANCH   3   2
ENDBRANCH   7   6
ENDBRANCH  11  10
ENDBRANCH  12  11
BRANCH  19  20
ATOM     20  C   UNL     1      -2.800   4.280  25.750  0.00  0.00    +0.073 C 
BRANCH  20  21
ATOM     21  N   UNL     1      -2.033   4.410  25.478  0.00  0.00    -0.271 NA
ATOM     22  C   UNL     1      -1.849   5.110  25.081  0.00  0.00    +0.084 C 
ATOM     23  C   UNL     1      -1.081   5.240  24.809  0.00  0.00    +0.075 C 
ATOM     24  S   UNL     1      -0.497   4.671  24.933  0.00  0.00    -0.137 S 
ATOM     25  C   UNL     1      -0.680   3.971  25.330  0.00  0.00    +0.075 C 
ATOM     26  C   UNL     1      -1.448   3.841  25.602  0.00  0.00    +0.084 C 
ENDBRANCH  20  21
ENDBRANCH  19  20
TORSDOF 6
ENDMDL
MODEL 2
REMARK VINA RESULT:      -9.1      3.696      4.889
REMARK  Name = 
REMARK  6 active torsions:
REMARK  status: ('A' for Active; 'I' for Inactive)
REMARK    1  A    between atoms: O_2  and  C_3
REMARK    2  A    between atoms: C_6  and  N_7
REMARK    3  A    between atoms: N_10  and  C_11
REMARK    4  A    between atoms: C_11  and  C_12
REMARK    5  A    between atoms: C_19  and  C_20
REMARK    6  A    between atoms: C_20  and  N_21
REMARK                            x       y       z     vdW  Elec       q    Type
REMARK                         _______ _______ _______ _____ _____    ______ ____
ROOT
ATOM     12  C   UNL     1      -2.142   0.479  24.288  0.00  0.00    +0.079 C 
ATOM     13  C   UNL     1      -2.758   0.004  24.308  0.00  0.00    +0.018 C 
ATOM     14  C   UNL     1      -3.527   0.232  24.418  0.00  0.00    +0.005 C 
ATOM     15  C   UNL     1      -4.088  -0.468  24.410  0.00  0.00    +0.017 C 
ATOM     16  C   UNL     1      -3.508  -0.169  24.375  0.00  0.00    +0.072 C 
ATOM     17  N   UNL     1      -2.929   0.704  24.400  0.00  0.00    -0.272 NA
ATOM     18  C   UNL     1      -3.318   1.520  24.527  0.00  0.00    +0.073 C 
ATOM     19  C   UNL     1      -3.895   1.020  24.541  0.00  0.00    +0.032 C 
ENDROOT
BRANCH  12  11
ATOM     11  C   UNL     1      -1.336   0.636  24.213  0.00  0.00    +0.133 C 
BRANCH  11  10
ATOM      7  N   UNL     1       0.423  -0.339  23.367  0.00  0.00    -0.161 NA
ATOM      8  C   UNL     1      -0.089   0.251  23.633  0.00  0.00    +0.344 C 
ATOM      9  O   UNL     1       0.133   1.043  23.583  0.00  0.00    -0.249 OA
ATOM     10  N   UNL     1      -0.824   0.047  23.948  0.00  0.00    -0.185 NA
BRANCH   7   6
ATOM      3  C   UNL     1       2.628   0.271  22.423  0.00  0.00    +0.139 A 
ATOM      4  C   UNL     1       2.067  -0.107  21.951  0.00  0.00    +0.038 A 
ATOM      5  C   UNL     1       1.332  -0.310  22.265  0.00  0.00    +0.020 A 
ATOM      6  C   UNL     1       1.158  -0.136  23.052  0.00  0.00    +0.075 A 
ATOM     27  C   UNL     1       1.719   0.242  23.525  0.00  0.00    +0.020 A 
ATOM     28  C   UNL     1       2.454   0.445  23.210  0.00  0.00    +0.038 A 
BRANCH   3   2
ATOM      1  C   UNL     1       3.938   0.817  22.590  0.00  0.00    +0.252 C 
ATOM      2  O   UNL     1       3.363   0.473  22.107  0.00  0.00    -0.471 OA
ENDBRANCH   3   2
ENDBRANCH   7   6
ENDBRANCH  11  10
ENDBRANCH  12  11
BRANCH  19  20
ATOM     20  C   UNL     1      -4.696   1.185  24.648  0.00  0.00    +0.073 C 
BRANCH  20  21
ATOM     21  N   UNL     1      -4.929   1.915  24.951  0.00  0.00    -0.271 NA
ATOM     22  C   UNL     1      -5.284   1.959  25.695  0.00  0.00    +0.084 C 
ATOM     23  C   UNL     1      -5.517   2.690  25.999  0.00  0.00    +0.075 C 
ATOM     24  S   UNL     1      -5.395   3.377  25.559  0.00  0.00    -0.137 S 
ATOM     25  C   UNL     1      -5.041   3.334  24.815  0.00  0.00    +0.075 C 
ATOM     26  C   UNL     1      -4.808   2.603  24.512  0.00  0.00    +0.084 C 
ENDBRANCH  20  21
ENDBRANCH  19  20
TORSDOF 6
ENDMDL
MODEL 3
REMARK VINA RESULT:      -8.9      1.794      2.810
REMARK  Name = 
REMARK  6 active torsions:
REMARK  status: ('A' for Active; 'I' for Inactive)
REMARK    1  A    between atoms: O_2  and  C_3
REMARK    2  A    between atoms: C_6  and  N_7
REMARK    3  A    between atoms: N_10  and  C_11
REMARK    4  A    between atoms: C_11  and  C_12
REMARK    5  A    between atoms: C_19  and  C_20
REMARK    6  A    between atoms: C_20  and  N_21
REMARK                            x       y       z     vdW  Elec       q    Type
REMARK                         _______ _______ _______ _____ _____    ______ ____
ROOT
ATOM     12  C   UNL     1      -0.719   1.837  24.810  0.00  0.00    +0.079 C 
ATOM     13  C   UNL     1      -0.507   2.546  25.054  0.00  0.00    +0.018 C 
ATOM     14  C   UNL     1      -1.005   3.175  25.161  0.00  0.00    +0.005 C 
ATOM     15  C   UNL     1      -0.566   3.903  25.447  0.00  0.00    +0.017 C 
ATOM     16  C   UNL     1      -0.626   3.282  25.254  0.00  0.00    +0.072 C 
ATOM     17  N   UNL     1      -1.220   2.484  24.922  0.00  0.00    -0.272 NA
ATOM     18  C   UNL     1      -2.119   2.585  24.809  0.00  0.00    +0.073 C 
ATOM     19  C   UNL     1      -1.871   3.266  25.050  0.00  0.00    +0.032 C 
ENDROOT
BRANCH  12  11
ATOM     11  C   UNL     1      -0.564   1.054  24.603  0.00  0.00    +0.133 C 
BRANCH  11  10
ATOM      7  N   UNL     1      -1.453  -0.770  25.404  0.00  0.00    -0.161 NA
ATOM      8  C   UNL     1      -1.262  -0.160  24.883  0.00  0.00    +0.344 C 
ATOM      9  O   UNL     1      -1.580  -0.153  24.122  0.00  0.00    -0.249 OA
ATOM     10  N   UNL     1      -0.754   0.444  25.124  0.00  0.00    -0.185 NA
BRANCH   7   6
ATOM      3  C   UNL     1      -2.976  -2.583  24.684  0.00  0.00    +0.139 A 
ATOM      4  C   UNL     1      -3.273  -1.936  25.099  0.00  0.00    +0.038 A 
ATOM      5  C   UNL     1      -2.765  -1.331  25.340  0.00  0.00    +0.020 A 
ATOM      6  C   UNL     1      -1.961  -1.374  25.164  0.00  0.00    +0.075 A 
ATOM     27  C   UNL     1      -1.663  -2.022  24.748  0.00  0.00    +0.020 A 
ATOM     28  C   UNL     1      -2.171  -2.626  24.508  0.00  0.00    +0.038 A 
BRANCH   3   2
ATOM      1  C   UNL     1      -4.082  -3.029  23.897  0.00  0.00    +0.252 C 
ATOM      2  O   UNL     1      -3.485  -3.187  24.444  0.00  0.00    -0.471 OA
ENDBRANCH   3   2
ENDBRANCH   7   6
ENDBRANCH  11  10
ENDBRANCH  12  11
BRANCH  19  20
ATOM     20  C   UNL     1      -2.323   3.945  25.179  0.00  0.00    +0.073 C 
BRANCH  20  21
ATOM     21  N   UNL     1      -3.144   3.891  25.222  0.00  0.00    -0.271 NA
ATOM     22  C   UNL     1      -3.515   3.818  25.956  0.00  0.00    +0.084 C 
ATOM     23  C   UNL     1      -4.337   3.765  25.999  0.00  0.00    +0.075 C 
ATOM     24  S   UNL     1      -4.788   3.784  25.308  0.00  0.00    -0.137 S 
ATOM     25  C   UNL     1      -4.418   3.856  24.575  0.00  0.00    +0.075 C 
ATOM     26  C   UNL     1      -3.596   3.910  24.532  0.00  0.00    +0.084 C 
ENDBRANCH  20  21
ENDBRANCH  19  20
TORSDOF 6
ENDMDL
MODEL 4
REMARK VINA RESULT:      -8.8     14.768     17.103
REMARK  Name = 
REMARK  6 active torsions:
REMARK  status: ('A' for Active; 'I' for Inactive)
REMARK    1  A    between atoms: O_2  and  C_3
REMARK    2  A    between atoms: C_6  and  N_7
REMARK    3  A    between atoms: N_10  and  C_11
REMARK    4  A    between atoms: C_11  and  C_12
REMARK    5  A    between atoms: C_19  and  C_20
REMARK    6  A    between atoms: C_20  and  N_21
REMARK                            x       y       z     vdW  Elec       q    Type
REMARK                         _______ _______ _______ _____ _____    ______ ____
ROOT
ATOM     12  C   UNL     1      -3.856 -10.633  13.239  0.00  0.00    +0.079 C 
ATOM     13  C   UNL     1      -3.118 -10.624  12.994  0.00  0.00    +0.018 C 
ATOM     14  C   UNL     1      -2.873 -10.469  12.238  0.00  0.00    +0.005 C 
ATOM     15  C   UNL     1      -1.981 -10.509  12.161  0.00  0.00    +0.017 C 
ATOM     16  C   UNL     1      -2.553 -10.543  12.474  0.00  0.00    +0.072 C 
ATOM     17  N   UNL     1      -3.599 -10.475  12.470  0.00  0.00    -0.272 NA
ATOM     18  C   UNL     1      -4.052 -10.273  11.704  0.00  0.00    +0.073 C 
ATOM     19  C   UNL     1      -3.315 -10.275  11.505  0.00  0.00    +0.032 C 
ENDROOT
BRANCH  12  11
ATOM     11  C   UNL     1      -4.440 -10.725  13.814  0.00  0.00    +0.133 C 
BRANCH  11  10
ATOM      7  N   UNL     1      -4.826 -10.126  15.877  0.00  0.00    -0.161 NA
ATOM      8  C   UNL     1      -4.942 -10.432  15.119  0.00  0.00    +0.344 C 
ATOM      9  O   UNL     1      -5.673 -10.749  14.909  0.00  0.00    -0.249 OA
ATOM     10  N   UNL     1      -4.324 -10.420  14.572  0.00  0.00    -0.185 NA
BRANCH   7   6
ATOM      3  C   UNL     1      -6.676 -10.161  17.520  0.00  0.00    +0.139 A 
ATOM      4  C   UNL     1      -6.080 -10.729  17.558  0.00  0.00    +0.038 A 
ATOM      5  C   UNL     1      -5.463 -10.718  17.011  0.00  0.00    +0.020 A 
ATOM      6  C   UNL     1      -5.443 -10.138  16.424  0.00  0.00    +0.075 A 
ATOM     27  C   UNL     1      -6.040  -9.569  16.386  0.00  0.00    +0.020 A 
ATOM     28  C   UNL     1      -6.656  -9.581  16.934  0.00  0.00    +0.038 A 
BRANCH   3   2
ATOM      1  C   UNL     1      -8.059 -10.356  17.823  0.00  0.00    +0.252 C 
ATOM      2  O   UNL     1      -7.293 -10.173  18.068  0.00  0.00    -0.471 OA
ENDBRANCH   3   2
ENDBRANCH   7   6
ENDBRANCH  11  10
ENDBRANCH  12  11
BRANCH  19  20
ATOM     20  C   UNL     1      -3.000 -10.126  10.756  0.00  0.00    +0.073 C 
BRANCH  20  21
ATOM     21  N   UNL     1      -3.496  -9.898  10.139  0.00  0.00    -0.271 NA
ATOM     22  C   UNL     1      -3.621  -9.097   9.984  0.00  0.00    +0.084 C 
ATOM     23  C   UNL     1      -4.117  -8.869   9.366  0.00  0.00    +0.075 C 
ATOM     24  S   UNL     1      -4.489  -9.441   8.903  0.00  0.00    -0.137 S 
ATOM     25  C   UNL     1      -4.365 -10.242   9.057  0.00  0.00    +0.075 C 
ATOM     26  C   UNL     1      -3.869 -10.470   9.675  0.00  0.00    +0.084 C 
ENDBRANCH  20  21
ENDBRANCH  19  20
TORSDOF 6
ENDMDL
MODEL 5
REMARK VINA RESULT:      -8.7      4.604      6.093
REMARK  Name = 
REMARK  6 active torsions:
REMARK  status: ('A' for Active; 'I' for Inactive)
REMARK    1  A    between atoms: O_2  and  C_3
REMARK    2  A    between atoms: C_6  and  N_7
REMARK    3  A    between atoms: N_10  and  C_11
REMARK    4  A    between atoms: C_11  and  C_12
REMARK    5  A    between atoms: C_19  and  C_20
REMARK    6  A    between atoms: C_20  and  N_21
REMARK                            x       y       z     vdW  Elec       q    Type
REMARK                         _______ _______ _______ _____ _____    ______ ____
ROOT
ATOM     12  C   UNL     1      -0.742   1.147  23.824  0.00  0.00    +0.079 C 
ATOM     13  C   UNL     1      -1.414   1.451  23.574  0.00  0.00    +0.018 C 
ATOM     14  C   UNL     1      -2.152   1.162  23.738  0.00  0.00    +0.005 C 
ATOM     15  C   UNL     1      -2.796   1.655  23.356  0.00  0.00    +0.017 C 
ATOM     16  C   UNL     1      -2.181   1.491  23.505  0.00  0.00    +0.072 C 
ATOM     17  N   UNL     1      -1.498   0.859  23.987  0.00  0.00    -0.272 NA
ATOM     18  C   UNL     1      -1.786   0.144  24.476  0.00  0.00    +0.073 C 
ATOM     19  C   UNL     1      -2.422   0.473  24.210  0.00  0.00    +0.032 C 
ENDROOT
BRANCH  12  11
ATOM     11  C   UNL     1       0.080   1.128  23.882  0.00  0.00    +0.133 C 
BRANCH  11  10
ATOM      7  N   UNL     1       1.789   0.286  22.817  0.00  0.00    -0.161 NA
ATOM      8  C   UNL     1       1.347   0.714  23.366  0.00  0.00    +0.344 C 
ATOM      9  O   UNL     1       1.729   1.155  23.949  0.00  0.00    -0.249 OA
ATOM     10  N   UNL     1       0.523   0.700  23.332  0.00  0.00    -0.185 NA
BRANCH   7   6
ATOM      3  C   UNL     1       4.261   0.326  22.917  0.00  0.00    +0.139 A 
ATOM      4  C   UNL     1       3.849   0.984  22.641  0.00  0.00    +0.038 A 
ATOM      5  C   UNL     1       3.025   0.972  22.607  0.00  0.00    +0.020 A 
ATOM      6  C   UNL     1       2.613   0.300  22.850  0.00  0.00    +0.075 A 
ATOM     27  C   UNL     1       3.026  -0.360  23.126  0.00  0.00    +0.020 A 
ATOM     28  C   UNL     1       3.849  -0.346  23.160  0.00  0.00    +0.038 A 
BRANCH   3   2
ATOM      1  C   UNL     1       5.477   0.033  23.609  0.00  0.00    +0.252 C 
ATOM      2  O   UNL     1       5.086   0.340  22.950  0.00  0.00    -0.471 OA
ENDBRANCH   3   2
ENDBRANCH   7   6
ENDBRANCH  11  10
ENDBRANCH  12  11
BRANCH  19  20
ATOM     20  C   UNL     1      -3.201   0.231  24.339  0.00  0.00    +0.073 C 
BRANCH  20  21
ATOM     21  N   UNL     1      -3.357  -0.540  24.584  0.00  0.00    -0.271 NA
ATOM     22  C   UNL     1      -3.575  -1.112  24.031  0.00  0.00    +0.084 C 
ATOM     23  C   UNL     1      -3.732  -1.884  24.276  0.00  0.00    +0.075 C 
ATOM     24  S   UNL     1      -3.670  -2.085  25.073  0.00  0.00    -0.137 S 
ATOM     25  C   UNL     1      -3.452  -1.513  25.627  0.00  0.00    +0.075 C 
ATOM     26  C   UNL     1      -3.296  -0.741  25.382  0.00  0.00    +0.084 C 
ENDBRANCH  20  21
ENDBRANCH  19  20
TORSDOF 6
ENDMDL
MODEL 6
REMARK VINA RESULT:      -8.4     14.617     16.790
REMARK  Name = 
REMARK  6 active torsions:
REMARK  status: ('A' for Active; 'I' for Inactive)
REMARK    1  A    between atoms: O_2  and  C_3
REMARK    2  A    between atoms: C_6  and  N_7
REMARK    3  A    between atoms: N_10  and  C_11
REMARK    4  A    between atoms: C_11  and  C_12
REMARK    5  A    between atoms: C_19  and  C_20
REMARK    6  A    between atoms: C_20  and  N_21
REMARK                            x       y       z     vdW  Elec       q    Type
REMARK                         _______ _______ _______ _____ _____    ______ ____
ROOT
ATOM     12  C   UNL     1      -5.055 -10.407  14.650  0.00  0.00    +0.079 C 
ATOM     13  C   UNL     1      -4.668 -10.422  15.325  0.00  0.00    +0.018 C 
ATOM     14  C   UNL     1      -4.994 -10.311  16.058  0.00  0.00    +0.005 C 
ATOM     15  C   UNL     1      -4.379 -10.368  16.709  0.00  0.00    +0.017 C 
ATOM     16  C   UNL     1      -4.596 -10.377  16.093  0.00  0.00    +0.072 C 
ATOM     17  N   UNL     1      -5.380 -10.295  15.401  0.00  0.00    -0.272 NA
ATOM     18  C   UNL     1      -6.233 -10.128  15.678  0.00  0.00    +0.073 C 
ATOM     19  C   UNL     1      -5.817 -10.151  16.318  0.00  0.00    +0.032 C 
ENDROOT
BRANCH  12  11
ATOM     11  C   UNL     1      -5.103 -10.460  13.829  0.00  0.00    +0.133 C 
BRANCH  11  10
ATOM      7  N   UNL     1      -3.805 -10.213  12.093  0.00  0.00    -0.161 NA
ATOM      8  C   UNL     1      -4.485 -10.289  12.552  0.00  0.00    +0.344 C 
ATOM      9  O   UNL     1      -5.228 -10.270  12.195  0.00  0.00    -0.249 OA
ATOM     10  N   UNL     1      -4.423 -10.384  13.370  0.00  0.00    -0.185 NA
BRANCH   7   6
ATOM      3  C   UNL     1      -3.990  -9.926   9.642  0.00  0.00    +0.139 A 
ATOM      4  C   UNL     1      -3.941 -10.683   9.966  0.00  0.00    +0.038 A 
ATOM      5  C   UNL     1      -3.879 -10.779  10.783  0.00  0.00    +0.020 A 
ATOM      6  C   UNL     1      -3.866 -10.117  11.276  0.00  0.00    +0.075 A 
ATOM     27  C   UNL     1      -3.915  -9.360  10.952  0.00  0.00    +0.020 A 
ATOM     28  C   UNL     1      -3.977  -9.265  10.135  0.00  0.00    +0.038 A 
BRANCH   3   2
ATOM      1  C   UNL     1      -4.793  -9.723   8.477  0.00  0.00    +0.252 C 
ATOM      2  O   UNL     1      -4.052  -9.831   8.824  0.00  0.00    -0.471 OA
ENDBRANCH   3   2
ENDBRANCH   7   6
ENDBRANCH  11  10
ENDBRANCH  12  11
BRANCH  19  20
ATOM     20  C   UNL     1      -6.085 -10.047  17.092  0.00  0.00    +0.073 C 
BRANCH  20  21
ATOM     21  N   UNL     1      -6.894 -10.027  17.248  0.00  0.00    -0.271 NA
ATOM     22  C   UNL     1      -7.309  -9.316  17.184  0.00  0.00    +0.084 C 
ATOM     23  C   UNL     1      -8.119  -9.296  17.341  0.00  0.00    +0.075 C 
ATOM     24  S   UNL     1      -8.514  -9.985  17.561  0.00  0.00    -0.137 S 
ATOM     25  C   UNL     1      -8.100 -10.696  17.625  0.00  0.00    +0.075 C 
ATOM     26  C   UNL     1      -7.290 -10.716  17.468  0.00  0.00    +0.084 C 
ENDBRANCH  20  21
ENDBRANCH  19  20
TORSDOF 6
ENDMDL
