MODEL 1
REMARK VINA RESULT:      -8.6      0.000      0.000
REMARK  Name = 
REMARK  7 active torsions:
REMARK  status: ('A' for Active; 'I' for Inactive)
REMARK    1  A    between atoms: O_2  and  C_3
REMARK    2  A    between atoms: C_3  and  C_4
REMARK    3  A    between atoms: C_4  and  O_5
REMARK    4  A    between atoms: O_5  and  C_6
REMARK    5  A    between atoms: C_9  and  C_12
REMARK    6  A    between atoms: C_15  and  C_17
REMARK    7  A    between atoms: N_21  and  C_22
REMARK                            x       y       z     vdW  Elec       q    Type
REMARK                         _______ _______ _______ _____ _____    ______ ____
ROOT
ATOM     12  C   UNL     1      -4.122   0.914  24.733  0.00  0.00    +0.205 A 
ATOM     13  N   UNL     1      -4.825   0.666  25.088  0.00  0.00    -0.056 NA
ATOM     14  O   UNL     1      -4.876  -0.154  25.007  0.00  0.00    -0.336 OA
ATOM     15  C   UNL     1      -4.205  -0.412  24.603  0.00  0.00    +0.251 A 
ATOM     16  N   UNL     1      -3.739   0.248  24.434  0.00  0.00    -0.190 NA
ENDROOT
BRANCH  12   9
ATOM      6  C   UNL     1      -3.308   3.246  24.594  0.00  0.00    +0.225 A 
ATOM      7  C   UNL     1      -3.232   2.744  23.944  0.00  0.00    +0.058 A 
ATOM      8  C   UNL     1      -3.503   1.966  23.990  0.00  0.00    +0.010 A 
ATOM      9  C   UNL     1      -3.851   1.691  24.687  0.00  0.00    +0.058 A 
ATOM     10  C   UNL     1      -3.926   2.194  25.336  0.00  0.00    +0.105 A 
ATOM     11  N   UNL     1      -3.654   2.972  25.290  0.00  0.00    -0.210 NA
BRANCH   6   5
ATOM      5  O   UNL     1      -3.036   4.025  24.548  0.00  0.00    -0.457 OA
BRANCH   5   4
ATOM      4  C   UNL     1      -2.344   4.244  24.941  0.00  0.00    +0.239 C 
BRANCH   4   3
ATOM      3  C   UNL     1      -2.045   5.008  24.856  0.00  0.00    +0.189 C 
BRANCH   3   2
ATOM      1  C   UNL     1      -0.646   5.296  24.836  0.00  0.00    +0.174 C 
ATOM      2  O   UNL     1      -1.355   5.227  25.251  0.00  0.00    -0.347 OA
ENDBRANCH   3   2
ENDBRANCH   4   3
ENDBRANCH   5   4
ENDBRANCH   6   5
ENDBRANCH  12   9
BRANCH  15  17
ATOM     17  C   UNL     1      -4.030  -1.193  24.403  0.00  0.00    +0.138 C 
ATOM     18  C   UNL     1      -4.354  -1.616  23.772  0.00  0.00    +0.027 C 
ATOM     19  C   UNL     1      -4.025  -2.372  23.777  0.00  0.00    +0.019 C 
ATOM     20  C   UNL     1      -3.497  -2.417  24.410  0.00  0.00    +0.072 C 
ATOM     21  N   UNL     1      -3.500  -1.688  24.797  0.00  0.00    -0.268 NA
BRANCH  21  22
ATOM     22  C   UNL     1      -3.053  -1.489  25.460  0.00  0.00    +0.058 C 
ATOM     23  C   UNL     1      -3.384  -1.544  26.213  0.00  0.00    +0.017 C 
ATOM     24  C   UNL     1      -2.272  -1.235  25.370  0.00  0.00    +0.017 C 
ENDBRANCH  21  22
ENDBRANCH  15  17
TORSDOF 7
ENDMDL
MODEL 2
REMARK VINA RESULT:      -8.4      3.575      4.278
REMARK  Name = 
REMARK  7 active torsions:
REMARK  status: ('A' for Active; 'I' for Inactive)
REMARK    1  A    between atoms: O_2  and  C_3
REMARK    2  A    between atoms: C_3  and  C_4
REMARK    3  A    between atoms: C_4  and  O_5
REMARK    4  A    between atoms: O_5  and  C_6
REMARK    5  A    between atoms: C_9  and  C_12
REMARK    6  A    between atoms: C_15  and  C_17
REMARK    7  A    between atoms: N_21  and  C_22
REMARK                            x       y       z     vdW  Elec       q    Type
REMARK                         _______ _______ _______ _____ _____    ______ ____
ROOT
ATOM     12  C   UNL     1      -1.216   0.180  24.573  0.00  0.00    +0.205 A 
ATOM     13  N   UNL     1      -1.258   0.119  25.395  0.00  0.00    -0.056 NA
ATOM     14  O   UNL     1      -2.050   0.189  25.616  0.00  0.00    -0.336 OA
ATOM     15  C   UNL     1      -2.497   0.294  24.931  0.00  0.00    +0.251 A 
ATOM     16  N   UNL     1      -1.982   0.288  24.286  0.00  0.00    -0.190 NA
ENDROOT
BRANCH  12   9
ATOM      6  C   UNL     1       0.845   0.060  23.210  0.00  0.00    +0.225 A 
ATOM      7  C   UNL     1       0.515  -0.630  23.520  0.00  0.00    +0.058 A 
ATOM      8  C   UNL     1      -0.172  -0.590  23.975  0.00  0.00    +0.010 A 
ATOM      9  C   UNL     1      -0.530   0.140  24.119  0.00  0.00    +0.058 A 
ATOM     10  C   UNL     1      -0.199   0.829  23.809  0.00  0.00    +0.105 A 
ATOM     11  N   UNL     1       0.488   0.789  23.354  0.00  0.00    -0.210 NA
BRANCH   6   5
ATOM      5  O   UNL     1       1.533   0.020  22.755  0.00  0.00    -0.457 OA
BRANCH   5   4
ATOM      4  C   UNL     1       2.218   0.403  23.009  0.00  0.00    +0.239 C 
BRANCH   4   3
ATOM      3  C   UNL     1       2.931   0.285  22.610  0.00  0.00    +0.189 C 
BRANCH   3   2
ATOM      1  C   UNL     1       4.325   0.542  22.784  0.00  0.00    +0.174 C 
ATOM      2  O   UNL     1       3.552   0.818  22.707  0.00  0.00    -0.347 OA
ENDBRANCH   3   2
ENDBRANCH   4   3
ENDBRANCH   5   4
ENDBRANCH   6   5
ENDBRANCH  12   9
BRANCH  15  17
ATOM     17  C   UNL     1      -3.316   0.388  24.896  0.00  0.00    +0.138 C 
ATOM     18  C   UNL     1      -3.718   1.102  24.796  0.00  0.00    +0.027 C 
ATOM     19  C   UNL     1      -4.527   0.940  24.792  0.00  0.00    +0.019 C 
ATOM     20  C   UNL     1      -4.625   0.127  24.890  0.00  0.00    +0.072 C 
ATOM     21  N   UNL     1      -3.876  -0.215  24.953  0.00  0.00    -0.268 NA
BRANCH  21  22
ATOM     22  C   UNL     1      -3.717  -1.017  25.057  0.00  0.00    +0.058 C 
ATOM     23  C   UNL     1      -3.569  -1.315  25.811  0.00  0.00    +0.017 C 
ATOM     24  C   UNL     1      -3.705  -1.522  24.404  0.00  0.00    +0.017 C 
ENDBRANCH  21  22
ENDBRANCH  15  17
TORSDOF 7
ENDMDL
MODEL 3
REMARK VINA RESULT:      -8.3      2.138      5.734
REMARK  Name = 
REMARK  7 active torsions:
REMARK  status: ('A' for Active; 'I' for Inactive)
REMARK    1  A    between atoms: O_2  and  C_3
REMARK    2  A    between atoms: C_3  and  C_4
REMARK    3  A    between atoms: C_4  and  O_5
REMARK    4  A    between atoms: O_5  and  C_6
REMARK    5  A    between atoms: C_9  and  C_12
REMARK    6  A    between atoms: C_15  and  C_17
REMARK    7  A    between atoms: N_21  and  C_22
REMARK                            x       y       z     vdW  Elec       q    Type
REMARK                         _______ _______ _______ _____ _____    ______ ____
ROOT
ATOM     12  C   UNL     1      -0.923   1.808  25.481  0.00  0.00    +0.205 A 
ATOM     13  N   UNL     1      -0.534   2.073  26.160  0.00  0.00    -0.056 NA
ATOM     14  O   UNL     1      -0.556   2.898  26.160  0.00  0.00    -0.336 OA
ATOM     15  C   UNL     1      -0.958   3.143  25.482  0.00  0.00    +0.251 A 
ATOM     16  N   UNL     1      -1.185   2.469  25.063  0.00  0.00    -0.190 NA
ENDROOT
BRANCH  12   9
ATOM      6  C   UNL     1      -1.246  -0.554  24.821  0.00  0.00    +0.225 A 
ATOM      7  C   UNL     1      -1.355  -0.327  25.607  0.00  0.00    +0.058 A 
ATOM      8  C   UNL     1      -1.247   0.460  25.827  0.00  0.00    +0.010 A 
ATOM      9  C   UNL     1      -1.031   1.022  25.261  0.00  0.00    +0.058 A 
ATOM     10  C   UNL     1      -0.923   0.794  24.476  0.00  0.00    +0.105 A 
ATOM     11  N   UNL     1      -1.031   0.006  24.256  0.00  0.00    -0.210 NA
BRANCH   6   5
ATOM      5  O   UNL     1      -1.354  -1.342  24.600  0.00  0.00    -0.457 OA
BRANCH   5   4
ATOM      4  C   UNL     1      -2.091  -1.701  24.699  0.00  0.00    +0.239 C 
BRANCH   4   3
ATOM      3  C   UNL     1      -2.244  -2.434  24.353  0.00  0.00    +0.189 C 
BRANCH   3   2
ATOM      1  C   UNL     1      -3.602  -2.856  24.223  0.00  0.00    +0.174 C 
ATOM      2  O   UNL     1      -2.878  -2.890  24.616  0.00  0.00    -0.347 OA
ENDBRANCH   3   2
ENDBRANCH   4   3
ENDBRANCH   5   4
ENDBRANCH   6   5
ENDBRANCH  12   9
BRANCH  15  17
ATOM     17  C   UNL     1      -1.108   3.924  25.262  0.00  0.00    +0.138 C 
ATOM     18  C   UNL     1      -0.568   4.440  24.912  0.00  0.00    +0.027 C 
ATOM     19  C   UNL     1      -0.949   5.161  24.786  0.00  0.00    +0.019 C 
ATOM     20  C   UNL     1      -1.725   5.090  25.059  0.00  0.00    +0.072 C 
ATOM     21  N   UNL     1      -1.823   4.325  25.353  0.00  0.00    -0.268 NA
BRANCH  21  22
ATOM     22  C   UNL     1      -2.514   4.017  25.681  0.00  0.00    +0.058 C 
ATOM     23  C   UNL     1      -2.630   4.039  26.497  0.00  0.00    +0.017 C 
ATOM     24  C   UNL     1      -3.089   3.685  25.191  0.00  0.00    +0.017 C 
ENDBRANCH  21  22
ENDBRANCH  15  17
TORSDOF 7
ENDMDL
MODEL 4
REMARK VINA RESULT:      -8.3      2.903      4.387
REMARK  Name = 
REMARK  7 active torsions:
REMARK  status: ('A' for Active; 'I' for Inactive)
REMARK    1  A    between atoms: O_2  and  C_3
REMARK    2  A    between atoms: C_3  and  C_4
REMARK    3  A    between atoms: C_4  and  O_5
REMARK    4  A    between atoms: O_5  and  C_6
REMARK    5  A    between atoms: C_9  and  C_12
REMARK    6  A    between atoms: C_15  and  C_17
REMARK    7  A    between atoms: N_21  and  C_22
REMARK                            x       y       z     vdW  Elec       q    Type
REMARK                         _______ _______ _______ _____ _____    ______ ____
ROOT
ATOM     12  C   UNL     1      -2.806   1.668  24.038  0.00  0.00    +0.205 A 
ATOM     13  N   UNL     1      -3.195   2.036  23.410  0.00  0.00    -0.056 NA
ATOM     14  O   UNL     1      -3.936   2.282  23.677  0.00  0.00    -0.336 OA
ATOM     15  C   UNL     1      -4.005   2.066  24.471  0.00  0.00    +0.251 A 
ATOM     16  N   UNL     1      -3.307   1.687  24.693  0.00  0.00    -0.190 NA
ENDROOT
BRANCH  12   9
ATOM      6  C   UNL     1      -0.538   0.682  23.967  0.00  0.00    +0.225 A 
ATOM      7  C   UNL     1      -1.193   0.200  24.114  0.00  0.00    +0.058 A 
ATOM      8  C   UNL     1      -1.949   0.529  24.138  0.00  0.00    +0.010 A 
ATOM      9  C   UNL     1      -2.051   1.339  24.014  0.00  0.00    +0.058 A 
ATOM     10  C   UNL     1      -1.396   1.819  23.868  0.00  0.00    +0.105 A 
ATOM     11  N   UNL     1      -0.640   1.490  23.844  0.00  0.00    -0.210 NA
BRANCH   6   5
ATOM      5  O   UNL     1       0.219   0.352  23.943  0.00  0.00    -0.457 OA
BRANCH   5   4
ATOM      4  C   UNL     1       0.579   0.199  23.217  0.00  0.00    +0.239 C 
BRANCH   4   3
ATOM      3  C   UNL     1       1.386   0.031  23.182  0.00  0.00    +0.189 C 
BRANCH   3   2
ATOM      1  C   UNL     1       2.578   0.007  22.396  0.00  0.00    +0.174 C 
ATOM      2  O   UNL     1       1.758  -0.059  22.452  0.00  0.00    -0.347 OA
ENDBRANCH   3   2
ENDBRANCH   4   3
ENDBRANCH   5   4
ENDBRANCH   6   5
ENDBRANCH  12   9
BRANCH  15  17
ATOM     17  C   UNL     1      -4.657   2.205  24.956  0.00  0.00    +0.138 C 
ATOM     18  C   UNL     1      -5.262   1.669  25.120  0.00  0.00    +0.027 C 
ATOM     19  C   UNL     1      -5.798   2.037  25.628  0.00  0.00    +0.019 C 
ATOM     20  C   UNL     1      -5.524   2.801  25.779  0.00  0.00    +0.072 C 
ATOM     21  N   UNL     1      -4.819   2.905  25.363  0.00  0.00    -0.268 NA
BRANCH  21  22
ATOM     22  C   UNL     1      -4.357   3.588  25.356  0.00  0.00    +0.058 C 
ATOM     23  C   UNL     1      -3.801   3.717  25.951  0.00  0.00    +0.017 C 
ATOM     24  C   UNL     1      -4.451   4.143  24.752  0.00  0.00    +0.017 C 
ENDBRANCH  21  22
ENDBRANCH  15  17
TORSDOF 7
ENDMDL
MODEL 5
REMARK VINA RESULT:      -8.0      1.256      5.318
REMARK  Name = 
REMARK  7 active torsions:
REMARK  status: ('A' for Active; 'I' for Inactive)
REMARK    1  A    between atoms: O_2  and  C_3
REMARK    2  A    between atoms: C_3  and  C_4
REMARK    3  A    between atoms: C_4  and  O_5
REMARK    4  A    between atoms: O_5  and  C_6
REMARK    5  A    between atoms: C_9  and  C_12
REMARK    6  A    between atoms: C_15  and  C_17
REMARK    7  A    between atoms: N_21  and  C_22
REMARK                            x       y       z     vdW  Elec       q    Type
REMARK                         _______ _______ _______ _____ _____    ______ ____
ROOT
ATOM     12  C   UNL     1      -3.380   2.125  24.254  0.00  0.00    +0.205 A 
ATOM     13  N   UNL     1      -3.782   2.772  23.934  0.00  0.00    -0.056 NA
ATOM     14  O   UNL     1      -3.343   3.451  24.099  0.00  0.00    -0.336 OA
ATOM     15  C   UNL     1      -2.671   3.225  24.520  0.00  0.00    +0.251 A 
ATOM     16  N   UNL     1      -2.694   2.405  24.616  0.00  0.00    -0.190 NA
ENDROOT
BRANCH  12   9
ATOM      6  C   UNL     1      -4.108  -0.237  24.146  0.00  0.00    +0.225 A 
ATOM      7  C   UNL     1      -4.402   0.258  24.738  0.00  0.00    +0.058 A 
ATOM      8  C   UNL     1      -4.159   1.046  24.774  0.00  0.00    +0.010 A 
ATOM      9  C   UNL     1      -3.623   1.339  24.218  0.00  0.00    +0.058 A 
ATOM     10  C   UNL     1      -3.330   0.843  23.628  0.00  0.00    +0.105 A 
ATOM     11  N   UNL     1      -3.573   0.055  23.592  0.00  0.00    -0.210 NA
BRANCH   6   5
ATOM      5  O   UNL     1      -4.351  -1.025  24.110  0.00  0.00    -0.457 OA
BRANCH   5   4
ATOM      4  C   UNL     1      -3.849  -1.624  24.377  0.00  0.00    +0.239 C 
BRANCH   4   3
ATOM      3  C   UNL     1      -4.010  -2.412  24.193  0.00  0.00    +0.189 C 
BRANCH   3   2
ATOM      1  C   UNL     1      -2.916  -3.258  24.546  0.00  0.00    +0.174 C 
ATOM      2  O   UNL     1      -3.696  -3.017  24.656  0.00  0.00    -0.347 OA
ENDBRANCH   3   2
ENDBRANCH   4   3
ENDBRANCH   5   4
ENDBRANCH   6   5
ENDBRANCH  12   9
BRANCH  15  17
ATOM     17  C   UNL     1      -2.080   3.729  24.797  0.00  0.00    +0.138 C 
ATOM     18  C   UNL     1      -1.342   3.850  24.446  0.00  0.00    +0.027 C 
ATOM     19  C   UNL     1      -0.928   4.396  24.905  0.00  0.00    +0.019 C 
ATOM     20  C   UNL     1      -1.409   4.613  25.540  0.00  0.00    +0.072 C 
ATOM     21  N   UNL     1      -2.121   4.200  25.473  0.00  0.00    -0.268 NA
BRANCH  21  22
ATOM     22  C   UNL     1      -2.761   4.251  25.990  0.00  0.00    +0.058 C 
ATOM     23  C   UNL     1      -2.788   3.772  26.661  0.00  0.00    +0.017 C 
ATOM     24  C   UNL     1      -3.375   4.781  25.837  0.00  0.00    +0.017 C 
ENDBRANCH  21  22
ENDBRANCH  15  17
TORSDOF 7
ENDMDL
MODEL 6
REMARK VINA RESULT:      -8.0      2.021      2.476
REMARK  Name = 
REMARK  7 active torsions:
REMARK  status: ('A' for Active; 'I' for Inactive)
REMARK    1  A    between atoms: O_2  and  C_3
REMARK    2  A    between atoms: C_3  and  C_4
REMARK    3  A    between atoms: C_4  and  O_5
REMARK    4  A    between atoms: O_5  and  C_6
REMARK    5  A    between atoms: C_9  and  C_12
REMARK    6  A    between atoms: C_15  and  C_17
REMARK    7  A    between atoms: N_21  and  C_22
REMARK                            x       y       z     vdW  Elec       q    Type
REMARK                         _______ _______ _______ _____ _____    ______ ____
ROOT
ATOM     12  C   UNL     1      -1.146  -0.105  25.037  0.00  0.00    +0.205 A 
ATOM     13  N   UNL     1      -0.737  -0.673  25.475  0.00  0.00    -0.056 NA
ATOM     14  O   UNL     1      -1.153  -1.384  25.421  0.00  0.00    -0.336 OA
ATOM     15  C   UNL     1      -1.818  -1.255  24.950  0.00  0.00    +0.251 A 
ATOM     16  N   UNL     1      -1.813  -0.465  24.713  0.00  0.00    -0.190 NA
ENDROOT
BRANCH  12   9
ATOM      6  C   UNL     1      -0.484   2.261  24.749  0.00  0.00    +0.225 A 
ATOM      7  C   UNL     1      -0.518   1.932  25.505  0.00  0.00    +0.058 A 
ATOM      8  C   UNL     1      -0.738   1.143  25.601  0.00  0.00    +0.010 A 
ATOM      9  C   UNL     1      -0.925   0.683  24.941  0.00  0.00    +0.058 A 
ATOM     10  C   UNL     1      -0.891   1.013  24.186  0.00  0.00    +0.105 A 
ATOM     11  N   UNL     1      -0.670   1.802  24.090  0.00  0.00    -0.210 NA
BRANCH   6   5
ATOM      5  O   UNL     1      -0.263   3.051  24.652  0.00  0.00    -0.457 OA
BRANCH   5   4
ATOM      4  C   UNL     1      -0.732   3.652  24.968  0.00  0.00    +0.239 C 
BRANCH   4   3
ATOM      3  C   UNL     1      -0.682   4.418  24.666  0.00  0.00    +0.189 C 
BRANCH   3   2
ATOM      1  C   UNL     1      -1.585   5.451  25.063  0.00  0.00    +0.174 C 
ATOM      2  O   UNL     1      -0.862   5.064  25.147  0.00  0.00    -0.347 OA
ENDBRANCH   3   2
ENDBRANCH   4   3
ENDBRANCH   5   4
ENDBRANCH   6   5
ENDBRANCH  12   9
BRANCH  15  17
ATOM     17  C   UNL     1      -2.387  -1.818  24.751  0.00  0.00    +0.138 C 
ATOM     18  C   UNL     1      -2.296  -2.428  24.203  0.00  0.00    +0.027 C 
ATOM     19  C   UNL     1      -3.000  -2.856  24.178  0.00  0.00    +0.019 C 
ATOM     20  C   UNL     1      -3.527  -2.511  24.710  0.00  0.00    +0.072 C 
ATOM     21  N   UNL     1      -3.149  -1.869  25.065  0.00  0.00    -0.268 NA
BRANCH  21  22
ATOM     22  C   UNL     1      -3.474  -1.368  25.632  0.00  0.00    +0.058 C 
ATOM     23  C   UNL     1      -3.327  -1.500  26.433  0.00  0.00    +0.017 C 
ATOM     24  C   UNL     1      -3.948  -0.733  25.399  0.00  0.00    +0.017 C 
ENDBRANCH  21  22
ENDBRANCH  15  17
TORSDOF 7
ENDMDL
MODEL 7
REMARK VINA RESULT:      -6.5     18.241     19.955
REMARK  Name = 
REMARK  7 active torsions:
REMARK  status: ('A' for Active; 'I' for Inactive)
REMARK    1  A    between atoms: O_2  and  C_3
REMARK    2  A    between atoms: C_3  and  C_4
REMARK    3  A    between atoms: C_4  and  O_5
REMARK    4  A    between atoms: O_5  and  C_6
REMARK    5  A    between atoms: C_9  and  C_12
REMARK    6  A    between atoms: C_15  and  C_17
REMARK    7  A    between atoms: N_21  and  C_22
REMARK                            x       y       z     vdW  Elec       q    Type
REMARK                         _______ _______ _______ _____ _____    ______ ____
ROOT
ATOM     12  C   UNL     1      14.120   7.783  20.439  0.00  0.00    +0.205 A 
ATOM     13  N   UNL     1      14.123   7.328  21.128  0.00  0.00    -0.056 NA
ATOM     14  O   UNL     1      14.848   7.441  21.505  0.00  0.00    -0.336 OA
ATOM     15  C   UNL     1      15.294   7.965  21.049  0.00  0.00    +0.251 A 
ATOM     16  N   UNL     1      14.844   8.177  20.391  0.00  0.00    -0.190 NA
ENDROOT
BRANCH  12   9
ATOM      6  C   UNL     1      12.268   7.938  18.807  0.00  0.00    +0.225 A 
ATOM      7  C   UNL     1      12.364   8.526  19.377  0.00  0.00    +0.058 A 
ATOM      8  C   UNL     1      12.982   8.475  19.922  0.00  0.00    +0.010 A 
ATOM      9  C   UNL     1      13.503   7.835  19.895  0.00  0.00    +0.058 A 
ATOM     10  C   UNL     1      13.406   7.248  19.324  0.00  0.00    +0.105 A 
ATOM     11  N   UNL     1      12.788   7.299  18.780  0.00  0.00    -0.210 NA
BRANCH   6   5
ATOM      5  O   UNL     1      11.649   7.990  18.261  0.00  0.00    -0.457 OA
BRANCH   5   4
ATOM      4  C   UNL     1      11.787   8.305  17.511  0.00  0.00    +0.239 C 
BRANCH   4   3
ATOM      3  C   UNL     1      11.152   8.490  17.017  0.00  0.00    +0.189 C 
BRANCH   3   2
ATOM      1  C   UNL     1      10.655   8.995  15.777  0.00  0.00    +0.174 C 
ATOM      2  O   UNL     1      11.290   8.800  16.266  0.00  0.00    -0.347 OA
ENDBRANCH   3   2
ENDBRANCH   4   3
ENDBRANCH   5   4
ENDBRANCH   6   5
ENDBRANCH  12   9
BRANCH  15  17
ATOM     17  C   UNL     1      16.055   8.232  21.222  0.00  0.00    +0.138 C 
ATOM     18  C   UNL     1      16.250   8.964  21.547  0.00  0.00    +0.027 C 
ATOM     19  C   UNL     1      17.071   8.998  21.626  0.00  0.00    +0.019 C 
ATOM     20  C   UNL     1      17.383   8.286  21.349  0.00  0.00    +0.072 C 
ATOM     21  N   UNL     1      16.755   7.813  21.099  0.00  0.00    -0.268 NA
BRANCH  21  22
ATOM     22  C   UNL     1      16.817   7.054  20.782  0.00  0.00    +0.058 C 
ATOM     23  C   UNL     1      16.743   6.395  21.272  0.00  0.00    +0.017 C 
ATOM     24  C   UNL     1      16.953   6.954  19.974  0.00  0.00    +0.017 C 
ENDBRANCH  21  22
ENDBRANCH  15  17
TORSDOF 7
ENDMDL
MODEL 8
REMARK VINA RESULT:      -4.7     16.680     19.621
REMARK  Name = 
REMARK  7 active torsions:
REMARK  status: ('A' for Active; 'I' for Inactive)
REMARK    1  A    between atoms: O_2  and  C_3
REMARK    2  A    between atoms: C_3  and  C_4
REMARK    3  A    between atoms: C_4  and  O_5
REMARK    4  A    between atoms: O_5  and  C_6
REMARK    5  A    between atoms: C_9  and  C_12
REMARK    6  A    between atoms: C_15  and  C_17
REMARK    7  A    between atoms: N_21  and  C_22
REMARK                            x       y       z     vdW  Elec       q    Type
REMARK                         _______ _______ _______ _____ _____    ______ ____
ROOT
ATOM     12  C   UNL     1      14.519   7.704  19.599  0.00  0.00    +0.205 A 
ATOM     13  N   UNL     1      15.008   8.286  19.279  0.00  0.00    -0.056 NA
ATOM     14  O   UNL     1      15.743   7.945  19.122  0.00  0.00    -0.336 OA
ATOM     15  C   UNL     1      15.708   7.151  19.345  0.00  0.00    +0.251 A 
ATOM     16  N   UNL     1      14.951   7.003  19.640  0.00  0.00    -0.190 NA
ENDROOT
BRANCH  12   9
ATOM      6  C   UNL     1      12.169   8.007  20.311  0.00  0.00    +0.225 A 
ATOM      7  C   UNL     1      12.763   8.476  20.640  0.00  0.00    +0.058 A 
ATOM      8  C   UNL     1      13.547   8.375  20.402  0.00  0.00    +0.010 A 
ATOM      9  C   UNL     1      13.736   7.805  19.836  0.00  0.00    +0.058 A 
ATOM     10  C   UNL     1      13.142   7.337  19.508  0.00  0.00    +0.105 A 
ATOM     11  N   UNL     1      12.358   7.438  19.745  0.00  0.00    -0.210 NA
BRANCH   6   5
ATOM      5  O   UNL     1      11.385   8.109  20.548  0.00  0.00    -0.457 OA
BRANCH   5   4
ATOM      4  C   UNL     1      11.086   7.672  21.182  0.00  0.00    +0.239 C 
BRANCH   4   3
ATOM      3  C   UNL     1      10.333   7.834  21.478  0.00  0.00    +0.189 C 
BRANCH   3   2
ATOM      1  C   UNL     1       9.910   6.812  22.380  0.00  0.00    +0.174 C 
ATOM      2  O   UNL     1      10.128   7.594  22.239  0.00  0.00    -0.347 OA
ENDBRANCH   3   2
ENDBRANCH   4   3
ENDBRANCH   5   4
ENDBRANCH   6   5
ENDBRANCH  12   9
BRANCH  15  17
ATOM     17  C   UNL     1      16.321   6.603  19.285  0.00  0.00    +0.138 C 
ATOM     18  C   UNL     1      16.453   6.092  18.650  0.00  0.00    +0.027 C 
ATOM     19  C   UNL     1      17.123   5.642  18.820  0.00  0.00    +0.019 C 
ATOM     20  C   UNL     1      17.405   5.875  19.560  0.00  0.00    +0.072 C 
ATOM     21  N   UNL     1      16.909   6.469  19.847  0.00  0.00    -0.268 NA
BRANCH  21  22
ATOM     22  C   UNL     1      16.988   6.859  20.569  0.00  0.00    +0.058 C 
ATOM     23  C   UNL     1      17.397   7.574  20.609  0.00  0.00    +0.017 C 
ATOM     24  C   UNL     1      16.657   6.534  21.252  0.00  0.00    +0.017 C 
ENDBRANCH  21  22
ENDBRANCH  15  17
TORSDOF 7
ENDMDL
