MODEL 1
REMARK VINA RESULT:     -13.4      0.000      0.000
REMARK  Name = 
REMARK  6 active torsions:
REMARK  status: ('A' for Active; 'I' for Inactive)
REMARK    1  A    between atoms: O_2  and  C_3
REMARK    2  A    between atoms: C_3  and  C_5
REMARK    3  A    between atoms: C_18  and  N_30
REMARK    4  A    between atoms: C_20  and  C_22
REMARK    5  A    between atoms: N_30  and  C_31
REMARK    6  A    between atoms: C_31  and  C_32
REMARK                            x       y       z     vdW  Elec       q    Type
REMARK                         _______ _______ _______ _____ _____    ______ ____
ROOT
ATOM      5  C   UNL     1      -3.863   2.971  25.091  0.00  0.00    +0.162 C 
ATOM      6  C   UNL     1      -3.366   3.627  25.127  0.00  0.00    +0.055 C 
ATOM      7  C   UNL     1      -2.555   3.537  25.004  0.00  0.00    -0.004 A 
ATOM      8  C   UNL     1      -2.241   2.791  24.845  0.00  0.00    +0.070 A 
ATOM      9  N   UNL     1      -1.426   2.872  24.748  0.00  0.00    -0.249 NA
ATOM     10  C   UNL     1      -1.235   3.669  24.847  0.00  0.00    +0.081 A 
ATOM     11  C   UNL     1      -1.933   4.080  25.006  0.00  0.00    +0.015 A 
ATOM     12  C   UNL     1      -1.912   4.895  25.130  0.00  0.00    +0.001 A 
ATOM     13  C   UNL     1      -1.193   5.300  25.097  0.00  0.00    +0.000 A 
ATOM     14  C   UNL     1      -0.495   4.887  24.939  0.00  0.00    +0.002 A 
ATOM     15  C   UNL     1      -0.516   4.072  24.814  0.00  0.00    +0.019 A 
ATOM     16  C   UNL     1      -2.739   2.134  24.809  0.00  0.00    +0.100 C 
ATOM     17  C   UNL     1      -2.427   1.388  24.650  0.00  0.00    +0.040 C 
ATOM     18  C   UNL     1      -2.924   0.731  24.614  0.00  0.00    +0.077 C 
ATOM     19  C   UNL     1      -3.735   0.821  24.737  0.00  0.00    +0.038 C 
ATOM     20  C   UNL     1      -4.047   1.567  24.896  0.00  0.00    +0.082 C 
ATOM     21  N   UNL     1      -3.550   2.224  24.932  0.00  0.00    -0.258 NA
ENDROOT
BRANCH  20  22
ATOM     22  C   UNL     1      -4.859   1.656  25.019  0.00  0.00    -0.005 A 
ATOM     23  C   UNL     1      -5.181   1.513  25.764  0.00  0.00    +0.029 A 
ATOM     24  C   UNL     1      -5.992   1.602  25.886  0.00  0.00    +0.167 A 
ATOM     25  F   UNL     1      -6.315   1.459  26.632  0.00  0.00    -0.202 F 
ATOM     26  C   UNL     1      -6.481   1.834  25.263  0.00  0.00    +0.167 A 
ATOM     27  F   UNL     1      -7.292   1.923  25.386  0.00  0.00    -0.202 F 
ATOM     28  C   UNL     1      -6.158   1.977  24.518  0.00  0.00    +0.032 A 
ATOM     29  C   UNL     1      -5.347   1.888  24.395  0.00  0.00    -0.001 A 
ENDBRANCH  20  22
BRANCH   5   3
ATOM      3  C   UNL     1      -4.674   3.060  25.214  0.00  0.00    +0.332 C 
ATOM      4  O   UNL     1      -5.476   2.913  25.089  0.00  0.00    -0.249 OA
BRANCH   3   2
ATOM      1  C   UNL     1      -5.246   4.325  25.552  0.00  0.00    +0.256 C 
ATOM      2  O   UNL     1      -4.949   3.591  25.782  0.00  0.00    -0.443 OA
ENDBRANCH   3   2
ENDBRANCH   5   3
BRANCH  18  30
ATOM     30  N   UNL     1      -2.611  -0.016  24.455  0.00  0.00    -0.215 NA
BRANCH  30  31
ATOM     31  C   UNL     1      -2.608  -0.596  25.042  0.00  0.00    +0.116 C 
BRANCH  31  32
ATOM     32  C   UNL     1      -2.435  -1.379  24.848  0.00  0.00    +0.014 A 
ATOM     33  C   UNL     1      -3.045  -1.930  24.780  0.00  0.00    +0.000 A 
ATOM     34  C   UNL     1      -2.873  -2.713  24.586  0.00  0.00    +0.020 A 
ATOM     35  C   UNL     1      -2.091  -2.945  24.459  0.00  0.00    +0.099 A 
ATOM     36  N   UNL     1      -1.481  -2.393  24.527  0.00  0.00    -0.243 NA
ATOM     37  C   UNL     1      -1.654  -1.609  24.721  0.00  0.00    +0.096 A 
ENDBRANCH  31  32
ENDBRANCH  30  31
ENDBRANCH  18  30
TORSDOF 6
ENDMDL
MODEL 2
REMARK VINA RESULT:     -12.4      2.409      4.615
REMARK  Name = 
REMARK  6 active torsions:
REMARK  status: ('A' for Active; 'I' for Inactive)
REMARK    1  A    between atoms: O_2  and  C_3
REMARK    2  A    between atoms: C_3  and  C_5
REMARK    3  A    between atoms: C_18  and  N_30
REMARK    4  A    between atoms: C_20  and  C_22
REMARK    5  A    between atoms: N_30  and  C_31
REMARK    6  A    between atoms: C_31  and  C_32
REMARK                            x       y       z     vdW  Elec       q    Type
REMARK                         _______ _______ _______ _____ _____    ______ ____
ROOT
ATOM      5  C   UNL     1      -2.025  -0.597  24.490  0.00  0.00    +0.162 C 
ATOM      6  C   UNL     1      -1.274  -0.286  24.351  0.00  0.00    +0.055 C 
ATOM      7  C   UNL     1      -1.147   0.527  24.411  0.00  0.00    -0.004 A 
ATOM      8  C   UNL     1      -1.771   1.030  24.608  0.00  0.00    +0.070 A 
ATOM      9  N   UNL     1      -1.482   1.801  24.626  0.00  0.00    -0.249 NA
ATOM     10  C   UNL     1      -0.678   1.778  24.439  0.00  0.00    +0.081 A 
ATOM     11  C   UNL     1      -0.472   0.990  24.306  0.00  0.00    +0.015 A 
ATOM     12  C   UNL     1       0.305   0.795  24.107  0.00  0.00    +0.001 A 
ATOM     13  C   UNL     1       0.875   1.389  24.041  0.00  0.00    +0.000 A 
ATOM     14  C   UNL     1       0.668   2.177  24.174  0.00  0.00    +0.002 A 
ATOM     15  C   UNL     1      -0.109   2.371  24.373  0.00  0.00    +0.019 A 
ATOM     16  C   UNL     1      -2.523   0.718  24.747  0.00  0.00    +0.100 C 
ATOM     17  C   UNL     1      -3.147   1.219  24.945  0.00  0.00    +0.040 C 
ATOM     18  C   UNL     1      -3.898   0.908  25.083  0.00  0.00    +0.077 C 
ATOM     19  C   UNL     1      -4.025   0.095  25.024  0.00  0.00    +0.038 C 
ATOM     20  C   UNL     1      -3.400  -0.406  24.826  0.00  0.00    +0.082 C 
ATOM     21  N   UNL     1      -2.650  -0.095  24.688  0.00  0.00    -0.258 NA
ENDROOT
BRANCH  20  22
ATOM     22  C   UNL     1      -3.528  -1.219  24.767  0.00  0.00    -0.005 A 
ATOM     23  C   UNL     1      -3.859  -1.537  24.082  0.00  0.00    +0.029 A 
ATOM     24  C   UNL     1      -3.987  -2.350  24.023  0.00  0.00    +0.167 A 
ATOM     25  F   UNL     1      -4.318  -2.667  23.337  0.00  0.00    -0.202 F 
ATOM     26  C   UNL     1      -3.782  -2.845  24.651  0.00  0.00    +0.167 A 
ATOM     27  F   UNL     1      -3.910  -3.659  24.592  0.00  0.00    -0.202 F 
ATOM     28  C   UNL     1      -3.451  -2.528  25.336  0.00  0.00    +0.032 A 
ATOM     29  C   UNL     1      -3.324  -1.715  25.394  0.00  0.00    -0.001 A 
ENDBRANCH  20  22
BRANCH   5   3
ATOM      3  C   UNL     1      -2.152  -1.410  24.430  0.00  0.00    +0.332 C 
ATOM      4  O   UNL     1      -2.563  -2.095  24.226  0.00  0.00    -0.249 OA
BRANCH   3   2
ATOM      1  C   UNL     1      -1.069  -2.313  24.199  0.00  0.00    +0.256 C 
ATOM      2  O   UNL     1      -1.588  -1.938  24.719  0.00  0.00    -0.443 OA
ENDBRANCH   3   2
ENDBRANCH   5   3
BRANCH  18  30
ATOM     30  N   UNL     1      -4.523   1.410  25.281  0.00  0.00    -0.215 NA
BRANCH  30  31
ATOM     31  C   UNL     1      -4.715   2.043  24.789  0.00  0.00    +0.116 C 
BRANCH  31  32
ATOM     32  C   UNL     1      -5.090   2.709  25.100  0.00  0.00    +0.014 A 
ATOM     33  C   UNL     1      -4.754   3.455  25.000  0.00  0.00    +0.000 A 
ATOM     34  C   UNL     1      -5.130   4.121  25.312  0.00  0.00    +0.020 A 
ATOM     35  C   UNL     1      -5.841   4.039  25.723  0.00  0.00    +0.099 A 
ATOM     36  N   UNL     1      -6.176   3.292  25.823  0.00  0.00    -0.243 NA
ATOM     37  C   UNL     1      -5.800   2.626  25.511  0.00  0.00    +0.096 A 
ENDBRANCH  31  32
ENDBRANCH  30  31
ENDBRANCH  18  30
TORSDOF 6
ENDMDL
MODEL 3
REMARK VINA RESULT:     -12.3      2.371      3.209
REMARK  Name = 
REMARK  6 active torsions:
REMARK  status: ('A' for Active; 'I' for Inactive)
REMARK    1  A    between atoms: O_2  and  C_3
REMARK    2  A    between atoms: C_3  and  C_5
REMARK    3  A    between atoms: C_18  and  N_30
REMARK    4  A    between atoms: C_20  and  C_22
REMARK    5  A    between atoms: N_30  and  C_31
REMARK    6  A    between atoms: C_31  and  C_32
REMARK                            x       y       z     vdW  Elec       q    Type
REMARK                         _______ _______ _______ _____ _____    ______ ____
ROOT
ATOM      5  C   UNL     1      -3.178   1.164  24.856  0.00  0.00    +0.162 C 
ATOM      6  C   UNL     1      -3.337   1.936  25.098  0.00  0.00    +0.055 C 
ATOM      7  C   UNL     1      -2.729   2.493  25.129  0.00  0.00    -0.004 A 
ATOM      8  C   UNL     1      -1.962   2.278  24.918  0.00  0.00    +0.070 A 
ATOM      9  N   UNL     1      -1.479   2.941  25.003  0.00  0.00    -0.249 NA
ATOM     10  C   UNL     1      -1.947   3.567  25.267  0.00  0.00    +0.081 A 
ATOM     11  C   UNL     1      -2.721   3.289  25.345  0.00  0.00    +0.015 A 
ATOM     12  C   UNL     1      -3.317   3.798  25.602  0.00  0.00    +0.001 A 
ATOM     13  C   UNL     1      -3.141   4.584  25.782  0.00  0.00    +0.000 A 
ATOM     14  C   UNL     1      -2.367   4.861  25.704  0.00  0.00    +0.002 A 
ATOM     15  C   UNL     1      -1.770   4.352  25.446  0.00  0.00    +0.019 A 
ATOM     16  C   UNL     1      -1.801   1.506  24.675  0.00  0.00    +0.100 C 
ATOM     17  C   UNL     1      -1.034   1.290  24.463  0.00  0.00    +0.040 C 
ATOM     18  C   UNL     1      -0.874   0.519  24.221  0.00  0.00    +0.077 C 
ATOM     19  C   UNL     1      -1.482  -0.038  24.190  0.00  0.00    +0.038 C 
ATOM     20  C   UNL     1      -2.249   0.177  24.402  0.00  0.00    +0.082 C 
ATOM     21  N   UNL     1      -2.409   0.949  24.644  0.00  0.00    -0.258 NA
ENDROOT
BRANCH  20  22
ATOM     22  C   UNL     1      -2.857  -0.380  24.370  0.00  0.00    -0.005 A 
ATOM     23  C   UNL     1      -2.959  -0.915  24.989  0.00  0.00    +0.029 A 
ATOM     24  C   UNL     1      -3.566  -1.473  24.957  0.00  0.00    +0.167 A 
ATOM     25  F   UNL     1      -3.668  -2.008  25.576  0.00  0.00    -0.202 F 
ATOM     26  C   UNL     1      -4.072  -1.494  24.305  0.00  0.00    +0.167 A 
ATOM     27  F   UNL     1      -4.680  -2.052  24.274  0.00  0.00    -0.202 F 
ATOM     28  C   UNL     1      -3.971  -0.959  23.686  0.00  0.00    +0.032 A 
ATOM     29  C   UNL     1      -3.363  -0.402  23.718  0.00  0.00    -0.001 A 
ENDBRANCH  20  22
BRANCH   5   3
ATOM      3  C   UNL     1      -3.785   0.607  24.825  0.00  0.00    +0.332 C 
ATOM      4  O   UNL     1      -4.205  -0.034  24.519  0.00  0.00    -0.249 OA
BRANCH   3   2
ATOM      1  C   UNL     1      -5.099   0.978  25.246  0.00  0.00    +0.256 C 
ATOM      2  O   UNL     1      -4.378   0.610  25.399  0.00  0.00    -0.443 OA
ENDBRANCH   3   2
ENDBRANCH   5   3
BRANCH  18  30
ATOM     30  N   UNL     1      -0.106   0.303  24.009  0.00  0.00    -0.215 NA
BRANCH  30  31
ATOM     31  C   UNL     1       0.171   0.458  23.248  0.00  0.00    +0.116 C 
BRANCH  31  32
ATOM     32  C   UNL     1       0.969   0.347  23.068  0.00  0.00    +0.014 A 
ATOM     33  C   UNL     1       1.196  -0.264  22.564  0.00  0.00    +0.000 A 
ATOM     34  C   UNL     1       1.994  -0.375  22.384  0.00  0.00    +0.020 A 
ATOM     35  C   UNL     1       2.563   0.126  22.709  0.00  0.00    +0.099 A 
ATOM     36  N   UNL     1       2.335   0.738  23.214  0.00  0.00    -0.243 NA
ATOM     37  C   UNL     1       1.537   0.848  23.393  0.00  0.00    +0.096 A 
ENDBRANCH  31  32
ENDBRANCH  30  31
ENDBRANCH  18  30
TORSDOF 6
ENDMDL
MODEL 4
REMARK VINA RESULT:     -12.2      2.180      3.716
REMARK  Name = 
REMARK  6 active torsions:
REMARK  status: ('A' for Active; 'I' for Inactive)
REMARK    1  A    between atoms: O_2  and  C_3
REMARK    2  A    between atoms: C_3  and  C_5
REMARK    3  A    between atoms: C_18  and  N_30
REMARK    4  A    between atoms: C_20  and  C_22
REMARK    5  A    between atoms: N_30  and  C_31
REMARK    6  A    between atoms: C_31  and  C_32
REMARK                            x       y       z     vdW  Elec       q    Type
REMARK                         _______ _______ _______ _____ _____    ______ ____
ROOT
ATOM      5  C   UNL     1      -2.540   2.753  24.918  0.00  0.00    +0.162 C 
ATOM      6  C   UNL     1      -3.155   3.262  25.122  0.00  0.00    +0.055 C 
ATOM      7  C   UNL     1      -3.931   2.982  25.149  0.00  0.00    -0.004 A 
ATOM      8  C   UNL     1      -4.091   2.193  24.973  0.00  0.00    +0.070 A 
ATOM      9  N   UNL     1      -4.904   2.075  25.045  0.00  0.00    -0.249 NA
ATOM     10  C   UNL     1      -5.248   2.792  25.266  0.00  0.00    +0.081 A 
ATOM     11  C   UNL     1      -4.645   3.353  25.331  0.00  0.00    +0.015 A 
ATOM     12  C   UNL     1      -4.826   4.129  25.546  0.00  0.00    +0.001 A 
ATOM     13  C   UNL     1      -5.608   4.344  25.697  0.00  0.00    +0.000 A 
ATOM     14  C   UNL     1      -6.210   3.782  25.633  0.00  0.00    +0.002 A 
ATOM     15  C   UNL     1      -6.030   3.006  25.418  0.00  0.00    +0.019 A 
ATOM     16  C   UNL     1      -3.476   1.682  24.769  0.00  0.00    +0.100 C 
ATOM     17  C   UNL     1      -3.635   0.893  24.593  0.00  0.00    +0.040 C 
ATOM     18  C   UNL     1      -3.020   0.383  24.389  0.00  0.00    +0.077 C 
ATOM     19  C   UNL     1      -2.244   0.663  24.362  0.00  0.00    +0.038 C 
ATOM     20  C   UNL     1      -2.085   1.453  24.538  0.00  0.00    +0.082 C 
ATOM     21  N   UNL     1      -2.700   1.962  24.742  0.00  0.00    -0.258 NA
ENDROOT
BRANCH  20  22
ATOM     22  C   UNL     1      -1.309   1.732  24.510  0.00  0.00    -0.005 A 
ATOM     23  C   UNL     1      -0.813   1.640  25.163  0.00  0.00    +0.029 A 
ATOM     24  C   UNL     1      -0.037   1.919  25.135  0.00  0.00    +0.167 A 
ATOM     25  F   UNL     1       0.458   1.827  25.788  0.00  0.00    -0.202 F 
ATOM     26  C   UNL     1       0.243   2.291  24.453  0.00  0.00    +0.167 A 
ATOM     27  F   UNL     1       1.019   2.571  24.425  0.00  0.00    -0.202 F 
ATOM     28  C   UNL     1      -0.253   2.383  23.800  0.00  0.00    +0.032 A 
ATOM     29  C   UNL     1      -1.029   2.104  23.829  0.00  0.00    -0.001 A 
ENDBRANCH  20  22
BRANCH   5   3
ATOM      3  C   UNL     1      -1.765   3.033  24.891  0.00  0.00    +0.332 C 
ATOM      4  O   UNL     1      -0.996   3.095  24.597  0.00  0.00    -0.249 OA
BRANCH   3   2
ATOM      1  C   UNL     1      -1.469   4.383  25.252  0.00  0.00    +0.256 C 
ATOM      2  O   UNL     1      -1.504   3.583  25.448  0.00  0.00    -0.443 OA
ENDBRANCH   3   2
ENDBRANCH   5   3
BRANCH  18  30
ATOM     30  N   UNL     1      -3.180  -0.407  24.212  0.00  0.00    -0.215 NA
BRANCH  30  31
ATOM     31  C   UNL     1      -3.537  -0.892  24.777  0.00  0.00    +0.116 C 
BRANCH  31  32
ATOM     32  C   UNL     1      -3.624  -1.700  24.631  0.00  0.00    +0.014 A 
ATOM     33  C   UNL     1      -4.086  -1.956  23.998  0.00  0.00    +0.000 A 
ATOM     34  C   UNL     1      -4.173  -2.764  23.853  0.00  0.00    +0.020 A 
ATOM     35  C   UNL     1      -3.798  -3.314  24.340  0.00  0.00    +0.099 A 
ATOM     36  N   UNL     1      -3.336  -3.056  24.974  0.00  0.00    -0.243 NA
ATOM     37  C   UNL     1      -3.249  -2.248  25.119  0.00  0.00    +0.096 A 
ENDBRANCH  31  32
ENDBRANCH  30  31
ENDBRANCH  18  30
TORSDOF 6
ENDMDL
MODEL 5
REMARK VINA RESULT:     -12.2      1.407      1.905
REMARK  Name = 
REMARK  6 active torsions:
REMARK  status: ('A' for Active; 'I' for Inactive)
REMARK    1  A    between atoms: O_2  and  C_3
REMARK    2  A    between atoms: C_3  and  C_5
REMARK    3  A    between atoms: C_18  and  N_30
REMARK    4  A    between atoms: C_20  and  C_22
REMARK    5  A    between atoms: N_30  and  C_31
REMARK    6  A    between atoms: C_31  and  C_32
REMARK                            x       y       z     vdW  Elec       q    Type
REMARK                         _______ _______ _______ _____ _____    ______ ____
ROOT
ATOM      5  C   UNL     1      -2.817   2.664  24.832  0.00  0.00    +0.162 C 
ATOM      6  C   UNL     1      -2.008   2.810  24.776  0.00  0.00    +0.055 C 
ATOM      7  C   UNL     1      -1.496   2.207  24.542  0.00  0.00    -0.004 A 
ATOM      8  C   UNL     1      -1.793   1.458  24.365  0.00  0.00    +0.070 A 
ATOM      9  N   UNL     1      -1.159   0.976  24.151  0.00  0.00    -0.249 NA
ATOM     10  C   UNL     1      -0.469   1.426  24.196  0.00  0.00    +0.081 A 
ATOM     11  C   UNL     1      -0.678   2.187  24.438  0.00  0.00    +0.015 A 
ATOM     12  C   UNL     1      -0.095   2.764  24.532  0.00  0.00    +0.001 A 
ATOM     13  C   UNL     1       0.696   2.580  24.384  0.00  0.00    +0.000 A 
ATOM     14  C   UNL     1       0.904   1.818  24.142  0.00  0.00    +0.002 A 
ATOM     15  C   UNL     1       0.321   1.241  24.048  0.00  0.00    +0.019 A 
ATOM     16  C   UNL     1      -2.603   1.312  24.421  0.00  0.00    +0.100 C 
ATOM     17  C   UNL     1      -2.902   0.564  24.244  0.00  0.00    +0.040 C 
ATOM     18  C   UNL     1      -3.711   0.418  24.300  0.00  0.00    +0.077 C 
ATOM     19  C   UNL     1      -4.223   1.021  24.534  0.00  0.00    +0.038 C 
ATOM     20  C   UNL     1      -3.925   1.770  24.711  0.00  0.00    +0.082 C 
ATOM     21  N   UNL     1      -3.116   1.915  24.655  0.00  0.00    -0.258 NA
ENDROOT
BRANCH  20  22
ATOM     22  C   UNL     1      -4.438   2.372  24.945  0.00  0.00    -0.005 A 
ATOM     23  C   UNL     1      -4.738   2.385  25.713  0.00  0.00    +0.029 A 
ATOM     24  C   UNL     1      -5.250   2.988  25.946  0.00  0.00    +0.167 A 
ATOM     25  F   UNL     1      -5.550   3.001  26.715  0.00  0.00    -0.202 F 
ATOM     26  C   UNL     1      -5.464   3.578  25.410  0.00  0.00    +0.167 A 
ATOM     27  F   UNL     1      -5.977   4.181  25.643  0.00  0.00    -0.202 F 
ATOM     28  C   UNL     1      -5.164   3.566  24.642  0.00  0.00    +0.032 A 
ATOM     29  C   UNL     1      -4.652   2.963  24.409  0.00  0.00    -0.001 A 
ENDBRANCH  20  22
BRANCH   5   3
ATOM      3  C   UNL     1      -3.330   3.267  25.066  0.00  0.00    +0.332 C 
ATOM      4  O   UNL     1      -4.007   3.738  25.029  0.00  0.00    -0.249 OA
BRANCH   3   2
ATOM      1  C   UNL     1      -2.778   4.471  25.602  0.00  0.00    +0.256 C 
ATOM      2  O   UNL     1      -3.142   3.740  25.715  0.00  0.00    -0.443 OA
ENDBRANCH   3   2
ENDBRANCH   5   3
BRANCH  18  30
ATOM     30  N   UNL     1      -4.009  -0.331  24.123  0.00  0.00    -0.215 NA
BRANCH  30  31
ATOM     31  C   UNL     1      -4.023  -0.917  24.703  0.00  0.00    +0.116 C 
BRANCH  31  32
ATOM     32  C   UNL     1      -3.950  -1.711  24.489  0.00  0.00    +0.014 A 
ATOM     33  C   UNL     1      -3.499  -2.222  24.953  0.00  0.00    +0.000 A 
ATOM     34  C   UNL     1      -3.426  -3.016  24.739  0.00  0.00    +0.020 A 
ATOM     35  C   UNL     1      -3.804  -3.297  24.062  0.00  0.00    +0.099 A 
ATOM     36  N   UNL     1      -4.255  -2.785  23.598  0.00  0.00    -0.243 NA
ATOM     37  C   UNL     1      -4.328  -1.991  23.812  0.00  0.00    +0.096 A 
ENDBRANCH  31  32
ENDBRANCH  30  31
ENDBRANCH  18  30
TORSDOF 6
ENDMDL
MODEL 6
REMARK VINA RESULT:     -12.1      2.585      5.660
REMARK  Name = 
REMARK  6 active torsions:
REMARK  status: ('A' for Active; 'I' for Inactive)
REMARK    1  A    between atoms: O_2  and  C_3
REMARK    2  A    between atoms: C_3  and  C_5
REMARK    3  A    between atoms: C_18  and  N_30
REMARK    4  A    between atoms: C_20  and  C_22
REMARK    5  A    between atoms: N_30  and  C_31
REMARK    6  A    between atoms: C_31  and  C_32
REMARK                            x       y       z     vdW  Elec       q    Type
REMARK                         _______ _______ _______ _____ _____    ______ ____
ROOT
ATOM      5  C   UNL     1      -1.719  -0.029  24.537  0.00  0.00    +0.162 C 
ATOM      6  C   UNL     1      -1.918  -0.825  24.452  0.00  0.00    +0.055 C 
ATOM      7  C   UNL     1      -2.711  -1.050  24.417  0.00  0.00    -0.004 A 
ATOM      8  C   UNL     1      -3.305  -0.480  24.467  0.00  0.00    +0.070 A 
ATOM      9  N   UNL     1      -4.032  -0.865  24.416  0.00  0.00    -0.249 NA
ATOM     10  C   UNL     1      -3.890  -1.673  24.335  0.00  0.00    +0.081 A 
ATOM     11  C   UNL     1      -3.072  -1.788  24.336  0.00  0.00    +0.015 A 
ATOM     12  C   UNL     1      -2.762  -2.549  24.262  0.00  0.00    +0.001 A 
ATOM     13  C   UNL     1      -3.270  -3.196  24.188  0.00  0.00    +0.000 A 
ATOM     14  C   UNL     1      -4.088  -3.080  24.187  0.00  0.00    +0.002 A 
ATOM     15  C   UNL     1      -4.397  -2.319  24.261  0.00  0.00    +0.019 A 
ATOM     16  C   UNL     1      -3.106   0.316  24.552  0.00  0.00    +0.100 C 
ATOM     17  C   UNL     1      -3.699   0.887  24.601  0.00  0.00    +0.040 C 
ATOM     18  C   UNL     1      -3.500   1.683  24.686  0.00  0.00    +0.077 C 
ATOM     19  C   UNL     1      -2.707   1.908  24.721  0.00  0.00    +0.038 C 
ATOM     20  C   UNL     1      -2.114   1.337  24.672  0.00  0.00    +0.082 C 
ATOM     21  N   UNL     1      -2.313   0.542  24.587  0.00  0.00    -0.258 NA
ENDROOT
BRANCH  20  22
ATOM     22  C   UNL     1      -1.321   1.564  24.707  0.00  0.00    -0.005 A 
ATOM     23  C   UNL     1      -0.963   1.701  25.437  0.00  0.00    +0.029 A 
ATOM     24  C   UNL     1      -0.170   1.927  25.471  0.00  0.00    +0.167 A 
ATOM     25  F   UNL     1       0.188   2.064  26.202  0.00  0.00    -0.202 F 
ATOM     26  C   UNL     1       0.264   2.016  24.775  0.00  0.00    +0.167 A 
ATOM     27  F   UNL     1       1.057   2.242  24.811  0.00  0.00    -0.202 F 
ATOM     28  C   UNL     1      -0.094   1.879  24.045  0.00  0.00    +0.032 A 
ATOM     29  C   UNL     1      -0.886   1.652  24.011  0.00  0.00    -0.001 A 
ENDBRANCH  20  22
BRANCH   5   3
ATOM      3  C   UNL     1      -0.926   0.196  24.573  0.00  0.00    +0.332 C 
ATOM      4  O   UNL     1      -0.276   0.687  24.444  0.00  0.00    -0.249 OA
BRANCH   3   2
ATOM      1  C   UNL     1       0.084  -0.809  24.474  0.00  0.00    +0.256 C 
ATOM      2  O   UNL     1      -0.372  -0.298  24.932  0.00  0.00    -0.443 OA
ENDBRANCH   3   2
ENDBRANCH   5   3
BRANCH  18  30
ATOM     30  N   UNL     1      -4.094   2.254  24.736  0.00  0.00    -0.215 NA
BRANCH  30  31
ATOM     31  C   UNL     1      -4.301   2.571  25.469  0.00  0.00    +0.116 C 
BRANCH  31  32
ATOM     32  C   UNL     1      -4.894   3.143  25.518  0.00  0.00    +0.014 A 
ATOM     33  C   UNL     1      -4.723   3.929  25.340  0.00  0.00    +0.000 A 
ATOM     34  C   UNL     1      -5.316   4.501  25.390  0.00  0.00    +0.020 A 
ATOM     35  C   UNL     1      -6.079   4.286  25.617  0.00  0.00    +0.099 A 
ATOM     36  N   UNL     1      -6.250   3.498  25.795  0.00  0.00    -0.243 NA
ATOM     37  C   UNL     1      -5.657   2.926  25.746  0.00  0.00    +0.096 A 
ENDBRANCH  31  32
ENDBRANCH  30  31
ENDBRANCH  18  30
TORSDOF 6
ENDMDL
MODEL 7
REMARK VINA RESULT:     -12.0      2.354      4.461
REMARK  Name = 
REMARK  6 active torsions:
REMARK  status: ('A' for Active; 'I' for Inactive)
REMARK    1  A    between atoms: O_2  and  C_3
REMARK    2  A    between atoms: C_3  and  C_5
REMARK    3  A    between atoms: C_18  and  N_30
REMARK    4  A    between atoms: C_20  and  C_22
REMARK    5  A    between atoms: N_30  and  C_31
REMARK    6  A    between atoms: C_31  and  C_32
REMARK                            x       y       z     vdW  Elec       q    Type
REMARK                         _______ _______ _______ _____ _____    ______ ____
ROOT
ATOM      5  C   UNL     1      -3.119   0.691  24.517  0.00  0.00    +0.162 C 
ATOM      6  C   UNL     1      -3.470  -0.049  24.613  0.00  0.00    +0.055 C 
ATOM      7  C   UNL     1      -3.013  -0.733  24.556  0.00  0.00    -0.004 A 
ATOM      8  C   UNL     1      -2.204  -0.677  24.404  0.00  0.00    +0.070 A 
ATOM      9  N   UNL     1      -1.896  -1.442  24.378  0.00  0.00    -0.249 NA
ATOM     10  C   UNL     1      -2.514  -1.971  24.515  0.00  0.00    +0.081 A 
ATOM     11  C   UNL     1      -3.204  -1.532  24.625  0.00  0.00    +0.015 A 
ATOM     12  C   UNL     1      -3.918  -1.918  24.774  0.00  0.00    +0.001 A 
ATOM     13  C   UNL     1      -3.942  -2.742  24.813  0.00  0.00    +0.000 A 
ATOM     14  C   UNL     1      -3.251  -3.181  24.702  0.00  0.00    +0.002 A 
ATOM     15  C   UNL     1      -2.537  -2.795  24.554  0.00  0.00    +0.019 A 
ATOM     16  C   UNL     1      -1.852   0.063  24.308  0.00  0.00    +0.100 C 
ATOM     17  C   UNL     1      -1.044   0.120  24.155  0.00  0.00    +0.040 C 
ATOM     18  C   UNL     1      -0.693   0.860  24.059  0.00  0.00    +0.077 C 
ATOM     19  C   UNL     1      -1.151   1.544  24.116  0.00  0.00    +0.038 C 
ATOM     20  C   UNL     1      -1.959   1.487  24.268  0.00  0.00    +0.082 C 
ATOM     21  N   UNL     1      -2.310   0.748  24.364  0.00  0.00    -0.258 NA
ENDROOT
BRANCH  20  22
ATOM     22  C   UNL     1      -2.416   2.172  24.325  0.00  0.00    -0.005 A 
ATOM     23  C   UNL     1      -2.426   2.606  25.026  0.00  0.00    +0.029 A 
ATOM     24  C   UNL     1      -2.883   3.290  25.082  0.00  0.00    +0.167 A 
ATOM     25  F   UNL     1      -2.893   3.724  25.784  0.00  0.00    -0.202 F 
ATOM     26  C   UNL     1      -3.331   3.541  24.435  0.00  0.00    +0.167 A 
ATOM     27  F   UNL     1      -3.788   4.226  24.492  0.00  0.00    -0.202 F 
ATOM     28  C   UNL     1      -3.322   3.108  23.734  0.00  0.00    +0.032 A 
ATOM     29  C   UNL     1      -2.864   2.423  23.678  0.00  0.00    -0.001 A 
ENDBRANCH  20  22
BRANCH   5   3
ATOM      3  C   UNL     1      -3.577   1.375  24.574  0.00  0.00    +0.332 C 
ATOM      4  O   UNL     1      -3.830   2.132  24.364  0.00  0.00    -0.249 OA
BRANCH   3   2
ATOM      1  C   UNL     1      -4.948   1.303  24.967  0.00  0.00    +0.256 C 
ATOM      2  O   UNL     1      -4.157   1.437  25.157  0.00  0.00    -0.443 OA
ENDBRANCH   3   2
ENDBRANCH   5   3
BRANCH  18  30
ATOM     30  N   UNL     1       0.116   0.916  23.906  0.00  0.00    -0.215 NA
BRANCH  30  31
ATOM     31  C   UNL     1       0.455   0.465  23.304  0.00  0.00    +0.116 C 
BRANCH  31  32
ATOM     32  C   UNL     1       1.263   0.523  23.150  0.00  0.00    +0.014 A 
ATOM     33  C   UNL     1       1.623  -0.011  22.635  0.00  0.00    +0.000 A 
ATOM     34  C   UNL     1       2.432   0.047  22.480  0.00  0.00    +0.020 A 
ATOM     35  C   UNL     1       2.879   0.640  22.840  0.00  0.00    +0.099 A 
ATOM     36  N   UNL     1       2.518   1.174  23.356  0.00  0.00    -0.243 NA
ATOM     37  C   UNL     1       1.710   1.115  23.510  0.00  0.00    +0.096 A 
ENDBRANCH  31  32
ENDBRANCH  30  31
ENDBRANCH  18  30
TORSDOF 6
ENDMDL
MODEL 8
REMARK VINA RESULT:     -11.6      2.333      5.208
REMARK  Name = 
REMARK  6 active torsions:
REMARK  status: ('A' for Active; 'I' for Inactive)
REMARK    1  A    between atoms: O_2  and  C_3
REMARK    2  A    between atoms: C_3  and  C_5
REMARK    3  A    between atoms: C_18  and  N_30
REMARK    4  A    between atoms: C_20  and  C_22
REMARK    5  A    between atoms: N_30  and  C_31
REMARK    6  A    between atoms: C_31  and  C_32
REMARK                            x       y       z     vdW  Elec       q    Type
REMARK                         _______ _______ _______ _____ _____    ______ ____
ROOT
ATOM      5  C   UNL     1      -3.096   0.098  25.087  0.00  0.00    +0.162 C 
ATOM      6  C   UNL     1      -3.916   0.181  25.094  0.00  0.00    +0.055 C 
ATOM      7  C   UNL     1      -4.255   0.929  25.013  0.00  0.00    -0.004 A 
ATOM      8  C   UNL     1      -3.774   1.593  24.925  0.00  0.00    +0.070 A 
ATOM      9  N   UNL     1      -4.262   2.254  24.857  0.00  0.00    -0.249 NA
ATOM     10  C   UNL     1      -5.046   2.000  24.903  0.00  0.00    +0.081 A 
ATOM     11  C   UNL     1      -5.041   1.180  25.000  0.00  0.00    +0.015 A 
ATOM     12  C   UNL     1      -5.753   0.768  25.064  0.00  0.00    +0.001 A 
ATOM     13  C   UNL     1      -6.470   1.176  25.031  0.00  0.00    +0.000 A 
ATOM     14  C   UNL     1      -6.474   1.996  24.934  0.00  0.00    +0.002 A 
ATOM     15  C   UNL     1      -5.762   2.408  24.870  0.00  0.00    +0.019 A 
ATOM     16  C   UNL     1      -2.953   1.510  24.917  0.00  0.00    +0.100 C 
ATOM     17  C   UNL     1      -2.471   2.173  24.829  0.00  0.00    +0.040 C 
ATOM     18  C   UNL     1      -1.651   2.090  24.822  0.00  0.00    +0.077 C 
ATOM     19  C   UNL     1      -1.312   1.342  24.903  0.00  0.00    +0.038 C 
ATOM     20  C   UNL     1      -1.794   0.679  24.991  0.00  0.00    +0.082 C 
ATOM     21  N   UNL     1      -2.614   0.762  24.999  0.00  0.00    -0.258 NA
ENDROOT
BRANCH  20  22
ATOM     22  C   UNL     1      -1.453  -0.069  25.072  0.00  0.00    -0.005 A 
ATOM     23  C   UNL     1      -1.206  -0.484  24.405  0.00  0.00    +0.029 A 
ATOM     24  C   UNL     1      -0.866  -1.232  24.487  0.00  0.00    +0.167 A 
ATOM     25  F   UNL     1      -0.618  -1.647  23.819  0.00  0.00    -0.202 F 
ATOM     26  C   UNL     1      -0.774  -1.563  25.237  0.00  0.00    +0.167 A 
ATOM     27  F   UNL     1      -0.433  -2.311  25.318  0.00  0.00    -0.202 F 
ATOM     28  C   UNL     1      -1.021  -1.147  25.905  0.00  0.00    +0.032 A 
ATOM     29  C   UNL     1      -1.361  -0.400  25.823  0.00  0.00    -0.001 A 
ENDBRANCH  20  22
BRANCH   5   3
ATOM      3  C   UNL     1      -2.756  -0.650  25.168  0.00  0.00    +0.332 C 
ATOM      4  O   UNL     1      -2.208  -1.203  25.440  0.00  0.00    -0.249 OA
BRANCH   3   2
ATOM      1  C   UNL     1      -3.574  -1.820  25.210  0.00  0.00    +0.256 C 
ATOM      2  O   UNL     1      -3.093  -1.300  24.788  0.00  0.00    -0.443 OA
ENDBRANCH   3   2
ENDBRANCH   5   3
BRANCH  18  30
ATOM     30  N   UNL     1      -1.169   2.754  24.733  0.00  0.00    -0.215 NA
BRANCH  30  31
ATOM     31  C   UNL     1      -1.151   3.332  25.322  0.00  0.00    +0.116 C 
BRANCH  31  32
ATOM     32  C   UNL     1      -1.040   4.125  25.119  0.00  0.00    +0.014 A 
ATOM     33  C   UNL     1      -1.607   4.686  25.328  0.00  0.00    +0.000 A 
ATOM     34  C   UNL     1      -1.495   5.478  25.125  0.00  0.00    +0.020 A 
ATOM     35  C   UNL     1      -0.817   5.708  24.714  0.00  0.00    +0.099 A 
ATOM     36  N   UNL     1      -0.251   5.145  24.506  0.00  0.00    -0.243 NA
ATOM     37  C   UNL     1      -0.362   4.353  24.709  0.00  0.00    +0.096 A 
ENDBRANCH  31  32
ENDBRANCH  30  31
ENDBRANCH  18  30
TORSDOF 6
ENDMDL
