MODEL 1
REMARK VINA RESULT:     -11.2      0.000      0.000
REMARK  Name = 
REMARK  5 active torsions:
REMARK  status: ('A' for Active; 'I' for Inactive)
REMARK    1  A    between atoms: O_2  and  C_3
REMARK    2  A    between atoms: C_5  and  N_6
REMARK    3  A    between atoms: C_14  and  C_15
REMARK    4  A    between atoms: N_17  and  C_18
REMARK    5  A    between atoms: C_25  and  C_27
REMARK                            x       y       z     vdW  Elec       q    Type
REMARK                         _______ _______ _______ _____ _____    ______ ____
ROOT
ATOM      6  N   UNL     1      -4.071  -0.322  24.707  0.00  0.00    -0.162 NA
ATOM      7  C   UNL     1      -3.734   0.299  24.279  0.00  0.00    +0.328 C 
ATOM      8  O   UNL     1      -3.201   0.139  23.671  0.00  0.00    -0.250 OA
ATOM      9  N   UNL     1      -3.933   1.079  24.460  0.00  0.00    -0.253 N 
ATOM     10  C   UNL     1      -4.467   1.240  25.069  0.00  0.00    +0.117 C 
ATOM     11  C   UNL     1      -4.665   2.019  25.249  0.00  0.00    +0.115 C 
ATOM     12  N   UNL     1      -4.328   2.640  24.822  0.00  0.00    -0.274 N 
ATOM     13  C   UNL     1      -3.794   2.481  24.214  0.00  0.00    +0.123 C 
ATOM     14  C   UNL     1      -3.597   1.700  24.033  0.00  0.00    +0.175 C 
ATOM     25  C   UNL     1      -4.526   3.420  25.002  0.00  0.00    +0.245 C 
ATOM     26  O   UNL     1      -4.190   4.040  24.576  0.00  0.00    -0.273 OA
ENDROOT
BRANCH   6   5
ATOM      3  C   UNL     1      -3.019  -2.234  24.701  0.00  0.00    +0.140 A 
ATOM      4  C   UNL     1      -3.217  -1.454  24.882  0.00  0.00    +0.054 A 
ATOM      5  C   UNL     1      -3.873  -1.102  24.526  0.00  0.00    +0.078 A 
ATOM     29  C   UNL     1      -4.330  -1.530  23.990  0.00  0.00    +0.017 A 
ATOM     30  C   UNL     1      -4.133  -2.310  23.809  0.00  0.00    +0.004 A 
ATOM     31  C   UNL     1      -3.477  -2.662  24.164  0.00  0.00    +0.037 A 
BRANCH   3   2
ATOM      1  C   UNL     1      -1.640  -2.607  24.659  0.00  0.00    +0.252 C 
ATOM      2  O   UNL     1      -2.363  -2.585  25.056  0.00  0.00    -0.471 OA
ENDBRANCH   3   2
ENDBRANCH   6   5
BRANCH  14  15
ATOM     15  C   UNL     1      -3.062   1.540  23.424  0.00  0.00    +0.262 C 
ATOM     16  O   UNL     1      -3.334   1.235  22.708  0.00  0.00    -0.271 OA
ATOM     17  N   UNL     1      -2.258   1.685  23.533  0.00  0.00    -0.196 NA
BRANCH  17  18
ATOM     18  C   UNL     1      -1.987   1.991  24.250  0.00  0.00    +0.173 C 
ATOM     19  C   UNL     1      -2.053   1.542  24.941  0.00  0.00    +0.033 C 
ATOM     20  C   UNL     1      -1.782   1.848  25.657  0.00  0.00    +0.026 C 
ATOM     21  C   UNL     1      -1.445   2.600  25.685  0.00  0.00    +0.115 C 
ATOM     22  N   UNL     1      -1.379   3.047  24.995  0.00  0.00    -0.204 NA
ATOM     23  C   UNL     1      -1.650   2.743  24.278  0.00  0.00    +0.261 C 
ATOM     24  O   UNL     1      -1.584   3.190  23.587  0.00  0.00    -0.271 OA
ENDBRANCH  17  18
ENDBRANCH  14  15
BRANCH  25  27
ATOM     27  C   UNL     1      -5.060   3.580  25.611  0.00  0.00    +0.194 C 
ATOM     28  N   UNL     1      -5.400   4.329  25.675  0.00  0.00    -0.121 NA
ENDBRANCH  25  27
TORSDOF 5
ENDMDL
MODEL 2
REMARK VINA RESULT:     -10.3      1.721      3.972
REMARK  Name = 
REMARK  5 active torsions:
REMARK  status: ('A' for Active; 'I' for Inactive)
REMARK    1  A    between atoms: O_2  and  C_3
REMARK    2  A    between atoms: C_5  and  N_6
REMARK    3  A    between atoms: C_14  and  C_15
REMARK    4  A    between atoms: N_17  and  C_18
REMARK    5  A    between atoms: C_25  and  C_27
REMARK                            x       y       z     vdW  Elec       q    Type
REMARK                         _______ _______ _______ _____ _____    ______ ____
ROOT
ATOM      6  N   UNL     1      -3.924   1.061  25.181  0.00  0.00    -0.162 NA
ATOM      7  C   UNL     1      -3.277   1.211  24.689  0.00  0.00    +0.328 C 
ATOM      8  O   UNL     1      -3.287   1.861  24.182  0.00  0.00    -0.250 OA
ATOM      9  N   UNL     1      -2.621   0.710  24.707  0.00  0.00    -0.253 N 
ATOM     10  C   UNL     1      -2.611   0.060  25.215  0.00  0.00    +0.117 C 
ATOM     11  C   UNL     1      -1.955  -0.440  25.232  0.00  0.00    +0.115 C 
ATOM     12  N   UNL     1      -1.309  -0.290  24.741  0.00  0.00    -0.274 N 
ATOM     13  C   UNL     1      -1.319   0.360  24.233  0.00  0.00    +0.123 C 
ATOM     14  C   UNL     1      -1.976   0.860  24.216  0.00  0.00    +0.175 C 
ATOM     25  C   UNL     1      -0.653  -0.789  24.758  0.00  0.00    +0.245 C 
ATOM     26  O   UNL     1      -0.008  -0.640  24.267  0.00  0.00    -0.273 OA
ENDROOT
BRANCH   6   5
ATOM      3  C   UNL     1      -5.230   2.762  25.583  0.00  0.00    +0.140 A 
ATOM      4  C   UNL     1      -4.575   2.261  25.600  0.00  0.00    +0.054 A 
ATOM      5  C   UNL     1      -4.579   1.561  25.164  0.00  0.00    +0.078 A 
ATOM     29  C   UNL     1      -5.238   1.361  24.711  0.00  0.00    +0.017 A 
ATOM     30  C   UNL     1      -5.895   1.861  24.694  0.00  0.00    +0.004 A 
ATOM     31  C   UNL     1      -5.890   2.562  25.130  0.00  0.00    +0.037 A 
BRANCH   3   2
ATOM      1  C   UNL     1      -5.449   4.172  25.662  0.00  0.00    +0.252 C 
ATOM      2  O   UNL     1      -5.226   3.462  26.019  0.00  0.00    -0.471 OA
ENDBRANCH   3   2
ENDBRANCH   6   5
BRANCH  14  15
ATOM     15  C   UNL     1      -1.986   1.511  23.707  0.00  0.00    +0.262 C 
ATOM     16  O   UNL     1      -2.461   1.499  23.033  0.00  0.00    -0.271 OA
ATOM     17  N   UNL     1      -1.521   2.171  23.873  0.00  0.00    -0.196 NA
BRANCH  17  18
ATOM     18  C   UNL     1      -1.046   2.182  24.548  0.00  0.00    +0.173 C 
ATOM     19  C   UNL     1      -1.393   2.186  25.297  0.00  0.00    +0.033 C 
ATOM     20  C   UNL     1      -0.918   2.197  25.971  0.00  0.00    +0.026 C 
ATOM     21  C   UNL     1      -0.096   2.205  25.897  0.00  0.00    +0.115 C 
ATOM     22  N   UNL     1       0.250   2.202  25.149  0.00  0.00    -0.204 NA
ATOM     23  C   UNL     1      -0.224   2.190  24.474  0.00  0.00    +0.261 C 
ATOM     24  O   UNL     1       0.122   2.187  23.725  0.00  0.00    -0.271 OA
ENDBRANCH  17  18
ENDBRANCH  14  15
BRANCH  25  27
ATOM     27  C   UNL     1      -0.643  -1.440  25.266  0.00  0.00    +0.194 C 
ATOM     28  N   UNL     1       0.013  -1.939  25.284  0.00  0.00    -0.121 NA
ENDBRANCH  25  27
TORSDOF 5
ENDMDL
MODEL 3
REMARK VINA RESULT:     -10.2      0.948      2.291
REMARK  Name = 
REMARK  5 active torsions:
REMARK  status: ('A' for Active; 'I' for Inactive)
REMARK    1  A    between atoms: O_2  and  C_3
REMARK    2  A    between atoms: C_5  and  N_6
REMARK    3  A    between atoms: C_14  and  C_15
REMARK    4  A    between atoms: N_17  and  C_18
REMARK    5  A    between atoms: C_25  and  C_27
REMARK                            x       y       z     vdW  Elec       q    Type
REMARK                         _______ _______ _______ _____ _____    ______ ____
ROOT
ATOM      6  N   UNL     1      -2.398   0.045  25.184  0.00  0.00    -0.162 NA
ATOM      7  C   UNL     1      -2.651   0.612  24.639  0.00  0.00    +0.328 C 
ATOM      8  O   UNL     1      -3.211   0.413  24.068  0.00  0.00    -0.250 OA
ATOM      9  N   UNL     1      -2.343   1.377  24.667  0.00  0.00    -0.253 N 
ATOM     10  C   UNL     1      -1.782   1.577  25.238  0.00  0.00    +0.117 C 
ATOM     11  C   UNL     1      -1.474   2.341  25.266  0.00  0.00    +0.115 C 
ATOM     12  N   UNL     1      -1.727   2.907  24.721  0.00  0.00    -0.274 N 
ATOM     13  C   UNL     1      -2.288   2.708  24.149  0.00  0.00    +0.123 C 
ATOM     14  C   UNL     1      -2.596   1.943  24.123  0.00  0.00    +0.175 C 
ATOM     25  C   UNL     1      -1.420   3.672  24.748  0.00  0.00    +0.245 C 
ATOM     26  O   UNL     1      -1.672   4.237  24.204  0.00  0.00    -0.273 OA
ENDROOT
BRANCH   6   5
ATOM      3  C   UNL     1      -2.649  -2.059  24.663  0.00  0.00    +0.140 A 
ATOM      4  C   UNL     1      -2.342  -1.294  24.690  0.00  0.00    +0.054 A 
ATOM      5  C   UNL     1      -2.705  -0.719  25.157  0.00  0.00    +0.078 A 
ATOM     29  C   UNL     1      -3.376  -0.909  25.597  0.00  0.00    +0.017 A 
ATOM     30  C   UNL     1      -3.685  -1.674  25.570  0.00  0.00    +0.004 A 
ATOM     31  C   UNL     1      -3.321  -2.249  25.103  0.00  0.00    +0.037 A 
BRANCH   3   2
ATOM      1  C   UNL     1      -1.492  -2.824  24.320  0.00  0.00    +0.252 C 
ATOM      2  O   UNL     1      -2.285  -2.632  24.196  0.00  0.00    -0.471 OA
ENDBRANCH   3   2
ENDBRANCH   6   5
BRANCH  14  15
ATOM     15  C   UNL     1      -3.157   1.744  23.550  0.00  0.00    +0.262 C 
ATOM     16  O   UNL     1      -2.943   1.266  22.913  0.00  0.00    -0.271 OA
ATOM     17  N   UNL     1      -3.929   2.022  23.617  0.00  0.00    -0.196 NA
BRANCH  17  18
ATOM     18  C   UNL     1      -4.143   2.500  24.256  0.00  0.00    +0.173 C 
ATOM     19  C   UNL     1      -4.172   2.182  25.017  0.00  0.00    +0.033 C 
ATOM     20  C   UNL     1      -4.385   2.660  25.655  0.00  0.00    +0.026 C 
ATOM     21  C   UNL     1      -4.570   3.454  25.532  0.00  0.00    +0.115 C 
ATOM     22  N   UNL     1      -4.541   3.771  24.772  0.00  0.00    -0.204 NA
ATOM     23  C   UNL     1      -4.327   3.294  24.133  0.00  0.00    +0.261 C 
ATOM     24  O   UNL     1      -4.299   3.611  23.371  0.00  0.00    -0.271 OA
ENDBRANCH  17  18
ENDBRANCH  14  15
BRANCH  25  27
ATOM     27  C   UNL     1      -0.858   3.871  25.320  0.00  0.00    +0.194 C 
ATOM     28  N   UNL     1      -0.513   4.620  25.315  0.00  0.00    -0.121 NA
ENDBRANCH  25  27
TORSDOF 5
ENDMDL
MODEL 4
REMARK VINA RESULT:      -9.9      1.657      4.927
REMARK  Name = 
REMARK  5 active torsions:
REMARK  status: ('A' for Active; 'I' for Inactive)
REMARK    1  A    between atoms: O_2  and  C_3
REMARK    2  A    between atoms: C_5  and  N_6
REMARK    3  A    between atoms: C_14  and  C_15
REMARK    4  A    between atoms: N_17  and  C_18
REMARK    5  A    between atoms: C_25  and  C_27
REMARK                            x       y       z     vdW  Elec       q    Type
REMARK                         _______ _______ _______ _____ _____    ______ ____
ROOT
ATOM      6  N   UNL     1      -1.291   2.500  25.359  0.00  0.00    -0.162 NA
ATOM      7  C   UNL     1      -1.595   2.021  24.759  0.00  0.00    +0.328 C 
ATOM      8  O   UNL     1      -2.048   2.353  24.156  0.00  0.00    -0.250 OA
ATOM      9  N   UNL     1      -1.444   1.209  24.764  0.00  0.00    -0.253 N 
ATOM     10  C   UNL     1      -0.990   0.876  25.367  0.00  0.00    +0.117 C 
ATOM     11  C   UNL     1      -0.840   0.066  25.371  0.00  0.00    +0.115 C 
ATOM     12  N   UNL     1      -1.144  -0.413  24.772  0.00  0.00    -0.274 N 
ATOM     13  C   UNL     1      -1.598  -0.082  24.169  0.00  0.00    +0.123 C 
ATOM     14  C   UNL     1      -1.748   0.730  24.164  0.00  0.00    +0.175 C 
ATOM     25  C   UNL     1      -0.995  -1.224  24.776  0.00  0.00    +0.245 C 
ATOM     26  O   UNL     1      -1.298  -1.703  24.177  0.00  0.00    -0.273 OA
ENDROOT
BRANCH   6   5
ATOM      3  C   UNL     1      -2.242   4.423  25.758  0.00  0.00    +0.140 A 
ATOM      4  C   UNL     1      -2.092   3.612  25.762  0.00  0.00    +0.054 A 
ATOM      5  C   UNL     1      -1.441   3.311  25.354  0.00  0.00    +0.078 A 
ATOM     29  C   UNL     1      -0.941   3.820  24.942  0.00  0.00    +0.017 A 
ATOM     30  C   UNL     1      -1.091   4.632  24.938  0.00  0.00    +0.004 A 
ATOM     31  C   UNL     1      -1.741   4.933  25.346  0.00  0.00    +0.037 A 
BRANCH   3   2
ATOM      1  C   UNL     1      -3.590   4.284  26.213  0.00  0.00    +0.252 C 
ATOM      2  O   UNL     1      -2.892   4.723  26.166  0.00  0.00    -0.471 OA
ENDBRANCH   3   2
ENDBRANCH   6   5
BRANCH  14  15
ATOM     15  C   UNL     1      -2.203   1.063  23.560  0.00  0.00    +0.262 C 
ATOM     16  O   UNL     1      -1.840   1.518  22.976  0.00  0.00    -0.271 OA
ATOM     17  N   UNL     1      -3.017   0.940  23.542  0.00  0.00    -0.196 NA
BRANCH  17  18
ATOM     18  C   UNL     1      -3.379   0.485  24.128  0.00  0.00    +0.173 C 
ATOM     19  C   UNL     1      -3.388   0.749  24.910  0.00  0.00    +0.033 C 
ATOM     20  C   UNL     1      -3.750   0.294  25.495  0.00  0.00    +0.026 C 
ATOM     21  C   UNL     1      -4.103  -0.426  25.298  0.00  0.00    +0.115 C 
ATOM     22  N   UNL     1      -4.095  -0.689  24.517  0.00  0.00    -0.204 NA
ATOM     23  C   UNL     1      -3.733  -0.234  23.932  0.00  0.00    +0.261 C 
ATOM     24  O   UNL     1      -3.725  -0.498  23.150  0.00  0.00    -0.271 OA
ENDBRANCH  17  18
ENDBRANCH  14  15
BRANCH  25  27
ATOM     27  C   UNL     1      -0.540  -1.557  25.380  0.00  0.00    +0.194 C 
ATOM     28  N   UNL     1      -0.372  -2.364  25.372  0.00  0.00    -0.121 NA
ENDBRANCH  25  27
TORSDOF 5
ENDMDL
MODEL 5
REMARK VINA RESULT:      -9.7      2.158      4.772
REMARK  Name = 
REMARK  5 active torsions:
REMARK  status: ('A' for Active; 'I' for Inactive)
REMARK    1  A    between atoms: O_2  and  C_3
REMARK    2  A    between atoms: C_5  and  N_6
REMARK    3  A    between atoms: C_14  and  C_15
REMARK    4  A    between atoms: N_17  and  C_18
REMARK    5  A    between atoms: C_25  and  C_27
REMARK                            x       y       z     vdW  Elec       q    Type
REMARK                         _______ _______ _______ _____ _____    ______ ____
ROOT
ATOM      6  N   UNL     1      -2.552   2.022  24.087  0.00  0.00    -0.162 NA
ATOM      7  C   UNL     1      -2.070   1.564  24.577  0.00  0.00    +0.328 C 
ATOM      8  O   UNL     1      -2.242   1.500  25.381  0.00  0.00    -0.250 OA
ATOM      9  N   UNL     1      -1.416   1.171  24.262  0.00  0.00    -0.253 N 
ATOM     10  C   UNL     1      -1.243   1.236  23.458  0.00  0.00    +0.117 C 
ATOM     11  C   UNL     1      -0.590   0.843  23.143  0.00  0.00    +0.115 C 
ATOM     12  N   UNL     1      -0.109   0.385  23.632  0.00  0.00    -0.274 N 
ATOM     13  C   UNL     1      -0.281   0.320  24.436  0.00  0.00    +0.123 C 
ATOM     14  C   UNL     1      -0.935   0.714  24.751  0.00  0.00    +0.175 C 
ATOM     25  C   UNL     1       0.544  -0.008  23.318  0.00  0.00    +0.245 C 
ATOM     26  O   UNL     1       1.025  -0.465  23.807  0.00  0.00    -0.273 OA
ENDROOT
BRANCH   6   5
ATOM      3  C   UNL     1      -4.609   2.468  24.663  0.00  0.00    +0.140 A 
ATOM      4  C   UNL     1      -3.955   2.076  24.348  0.00  0.00    +0.054 A 
ATOM      5  C   UNL     1      -3.205   2.415  24.402  0.00  0.00    +0.078 A 
ATOM     29  C   UNL     1      -3.108   3.146  24.771  0.00  0.00    +0.017 A 
ATOM     30  C   UNL     1      -3.762   3.539  25.086  0.00  0.00    +0.004 A 
ATOM     31  C   UNL     1      -4.512   3.200  25.032  0.00  0.00    +0.037 A 
BRANCH   3   2
ATOM      1  C   UNL     1      -5.802   1.999  25.293  0.00  0.00    +0.252 C 
ATOM      2  O   UNL     1      -5.358   2.130  24.609  0.00  0.00    -0.471 OA
ENDBRANCH   3   2
ENDBRANCH   6   5
BRANCH  14  15
ATOM     15  C   UNL     1      -1.107   0.649  25.556  0.00  0.00    +0.262 C 
ATOM     16  O   UNL     1      -0.954   1.282  26.062  0.00  0.00    -0.271 OA
ATOM     17  N   UNL     1      -1.431  -0.048  25.854  0.00  0.00    -0.196 NA
BRANCH  17  18
ATOM     18  C   UNL     1      -1.584  -0.681  25.347  0.00  0.00    +0.173 C 
ATOM     19  C   UNL     1      -2.182  -0.622  24.780  0.00  0.00    +0.033 C 
ATOM     20  C   UNL     1      -2.334  -1.255  24.274  0.00  0.00    +0.026 C 
ATOM     21  C   UNL     1      -1.890  -1.947  24.333  0.00  0.00    +0.115 C 
ATOM     22  N   UNL     1      -1.293  -2.007  24.899  0.00  0.00    -0.204 NA
ATOM     23  C   UNL     1      -1.140  -1.374  25.406  0.00  0.00    +0.261 C 
ATOM     24  O   UNL     1      -0.543  -1.433  25.973  0.00  0.00    -0.271 OA
ENDBRANCH  17  18
ENDBRANCH  14  15
BRANCH  25  27
ATOM     27  C   UNL     1       0.717   0.057  22.513  0.00  0.00    +0.194 C 
ATOM     28  N   UNL     1       1.398  -0.294  22.208  0.00  0.00    -0.121 NA
ENDBRANCH  25  27
TORSDOF 5
ENDMDL
MODEL 6
REMARK VINA RESULT:      -9.3      1.632      4.304
REMARK  Name = 
REMARK  5 active torsions:
REMARK  status: ('A' for Active; 'I' for Inactive)
REMARK    1  A    between atoms: O_2  and  C_3
REMARK    2  A    between atoms: C_5  and  N_6
REMARK    3  A    between atoms: C_14  and  C_15
REMARK    4  A    between atoms: N_17  and  C_18
REMARK    5  A    between atoms: C_25  and  C_27
REMARK                            x       y       z     vdW  Elec       q    Type
REMARK                         _______ _______ _______ _____ _____    ______ ____
ROOT
ATOM      6  N   UNL     1      -3.961   1.613  24.861  0.00  0.00    -0.162 NA
ATOM      7  C   UNL     1      -3.334   1.242  24.473  0.00  0.00    +0.328 C 
ATOM      8  O   UNL     1      -2.740   1.694  24.124  0.00  0.00    -0.250 OA
ATOM      9  N   UNL     1      -3.303   0.418  24.435  0.00  0.00    -0.253 N 
ATOM     10  C   UNL     1      -3.898  -0.035  24.784  0.00  0.00    +0.117 C 
ATOM     11  C   UNL     1      -3.866  -0.858  24.746  0.00  0.00    +0.115 C 
ATOM     12  N   UNL     1      -3.240  -1.229  24.358  0.00  0.00    -0.274 N 
ATOM     13  C   UNL     1      -2.645  -0.778  24.008  0.00  0.00    +0.123 C 
ATOM     14  C   UNL     1      -2.677   0.047  24.047  0.00  0.00    +0.175 C 
ATOM     25  C   UNL     1      -3.208  -2.053  24.319  0.00  0.00    +0.245 C 
ATOM     26  O   UNL     1      -2.582  -2.423  23.932  0.00  0.00    -0.273 OA
ENDROOT
BRANCH   6   5
ATOM      3  C   UNL     1      -3.690   3.655  25.582  0.00  0.00    +0.140 A 
ATOM      4  C   UNL     1      -3.659   2.832  25.542  0.00  0.00    +0.054 A 
ATOM      5  C   UNL     1      -3.993   2.436  24.900  0.00  0.00    +0.078 A 
ATOM     29  C   UNL     1      -4.357   2.863  24.296  0.00  0.00    +0.017 A 
ATOM     30  C   UNL     1      -4.388   3.687  24.334  0.00  0.00    +0.004 A 
ATOM     31  C   UNL     1      -4.055   4.083  24.977  0.00  0.00    +0.037 A 
BRANCH   3   2
ATOM      1  C   UNL     1      -2.612   4.398  26.153  0.00  0.00    +0.252 C 
ATOM      2  O   UNL     1      -3.358   4.050  26.223  0.00  0.00    -0.471 OA
ENDBRANCH   3   2
ENDBRANCH   6   5
BRANCH  14  15
ATOM     15  C   UNL     1      -2.081   0.499  23.697  0.00  0.00    +0.262 C 
ATOM     16  O   UNL     1      -2.241   0.932  23.013  0.00  0.00    -0.271 OA
ATOM     17  N   UNL     1      -1.328   0.519  24.032  0.00  0.00    -0.196 NA
BRANCH  17  18
ATOM     18  C   UNL     1      -1.169   0.086  24.716  0.00  0.00    +0.173 C 
ATOM     19  C   UNL     1      -1.546   0.281  25.425  0.00  0.00    +0.033 C 
ATOM     20  C   UNL     1      -1.386  -0.152  26.108  0.00  0.00    +0.026 C 
ATOM     21  C   UNL     1      -0.851  -0.779  26.085  0.00  0.00    +0.115 C 
ATOM     22  N   UNL     1      -0.475  -0.974  25.377  0.00  0.00    -0.204 NA
ATOM     23  C   UNL     1      -0.633  -0.541  24.693  0.00  0.00    +0.261 C 
ATOM     24  O   UNL     1      -0.257  -0.735  23.984  0.00  0.00    -0.271 OA
ENDBRANCH  17  18
ENDBRANCH  14  15
BRANCH  25  27
ATOM     27  C   UNL     1      -3.803  -2.505  24.669  0.00  0.00    +0.194 C 
ATOM     28  N   UNL     1      -3.731  -3.326  24.702  0.00  0.00    -0.121 NA
ENDBRANCH  25  27
TORSDOF 5
ENDMDL
