MODEL 1
REMARK VINA RESULT:     -11.7      0.000      0.000
REMARK  Name = 
REMARK  5 active torsions:
REMARK  status: ('A' for Active; 'I' for Inactive)
REMARK    1  A    between atoms: N_4  and  C_24
REMARK    2  A    between atoms: C_7  and  C_8
REMARK    3  A    between atoms: C_10  and  N_11
REMARK    4  A    between atoms: N_14  and  C_15
REMARK    5  A    between atoms: C_15  and  C_16
REMARK                            x       y       z     vdW  Elec       q    Type
REMARK                         _______ _______ _______ _____ _____    ______ ____
ROOT
ATOM      8  C   UNL     1      -4.089   2.738  25.101  0.00  0.00    +0.048 C 
ATOM      9  C   UNL     1      -3.992   1.931  25.240  0.00  0.00    +0.035 C 
ATOM     10  C   UNL     1      -4.638   1.536  24.914  0.00  0.00    +0.119 C 
ATOM     22  C   UNL     1      -5.135   2.100  24.573  0.00  0.00    -0.009 C 
ATOM     23  C   UNL     1      -4.796   2.842  24.689  0.00  0.00    -0.025 C 
ENDROOT
BRANCH   8   7
ATOM      1  C   UNL     1      -4.280   3.804  26.534  0.00  0.00    +0.054 C 
ATOM      2  C   UNL     1      -3.658   3.827  25.991  0.00  0.00    +0.077 A 
ATOM      3  N   UNL     1      -3.016   4.343  26.012  0.00  0.00    -0.169 NA
ATOM      4  N   UNL     1      -2.531   4.173  25.366  0.00  0.00    -0.217 N 
ATOM      5  C   UNL     1      -2.874   3.551  24.947  0.00  0.00    +0.060 A 
ATOM      6  C   UNL     1      -2.573   3.204  24.261  0.00  0.00    +0.052 C 
ATOM      7  C   UNL     1      -3.571   3.337  25.333  0.00  0.00    +0.011 A 
BRANCH   4  24
ATOM     24  C   UNL     1      -1.826   4.557  25.173  0.00  0.00    +0.163 A 
ATOM     25  C   UNL     1      -1.829   5.367  25.016  0.00  0.00    +0.039 A 
ATOM     26  C   UNL     1      -1.124   5.751  24.824  0.00  0.00    +0.005 A 
ATOM     27  C   UNL     1      -0.419   5.326  24.788  0.00  0.00    +0.021 A 
ATOM     28  C   UNL     1      -0.416   4.515  24.946  0.00  0.00    +0.101 A 
ATOM     29  N   UNL     1      -1.121   4.131  25.138  0.00  0.00    -0.225 NA
ENDBRANCH   4  24
ENDBRANCH   8   7
BRANCH  10  11
ATOM     11  N   UNL     1      -4.766   0.721  24.926  0.00  0.00    -0.184 NA
ATOM     12  C   UNL     1      -4.350   0.230  24.410  0.00  0.00    +0.340 C 
ATOM     13  O   UNL     1      -3.806   0.553  23.881  0.00  0.00    -0.249 OA
ATOM     14  N   UNL     1      -4.479  -0.585  24.422  0.00  0.00    -0.182 NA
BRANCH  14  15
ATOM     15  C   UNL     1      -4.063  -1.076  23.906  0.00  0.00    +0.143 C 
BRANCH  15  16
ATOM     16  C   UNL     1      -3.889  -1.852  24.126  0.00  0.00    -0.001 A 
ATOM     17  C   UNL     1      -3.327  -1.999  24.711  0.00  0.00    -0.003 A 
ATOM     18  C   UNL     1      -3.153  -2.776  24.931  0.00  0.00    -0.000 A 
ATOM     19  C   UNL     1      -3.542  -3.405  24.565  0.00  0.00    -0.000 A 
ATOM     20  C   UNL     1      -4.104  -3.257  23.979  0.00  0.00    -0.000 A 
ATOM     21  C   UNL     1      -4.278  -2.482  23.760  0.00  0.00    -0.003 A 
ENDBRANCH  15  16
ENDBRANCH  14  15
ENDBRANCH  10  11
TORSDOF 5
ENDMDL
MODEL 2
REMARK VINA RESULT:     -10.8      3.796      5.390
REMARK  Name = 
REMARK  5 active torsions:
REMARK  status: ('A' for Active; 'I' for Inactive)
REMARK    1  A    between atoms: N_4  and  C_24
REMARK    2  A    between atoms: C_7  and  C_8
REMARK    3  A    between atoms: C_10  and  N_11
REMARK    4  A    between atoms: N_14  and  C_15
REMARK    5  A    between atoms: C_15  and  C_16
REMARK                            x       y       z     vdW  Elec       q    Type
REMARK                         _______ _______ _______ _____ _____    ______ ____
ROOT
ATOM      8  C   UNL     1      -1.689   1.206  23.915  0.00  0.00    +0.048 C 
ATOM      9  C   UNL     1      -0.940   1.547  23.872  0.00  0.00    +0.035 C 
ATOM     10  C   UNL     1      -0.380   0.947  23.943  0.00  0.00    +0.119 C 
ATOM     22  C   UNL     1      -0.784   0.232  24.030  0.00  0.00    -0.009 C 
ATOM     23  C   UNL     1      -1.592   0.392  24.014  0.00  0.00    -0.025 C 
ENDROOT
BRANCH   8   7
ATOM      1  C   UNL     1      -2.477   1.793  22.412  0.00  0.00    +0.054 C 
ATOM      2  C   UNL     1      -2.772   1.876  23.180  0.00  0.00    +0.077 A 
ATOM      3  N   UNL     1      -3.480   2.242  23.390  0.00  0.00    -0.169 NA
ATOM      4  N   UNL     1      -3.555   2.199  24.210  0.00  0.00    -0.217 N 
ATOM      5  C   UNL     1      -2.894   1.805  24.507  0.00  0.00    +0.060 A 
ATOM      6  C   UNL     1      -2.743   1.641  25.301  0.00  0.00    +0.052 C 
ATOM      7  C   UNL     1      -2.409   1.605  23.869  0.00  0.00    +0.011 A 
BRANCH   4  24
ATOM     24  C   UNL     1      -4.183   2.497  24.657  0.00  0.00    +0.163 A 
ATOM     25  C   UNL     1      -4.856   2.036  24.779  0.00  0.00    +0.039 A 
ATOM     26  C   UNL     1      -5.483   2.334  25.225  0.00  0.00    +0.005 A 
ATOM     27  C   UNL     1      -5.437   3.091  25.548  0.00  0.00    +0.021 A 
ATOM     28  C   UNL     1      -4.763   3.552  25.425  0.00  0.00    +0.101 A 
ATOM     29  N   UNL     1      -4.136   3.254  24.979  0.00  0.00    -0.225 NA
ENDBRANCH   4  24
ENDBRANCH   8   7
BRANCH  10  11
ATOM     11  N   UNL     1       0.439   1.041  23.928  0.00  0.00    -0.184 NA
ATOM     12  C   UNL     1       0.897   0.601  23.402  0.00  0.00    +0.340 C 
ATOM     13  O   UNL     1       0.536   0.066  22.889  0.00  0.00    -0.249 OA
ATOM     14  N   UNL     1       1.717   0.697  23.389  0.00  0.00    -0.182 NA
BRANCH  14  15
ATOM     15  C   UNL     1       2.175   0.257  22.862  0.00  0.00    +0.143 C 
BRANCH  15  16
ATOM     16  C   UNL     1       2.997   0.297  22.899  0.00  0.00    -0.001 A 
ATOM     17  C   UNL     1       3.429  -0.342  23.192  0.00  0.00    -0.003 A 
ATOM     18  C   UNL     1       4.253  -0.301  23.229  0.00  0.00    -0.000 A 
ATOM     19  C   UNL     1       4.644   0.378  22.972  0.00  0.00    -0.000 A 
ATOM     20  C   UNL     1       4.212   1.016  22.678  0.00  0.00    -0.000 A 
ATOM     21  C   UNL     1       3.390   0.976  22.641  0.00  0.00    -0.003 A 
ENDBRANCH  15  16
ENDBRANCH  14  15
ENDBRANCH  10  11
TORSDOF 5
ENDMDL
MODEL 3
REMARK VINA RESULT:     -10.2      2.012      2.816
REMARK  Name = 
REMARK  5 active torsions:
REMARK  status: ('A' for Active; 'I' for Inactive)
REMARK    1  A    between atoms: N_4  and  C_24
REMARK    2  A    between atoms: C_7  and  C_8
REMARK    3  A    between atoms: C_10  and  N_11
REMARK    4  A    between atoms: N_14  and  C_15
REMARK    5  A    between atoms: C_15  and  C_16
REMARK                            x       y       z     vdW  Elec       q    Type
REMARK                         _______ _______ _______ _____ _____    ______ ____
ROOT
ATOM      8  C   UNL     1      -0.323   1.637  24.842  0.00  0.00    +0.048 C 
ATOM      9  C   UNL     1      -0.901   1.058  24.740  0.00  0.00    +0.035 C 
ATOM     10  C   UNL     1      -0.547   0.403  24.389  0.00  0.00    +0.119 C 
ATOM     22  C   UNL     1       0.252   0.576  24.273  0.00  0.00    -0.009 C 
ATOM     23  C   UNL     1       0.390   1.339  24.553  0.00  0.00    -0.025 C 
ENDROOT
BRANCH   8   7
ATOM      1  C   UNL     1       0.260   2.176  26.453  0.00  0.00    +0.054 C 
ATOM      2  C   UNL     1      -0.169   2.632  25.914  0.00  0.00    +0.077 A 
ATOM      3  N   UNL     1      -0.404   3.415  26.022  0.00  0.00    -0.169 NA
ATOM      4  N   UNL     1      -0.818   3.651  25.348  0.00  0.00    -0.217 N 
ATOM      5  C   UNL     1      -0.837   3.014  24.824  0.00  0.00    +0.060 A 
ATOM      6  C   UNL     1      -1.196   3.008  24.080  0.00  0.00    +0.052 C 
ATOM      7  C   UNL     1      -0.436   2.384  25.174  0.00  0.00    +0.011 A 
BRANCH   4  24
ATOM     24  C   UNL     1      -1.153   4.395  25.219  0.00  0.00    +0.163 A 
ATOM     25  C   UNL     1      -0.704   4.994  24.874  0.00  0.00    +0.039 A 
ATOM     26  C   UNL     1      -1.039   5.738  24.746  0.00  0.00    +0.005 A 
ATOM     27  C   UNL     1      -1.821   5.881  24.963  0.00  0.00    +0.021 A 
ATOM     28  C   UNL     1      -2.270   5.281  25.309  0.00  0.00    +0.101 A 
ATOM     29  N   UNL     1      -1.935   4.537  25.437  0.00  0.00    -0.225 NA
ENDBRANCH   4  24
ENDBRANCH   8   7
BRANCH  10  11
ATOM     11  N   UNL     1      -0.923  -0.304  24.187  0.00  0.00    -0.184 NA
ATOM     12  C   UNL     1      -1.538  -0.592  24.655  0.00  0.00    +0.340 C 
ATOM     13  O   UNL     1      -1.779  -0.174  25.324  0.00  0.00    -0.249 OA
ATOM     14  N   UNL     1      -1.914  -1.299  24.453  0.00  0.00    -0.182 NA
BRANCH  14  15
ATOM     15  C   UNL     1      -2.530  -1.587  24.920  0.00  0.00    +0.143 C 
BRANCH  15  16
ATOM     16  C   UNL     1      -3.150  -2.004  24.573  0.00  0.00    -0.001 A 
ATOM     17  C   UNL     1      -3.759  -1.599  24.193  0.00  0.00    -0.003 A 
ATOM     18  C   UNL     1      -4.380  -2.017  23.845  0.00  0.00    -0.000 A 
ATOM     19  C   UNL     1      -4.391  -2.842  23.878  0.00  0.00    -0.000 A 
ATOM     20  C   UNL     1      -3.781  -3.247  24.258  0.00  0.00    -0.000 A 
ATOM     21  C   UNL     1      -3.161  -2.829  24.605  0.00  0.00    -0.003 A 
ENDBRANCH  15  16
ENDBRANCH  14  15
ENDBRANCH  10  11
TORSDOF 5
ENDMDL
MODEL 4
REMARK VINA RESULT:      -9.7      2.012      6.584
REMARK  Name = 
REMARK  5 active torsions:
REMARK  status: ('A' for Active; 'I' for Inactive)
REMARK    1  A    between atoms: N_4  and  C_24
REMARK    2  A    between atoms: C_7  and  C_8
REMARK    3  A    between atoms: C_10  and  N_11
REMARK    4  A    between atoms: N_14  and  C_15
REMARK    5  A    between atoms: C_15  and  C_16
REMARK                            x       y       z     vdW  Elec       q    Type
REMARK                         _______ _______ _______ _____ _____    ______ ____
ROOT
ATOM      8  C   UNL     1      -1.244  -0.284  25.290  0.00  0.00    +0.048 C 
ATOM      9  C   UNL     1      -1.132   0.458  24.948  0.00  0.00    +0.035 C 
ATOM     10  C   UNL     1      -0.803   0.955  25.517  0.00  0.00    +0.119 C 
ATOM     22  C   UNL     1      -0.711   0.519  26.212  0.00  0.00    -0.009 C 
ATOM     23  C   UNL     1      -0.983  -0.246  26.072  0.00  0.00    -0.025 C 
ENDROOT
BRANCH   8   7
ATOM      1  C   UNL     1      -0.313  -1.558  24.431  0.00  0.00    +0.054 C 
ATOM      2  C   UNL     1      -1.134  -1.534  24.522  0.00  0.00    +0.077 A 
ATOM      3  N   UNL     1      -1.669  -2.091  24.235  0.00  0.00    -0.169 NA
ATOM      4  N   UNL     1      -2.428  -1.850  24.452  0.00  0.00    -0.217 N 
ATOM      5  C   UNL     1      -2.361  -1.144  24.873  0.00  0.00    +0.060 A 
ATOM      6  C   UNL     1      -2.985  -0.710  25.195  0.00  0.00    +0.052 C 
ATOM      7  C   UNL     1      -1.560  -0.948  24.917  0.00  0.00    +0.011 A 
BRANCH   4  24
ATOM     24  C   UNL     1      -3.132  -2.246  24.278  0.00  0.00    +0.163 A 
ATOM     25  C   UNL     1      -3.266  -2.999  24.585  0.00  0.00    +0.039 A 
ATOM     26  C   UNL     1      -3.969  -3.395  24.411  0.00  0.00    +0.005 A 
ATOM     27  C   UNL     1      -4.536  -3.038  23.932  0.00  0.00    +0.021 A 
ATOM     28  C   UNL     1      -4.402  -2.283  23.625  0.00  0.00    +0.101 A 
ATOM     29  N   UNL     1      -3.698  -1.887  23.799  0.00  0.00    -0.225 NA
ENDBRANCH   4  24
ENDBRANCH   8   7
BRANCH  10  11
ATOM     11  N   UNL     1      -0.601   1.748  25.412  0.00  0.00    -0.184 NA
ATOM     12  C   UNL     1      -1.149   2.340  25.583  0.00  0.00    +0.340 C 
ATOM     13  O   UNL     1      -1.900   2.140  25.859  0.00  0.00    -0.249 OA
ATOM     14  N   UNL     1      -0.946   3.133  25.477  0.00  0.00    -0.182 NA
BRANCH  14  15
ATOM     15  C   UNL     1      -1.494   3.725  25.648  0.00  0.00    +0.143 C 
BRANCH  15  16
ATOM     16  C   UNL     1      -1.402   4.478  25.324  0.00  0.00    -0.001 A 
ATOM     17  C   UNL     1      -0.687   4.691  24.971  0.00  0.00    -0.003 A 
ATOM     18  C   UNL     1      -0.595   5.444  24.647  0.00  0.00    -0.000 A 
ATOM     19  C   UNL     1      -1.218   5.984  24.675  0.00  0.00    -0.000 A 
ATOM     20  C   UNL     1      -1.933   5.771  25.027  0.00  0.00    -0.000 A 
ATOM     21  C   UNL     1      -2.025   5.019  25.351  0.00  0.00    -0.003 A 
ENDBRANCH  15  16
ENDBRANCH  14  15
ENDBRANCH  10  11
TORSDOF 5
ENDMDL
MODEL 5
REMARK VINA RESULT:      -9.5      1.150      5.964
REMARK  Name = 
REMARK  5 active torsions:
REMARK  status: ('A' for Active; 'I' for Inactive)
REMARK    1  A    between atoms: N_4  and  C_24
REMARK    2  A    between atoms: C_7  and  C_8
REMARK    3  A    between atoms: C_10  and  N_11
REMARK    4  A    between atoms: N_14  and  C_15
REMARK    5  A    between atoms: C_15  and  C_16
REMARK                            x       y       z     vdW  Elec       q    Type
REMARK                         _______ _______ _______ _____ _____    ______ ____
ROOT
ATOM      8  C   UNL     1      -4.208   0.714  24.820  0.00  0.00    +0.048 C 
ATOM      9  C   UNL     1      -3.660   1.319  24.711  0.00  0.00    +0.035 C 
ATOM     10  C   UNL     1      -4.074   2.015  24.558  0.00  0.00    +0.119 C 
ATOM     22  C   UNL     1      -4.880   1.839  24.572  0.00  0.00    -0.009 C 
ATOM     23  C   UNL     1      -4.963   1.036  24.734  0.00  0.00    -0.025 C 
ENDROOT
BRANCH   8   7
ATOM      1  C   UNL     1      -4.414  -0.104  26.405  0.00  0.00    +0.054 C 
ATOM      2  C   UNL     1      -4.128  -0.452  25.713  0.00  0.00    +0.077 A 
ATOM      3  N   UNL     1      -3.888  -1.236  25.628  0.00  0.00    -0.169 NA
ATOM      4  N   UNL     1      -3.644  -1.345  24.847  0.00  0.00    -0.217 N 
ATOM      5  C   UNL     1      -3.734  -0.628  24.450  0.00  0.00    +0.060 A 
ATOM      6  C   UNL     1      -3.556  -0.488  23.656  0.00  0.00    +0.052 C 
ATOM      7  C   UNL     1      -4.034  -0.076  24.985  0.00  0.00    +0.011 A 
BRANCH   4  24
ATOM     24  C   UNL     1      -3.360  -2.048  24.521  0.00  0.00    +0.163 A 
ATOM     25  C   UNL     1      -3.886  -2.591  24.191  0.00  0.00    +0.039 A 
ATOM     26  C   UNL     1      -3.602  -3.294  23.865  0.00  0.00    +0.005 A 
ATOM     27  C   UNL     1      -2.793  -3.453  23.869  0.00  0.00    +0.021 A 
ATOM     28  C   UNL     1      -2.266  -2.910  24.199  0.00  0.00    +0.101 A 
ATOM     29  N   UNL     1      -2.551  -2.207  24.525  0.00  0.00    -0.225 NA
ENDBRANCH   4  24
ENDBRANCH   8   7
BRANCH  10  11
ATOM     11  N   UNL     1      -3.743   2.757  24.416  0.00  0.00    -0.184 NA
ATOM     12  C   UNL     1      -3.260   3.110  24.984  0.00  0.00    +0.340 C 
ATOM     13  O   UNL     1      -3.107   2.721  25.695  0.00  0.00    -0.249 OA
ATOM     14  N   UNL     1      -2.929   3.852  24.841  0.00  0.00    -0.182 NA
BRANCH  14  15
ATOM     15  C   UNL     1      -2.446   4.205  25.409  0.00  0.00    +0.143 C 
BRANCH  15  16
ATOM     16  C   UNL     1      -1.803   4.665  25.175  0.00  0.00    -0.001 A 
ATOM     17  C   UNL     1      -1.072   4.310  25.029  0.00  0.00    -0.003 A 
ATOM     18  C   UNL     1      -0.429   4.771  24.795  0.00  0.00    -0.000 A 
ATOM     19  C   UNL     1      -0.516   5.586  24.706  0.00  0.00    -0.000 A 
ATOM     20  C   UNL     1      -1.246   5.941  24.852  0.00  0.00    -0.000 A 
ATOM     21  C   UNL     1      -1.889   5.481  25.086  0.00  0.00    -0.003 A 
ENDBRANCH  15  16
ENDBRANCH  14  15
ENDBRANCH  10  11
TORSDOF 5
ENDMDL
