MODEL 1
REMARK VINA RESULT:      -9.5      0.000      0.000
REMARK  Name = 
REMARK  7 active torsions:
REMARK  status: ('A' for Active; 'I' for Inactive)
REMARK    1  A    between atoms: O_2  and  C_3
REMARK    2  A    between atoms: C_6  and  C_7
REMARK    3  A    between atoms: C_8  and  C_9
REMARK    4  A    between atoms: C_17  and  N_25
REMARK    5  A    between atoms: C_26  and  C_28
REMARK    6  A    between atoms: C_28  and  C_29
REMARK    7  A    between atoms: C_29  and  C_30
REMARK                            x       y       z     vdW  Elec       q    Type
REMARK                         _______ _______ _______ _____ _____    ______ ____
ROOT
ATOM      9  C   UNL     1      -0.201   0.366  23.988  0.00  0.00    +0.000 A 
ATOM     10  C   UNL     1      -0.444  -0.343  24.332  0.00  0.00    +0.001 A 
ATOM     11  C   UNL     1      -1.237  -0.455  24.530  0.00  0.00    +0.017 A 
ATOM     12  C   UNL     1      -1.787   0.142  24.384  0.00  0.00    +0.078 A 
ATOM     13  N   UNL     1      -2.545  -0.081  24.622  0.00  0.00    -0.178 NA
ATOM     14  C   UNL     1      -3.246   0.349  24.574  0.00  0.00    +0.265 C 
ATOM     15  O   UNL     1      -3.920  -0.031  24.862  0.00  0.00    -0.271 OA
ATOM     16  C   UNL     1      -3.364   1.110  24.278  0.00  0.00    +0.174 C 
ATOM     17  C   UNL     1      -4.100   1.483  24.261  0.00  0.00    +0.124 C 
ATOM     18  C   UNL     1      -3.999   2.231  23.928  0.00  0.00    +0.045 C 
ATOM     19  C   UNL     1      -3.202   2.320  23.739  0.00  0.00    +0.096 C 
ATOM     20  N   UNL     1      -2.809   1.627  23.955  0.00  0.00    -0.268 N 
ATOM     21  C   UNL     1      -1.999   1.513  23.849  0.00  0.00    +0.251 C 
ATOM     22  O   UNL     1      -1.590   2.142  23.507  0.00  0.00    -0.270 OA
ATOM     23  C   UNL     1      -1.544   0.851  24.040  0.00  0.00    +0.069 A 
ATOM     24  C   UNL     1      -0.751   0.964  23.842  0.00  0.00    +0.006 A 
ENDROOT
BRANCH  17  25
ATOM     25  N   UNL     1      -4.811   1.163  24.530  0.00  0.00    -0.205 NA
ATOM     26  C   UNL     1      -5.342   1.634  24.951  0.00  0.00    +0.242 C 
ATOM     27  O   UNL     1      -6.054   1.315  25.220  0.00  0.00    -0.273 OA
BRANCH  26  28
ATOM     28  C   UNL     1      -5.161   2.425  25.103  0.00  0.00    +0.099 C 
BRANCH  28  29
ATOM     29  C   UNL     1      -5.651   2.874  25.592  0.00  0.00    +0.124 C 
BRANCH  29  30
ATOM     30  C   UNL     1      -5.431   3.640  25.805  0.00  0.00    +0.365 C 
ATOM     31  O   UNL     1      -5.785   4.288  25.436  0.00  0.00    -0.246 OA
ATOM     32  O   UNL     1      -4.858   3.759  26.386  0.00  0.00    -0.246 OA
ENDBRANCH  29  30
ENDBRANCH  28  29
ENDBRANCH  26  28
ENDBRANCH  17  25
BRANCH   9   8
ATOM      7  C   UNL     1       0.895   0.149  23.098  0.00  0.00    +0.000 C 
ATOM      8  C   UNL     1       0.592   0.479  23.790  0.00  0.00    +0.000 C 
BRANCH   7   6
ATOM      3  C   UNL     1       3.274   0.486  22.503  0.00  0.00    +0.139 A 
ATOM      4  C   UNL     1       2.825  -0.078  22.102  0.00  0.00    +0.037 A 
ATOM      5  C   UNL     1       2.032  -0.191  22.301  0.00  0.00    +0.003 A 
ATOM      6  C   UNL     1       1.688   0.261  22.900  0.00  0.00    +0.000 A 
ATOM     33  C   UNL     1       2.138   0.826  23.300  0.00  0.00    +0.003 A 
ATOM     34  C   UNL     1       2.931   0.938  23.101  0.00  0.00    +0.037 A 
BRANCH   3   2
ATOM      1  C   UNL     1       4.653   0.506  22.878  0.00  0.00    +0.252 C 
ATOM      2  O   UNL     1       4.067   0.598  22.305  0.00  0.00    -0.471 OA
ENDBRANCH   3   2
ENDBRANCH   7   6
ENDBRANCH   9   8
TORSDOF 7
ENDMDL
MODEL 2
REMARK VINA RESULT:      -8.5     14.563     16.328
REMARK  Name = 
REMARK  7 active torsions:
REMARK  status: ('A' for Active; 'I' for Inactive)
REMARK    1  A    between atoms: O_2  and  C_3
REMARK    2  A    between atoms: C_6  and  C_7
REMARK    3  A    between atoms: C_8  and  C_9
REMARK    4  A    between atoms: C_17  and  N_25
REMARK    5  A    between atoms: C_26  and  C_28
REMARK    6  A    between atoms: C_28  and  C_29
REMARK    7  A    between atoms: C_29  and  C_30
REMARK                            x       y       z     vdW  Elec       q    Type
REMARK                         _______ _______ _______ _____ _____    ______ ____
ROOT
ATOM      9  C   UNL     1      -4.438 -10.678  16.151  0.00  0.00    +0.000 A 
ATOM     10  C   UNL     1      -3.647 -10.580  16.364  0.00  0.00    +0.001 A 
ATOM     11  C   UNL     1      -3.072 -10.481  15.781  0.00  0.00    +0.017 A 
ATOM     12  C   UNL     1      -3.288 -10.481  14.985  0.00  0.00    +0.078 A 
ATOM     13  N   UNL     1      -2.633 -10.375  14.495  0.00  0.00    -0.178 NA
ATOM     14  C   UNL     1      -2.607 -10.342  13.671  0.00  0.00    +0.265 C 
ATOM     15  O   UNL     1      -1.859 -10.229  13.341  0.00  0.00    -0.271 OA
ATOM     16  C   UNL     1      -3.229 -10.406  13.134  0.00  0.00    +0.174 C 
ATOM     17  C   UNL     1      -3.130 -10.363  12.316  0.00  0.00    +0.124 C 
ATOM     18  C   UNL     1      -3.871 -10.450  11.964  0.00  0.00    +0.045 C 
ATOM     19  C   UNL     1      -4.428 -10.547  12.564  0.00  0.00    +0.096 C 
ATOM     20  N   UNL     1      -4.031 -10.520  13.287  0.00  0.00    -0.268 N 
ATOM     21  C   UNL     1      -4.410 -10.597  14.016  0.00  0.00    +0.251 C 
ATOM     22  O   UNL     1      -5.227 -10.706  13.985  0.00  0.00    -0.270 OA
ATOM     23  C   UNL     1      -4.079 -10.580  14.772  0.00  0.00    +0.069 A 
ATOM     24  C   UNL     1      -4.654 -10.679  15.355  0.00  0.00    +0.006 A 
ENDROOT
BRANCH  17  25
ATOM     25  N   UNL     1      -2.415 -10.252  11.919  0.00  0.00    -0.205 NA
ATOM     26  C   UNL     1      -2.406  -9.900  11.173  0.00  0.00    +0.242 C 
ATOM     27  O   UNL     1      -1.691  -9.790  10.777  0.00  0.00    -0.273 OA
BRANCH  26  28
ATOM     28  C   UNL     1      -3.114  -9.659  10.823  0.00  0.00    +0.099 C 
BRANCH  28  29
ATOM     29  C   UNL     1      -3.099  -9.208  10.133  0.00  0.00    +0.124 C 
BRANCH  29  30
ATOM     30  C   UNL     1      -3.785  -9.125   9.680  0.00  0.00    +0.365 C 
ATOM     31  O   UNL     1      -4.260  -8.457   9.772  0.00  0.00    -0.246 OA
ATOM     32  O   UNL     1      -3.994  -9.709   9.137  0.00  0.00    -0.246 OA
ENDBRANCH  29  30
ENDBRANCH  28  29
ENDBRANCH  26  28
ENDBRANCH  17  25
BRANCH   9   8
ATOM      7  C   UNL     1      -5.073 -10.233  17.351  0.00  0.00    +0.000 C 
ATOM      8  C   UNL     1      -5.013 -10.777  16.734  0.00  0.00    +0.000 C 
BRANCH   7   6
ATOM      3  C   UNL     1      -6.799 -10.529  19.100  0.00  0.00    +0.139 A 
ATOM      4  C   UNL     1      -6.025 -10.776  19.239  0.00  0.00    +0.037 A 
ATOM      5  C   UNL     1      -5.449 -10.678  18.656  0.00  0.00    +0.003 A 
ATOM      6  C   UNL     1      -5.649 -10.331  17.934  0.00  0.00    +0.000 A 
ATOM     33  C   UNL     1      -6.424 -10.084  17.796  0.00  0.00    +0.003 A 
ATOM     34  C   UNL     1      -6.999 -10.183  18.379  0.00  0.00    +0.037 A 
BRANCH   3   2
ATOM      1  C   UNL     1      -8.164 -10.453  19.518  0.00  0.00    +0.252 C 
ATOM      2  O   UNL     1      -7.375 -10.628  19.683  0.00  0.00    -0.471 OA
ENDBRANCH   3   2
ENDBRANCH   7   6
ENDBRANCH   9   8
TORSDOF 7
ENDMDL
MODEL 3
REMARK VINA RESULT:      -8.4      1.446      2.131
REMARK  Name = 
REMARK  7 active torsions:
REMARK  status: ('A' for Active; 'I' for Inactive)
REMARK    1  A    between atoms: O_2  and  C_3
REMARK    2  A    between atoms: C_6  and  C_7
REMARK    3  A    between atoms: C_8  and  C_9
REMARK    4  A    between atoms: C_17  and  N_25
REMARK    5  A    between atoms: C_26  and  C_28
REMARK    6  A    between atoms: C_28  and  C_29
REMARK    7  A    between atoms: C_29  and  C_30
REMARK                            x       y       z     vdW  Elec       q    Type
REMARK                         _______ _______ _______ _____ _____    ______ ____
ROOT
ATOM      9  C   UNL     1      -0.012   2.321  24.487  0.00  0.00    +0.000 A 
ATOM     10  C   UNL     1       0.084   2.605  25.256  0.00  0.00    +0.001 A 
ATOM     11  C   UNL     1      -0.556   2.939  25.654  0.00  0.00    +0.017 A 
ATOM     12  C   UNL     1      -1.292   2.990  25.285  0.00  0.00    +0.078 A 
ATOM     13  N   UNL     1      -1.853   3.340  25.777  0.00  0.00    -0.178 NA
ATOM     14  C   UNL     1      -2.649   3.494  25.623  0.00  0.00    +0.265 C 
ATOM     15  O   UNL     1      -3.069   3.854  26.235  0.00  0.00    -0.271 OA
ATOM     16  C   UNL     1      -3.079   3.335  24.938  0.00  0.00    +0.174 C 
ATOM     17  C   UNL     1      -3.880   3.517  24.851  0.00  0.00    +0.124 C 
ATOM     18  C   UNL     1      -4.115   3.278  24.098  0.00  0.00    +0.045 C 
ATOM     19  C   UNL     1      -3.462   2.948  23.719  0.00  0.00    +0.096 C 
ATOM     20  N   UNL     1      -2.821   2.983  24.238  0.00  0.00    -0.268 N 
ATOM     21  C   UNL     1      -2.068   2.703  24.050  0.00  0.00    +0.251 C 
ATOM     22  O   UNL     1      -1.985   2.377  23.297  0.00  0.00    -0.270 OA
ATOM     23  C   UNL     1      -1.387   2.706  24.516  0.00  0.00    +0.069 A 
ATOM     24  C   UNL     1      -0.747   2.372  24.117  0.00  0.00    +0.006 A 
ENDROOT
BRANCH  17  25
ATOM     25  N   UNL     1      -4.359   3.876  25.419  0.00  0.00    -0.205 NA
ATOM     26  C   UNL     1      -5.091   3.546  25.609  0.00  0.00    +0.242 C 
ATOM     27  O   UNL     1      -5.570   3.904  26.177  0.00  0.00    -0.273 OA
BRANCH  26  28
ATOM     28  C   UNL     1      -5.343   2.856  25.232  0.00  0.00    +0.099 C 
BRANCH  28  29
ATOM     29  C   UNL     1      -6.008   2.455  25.508  0.00  0.00    +0.124 C 
BRANCH  29  30
ATOM     30  C   UNL     1      -6.193   1.708  25.209  0.00  0.00    +0.365 C 
ATOM     31  O   UNL     1      -6.734   1.634  24.591  0.00  0.00    -0.246 OA
ATOM     32  O   UNL     1      -5.836   1.035  25.528  0.00  0.00    -0.246 OA
ENDBRANCH  29  30
ENDBRANCH  28  29
ENDBRANCH  26  28
ENDBRANCH  17  25
BRANCH   9   8
ATOM      7  C   UNL     1       0.610   1.191  23.872  0.00  0.00    +0.000 C 
ATOM      8  C   UNL     1       0.628   1.987  24.088  0.00  0.00    +0.000 C 
BRANCH   7   6
ATOM      3  C   UNL     1       2.529   0.187  22.674  0.00  0.00    +0.139 A 
ATOM      4  C   UNL     1       1.790  -0.177  22.647  0.00  0.00    +0.037 A 
ATOM      5  C   UNL     1       1.150   0.157  23.047  0.00  0.00    +0.003 A 
ATOM      6  C   UNL     1       1.250   0.857  23.473  0.00  0.00    +0.000 A 
ATOM     33  C   UNL     1       1.990   1.222  23.499  0.00  0.00    +0.003 A 
ATOM     34  C   UNL     1       2.629   0.886  23.099  0.00  0.00    +0.037 A 
BRANCH   3   2
ATOM      1  C   UNL     1       3.912   0.209  22.314  0.00  0.00    +0.252 C 
ATOM      2  O   UNL     1       3.169  -0.147  22.274  0.00  0.00    -0.471 OA
ENDBRANCH   3   2
ENDBRANCH   7   6
ENDBRANCH   9   8
TORSDOF 7
ENDMDL
MODEL 4
REMARK VINA RESULT:      -7.5      1.428      6.810
REMARK  Name = 
REMARK  7 active torsions:
REMARK  status: ('A' for Active; 'I' for Inactive)
REMARK    1  A    between atoms: O_2  and  C_3
REMARK    2  A    between atoms: C_6  and  C_7
REMARK    3  A    between atoms: C_8  and  C_9
REMARK    4  A    between atoms: C_17  and  N_25
REMARK    5  A    between atoms: C_26  and  C_28
REMARK    6  A    between atoms: C_28  and  C_29
REMARK    7  A    between atoms: C_29  and  C_30
REMARK                            x       y       z     vdW  Elec       q    Type
REMARK                         _______ _______ _______ _____ _____    ______ ____
ROOT
ATOM      9  C   UNL     1      -2.583   1.210  24.888  0.00  0.00    +0.000 A 
ATOM     10  C   UNL     1      -2.740   0.403  24.819  0.00  0.00    +0.001 A 
ATOM     11  C   UNL     1      -2.158  -0.106  24.531  0.00  0.00    +0.017 A 
ATOM     12  C   UNL     1      -1.420   0.190  24.313  0.00  0.00    +0.078 A 
ATOM     13  N   UNL     1      -0.922  -0.409  24.042  0.00  0.00    -0.178 NA
ATOM     14  C   UNL     1      -0.145  -0.349  23.773  0.00  0.00    +0.265 C 
ATOM     15  O   UNL     1       0.208  -1.057  23.537  0.00  0.00    -0.271 OA
ATOM     16  C   UNL     1       0.327   0.325  23.710  0.00  0.00    +0.174 C 
ATOM     17  C   UNL     1       1.103   0.311  23.430  0.00  0.00    +0.124 C 
ATOM     18  C   UNL     1       1.393   1.083  23.446  0.00  0.00    +0.045 C 
ATOM     19  C   UNL     1       0.797   1.573  23.736  0.00  0.00    +0.096 C 
ATOM     20  N   UNL     1       0.138   1.105  23.899  0.00  0.00    -0.268 N 
ATOM     21  C   UNL     1      -0.570   1.405  24.199  0.00  0.00    +0.251 C 
ATOM     22  O   UNL     1      -0.586   2.218  24.331  0.00  0.00    -0.270 OA
ATOM     23  C   UNL     1      -1.263   0.997  24.383  0.00  0.00    +0.069 A 
ATOM     24  C   UNL     1      -1.845   1.508  24.671  0.00  0.00    +0.006 A 
ENDROOT
BRANCH  17  25
ATOM     25  N   UNL     1       1.516  -0.357  23.178  0.00  0.00    -0.205 NA
ATOM     26  C   UNL     1       2.302  -0.290  22.934  0.00  0.00    +0.242 C 
ATOM     27  O   UNL     1       2.715  -0.958  22.682  0.00  0.00    -0.273 OA
BRANCH  26  28
ATOM     28  C   UNL     1       2.674   0.447  22.943  0.00  0.00    +0.099 C 
BRANCH  28  29
ATOM     29  C   UNL     1       3.403   0.545  22.568  0.00  0.00    +0.124 C 
BRANCH  29  30
ATOM     30  C   UNL     1       3.957   1.073  22.877  0.00  0.00    +0.365 C 
ATOM     31  O   UNL     1       3.923   1.872  22.672  0.00  0.00    -0.246 OA
ATOM     32  O   UNL     1       4.544   0.803  23.389  0.00  0.00    -0.246 OA
ENDBRANCH  29  30
ENDBRANCH  28  29
ENDBRANCH  26  28
ENDBRANCH  17  25
BRANCH   9   8
ATOM      7  C   UNL     1      -3.800   1.933  24.696  0.00  0.00    +0.000 C 
ATOM      8  C   UNL     1      -3.164   1.720  25.176  0.00  0.00    +0.000 C 
BRANCH   7   6
ATOM      3  C   UNL     1      -5.543   3.464  25.558  0.00  0.00    +0.139 A 
ATOM      4  C   UNL     1      -4.809   3.762  25.330  0.00  0.00    +0.037 A 
ATOM      5  C   UNL     1      -4.228   3.252  25.043  0.00  0.00    +0.003 A 
ATOM      6  C   UNL     1      -4.381   2.443  24.983  0.00  0.00    +0.000 A 
ATOM     33  C   UNL     1      -5.117   2.145  25.212  0.00  0.00    +0.003 A 
ATOM     34  C   UNL     1      -5.697   2.657  25.500  0.00  0.00    +0.037 A 
BRANCH   3   2
ATOM      1  C   UNL     1      -6.134   4.764  25.608  0.00  0.00    +0.252 C 
ATOM      2  O   UNL     1      -6.124   3.975  25.846  0.00  0.00    -0.471 OA
ENDBRANCH   3   2
ENDBRANCH   7   6
ENDBRANCH   9   8
TORSDOF 7
ENDMDL
MODEL 5
REMARK VINA RESULT:      -7.2      1.861      2.982
REMARK  Name = 
REMARK  7 active torsions:
REMARK  status: ('A' for Active; 'I' for Inactive)
REMARK    1  A    between atoms: O_2  and  C_3
REMARK    2  A    between atoms: C_6  and  C_7
REMARK    3  A    between atoms: C_8  and  C_9
REMARK    4  A    between atoms: C_17  and  N_25
REMARK    5  A    between atoms: C_26  and  C_28
REMARK    6  A    between atoms: C_28  and  C_29
REMARK    7  A    between atoms: C_29  and  C_30
REMARK                            x       y       z     vdW  Elec       q    Type
REMARK                         _______ _______ _______ _____ _____    ______ ____
ROOT
ATOM      9  C   UNL     1       0.920   1.026  23.810  0.00  0.00    +0.000 A 
ATOM     10  C   UNL     1       0.538   1.681  23.486  0.00  0.00    +0.001 A 
ATOM     11  C   UNL     1      -0.280   1.759  23.556  0.00  0.00    +0.017 A 
ATOM     12  C   UNL     1      -0.717   1.181  23.951  0.00  0.00    +0.078 A 
ATOM     13  N   UNL     1      -1.521   1.364  23.959  0.00  0.00    -0.178 NA
ATOM     14  C   UNL     1      -2.143   0.937  24.294  0.00  0.00    +0.265 C 
ATOM     15  O   UNL     1      -2.893   1.270  24.207  0.00  0.00    -0.271 OA
ATOM     16  C   UNL     1      -2.113   0.222  24.703  0.00  0.00    +0.174 C 
ATOM     17  C   UNL     1      -2.780  -0.153  25.013  0.00  0.00    +0.124 C 
ATOM     18  C   UNL     1      -2.534  -0.849  25.380  0.00  0.00    +0.045 C 
ATOM     19  C   UNL     1      -1.715  -0.905  25.298  0.00  0.00    +0.096 C 
ATOM     20  N   UNL     1      -1.455  -0.244  24.879  0.00  0.00    -0.268 N 
ATOM     21  C   UNL     1      -0.664  -0.109  24.689  0.00  0.00    +0.251 C 
ATOM     22  O   UNL     1      -0.131  -0.683  24.946  0.00  0.00    -0.270 OA
ATOM     23  C   UNL     1      -0.335   0.526  24.276  0.00  0.00    +0.069 A 
ATOM     24  C   UNL     1       0.483   0.448  24.206  0.00  0.00    +0.006 A 
ENDROOT
BRANCH  17  25
ATOM     25  N   UNL     1      -3.557   0.121  24.964  0.00  0.00    -0.205 NA
ATOM     26  C   UNL     1      -4.159  -0.386  24.720  0.00  0.00    +0.242 C 
ATOM     27  O   UNL     1      -4.936  -0.112  24.671  0.00  0.00    -0.273 OA
BRANCH  26  28
ATOM     28  C   UNL     1      -3.985  -1.169  24.525  0.00  0.00    +0.099 C 
BRANCH  28  29
ATOM     29  C   UNL     1      -4.560  -1.643  24.171  0.00  0.00    +0.124 C 
BRANCH  29  30
ATOM     30  C   UNL     1      -4.351  -2.376  23.852  0.00  0.00    +0.365 C 
ATOM     31  O   UNL     1      -4.333  -2.479  23.034  0.00  0.00    -0.246 OA
ATOM     32  O   UNL     1      -4.160  -3.004  24.352  0.00  0.00    -0.246 OA
ENDBRANCH  29  30
ENDBRANCH  28  29
ENDBRANCH  26  28
ENDBRANCH  17  25
BRANCH   9   8
ATOM      7  C   UNL     1       2.061   0.571  23.082  0.00  0.00    +0.000 C 
ATOM      8  C   UNL     1       1.738   0.948  23.740  0.00  0.00    +0.000 C 
BRANCH   7   6
ATOM      3  C   UNL     1       4.516   0.336  22.871  0.00  0.00    +0.139 A 
ATOM      4  C   UNL     1       4.062  -0.302  23.129  0.00  0.00    +0.037 A 
ATOM      5  C   UNL     1       3.243  -0.224  23.199  0.00  0.00    +0.003 A 
ATOM      6  C   UNL     1       2.880   0.493  23.011  0.00  0.00    +0.000 A 
ATOM     33  C   UNL     1       3.335   1.131  22.753  0.00  0.00    +0.003 A 
ATOM     34  C   UNL     1       4.154   1.052  22.683  0.00  0.00    +0.037 A 
BRANCH   3   2
ATOM      1  C   UNL     1       5.779  -0.016  23.439  0.00  0.00    +0.252 C 
ATOM      2  O   UNL     1       5.335   0.258  22.801  0.00  0.00    -0.471 OA
ENDBRANCH   3   2
ENDBRANCH   7   6
ENDBRANCH   9   8
TORSDOF 7
ENDMDL
MODEL 6
REMARK VINA RESULT:      -6.6      1.923      7.182
REMARK  Name = 
REMARK  7 active torsions:
REMARK  status: ('A' for Active; 'I' for Inactive)
REMARK    1  A    between atoms: O_2  and  C_3
REMARK    2  A    between atoms: C_6  and  C_7
REMARK    3  A    between atoms: C_8  and  C_9
REMARK    4  A    between atoms: C_17  and  N_25
REMARK    5  A    between atoms: C_26  and  C_28
REMARK    6  A    between atoms: C_28  and  C_29
REMARK    7  A    between atoms: C_29  and  C_30
REMARK                            x       y       z     vdW  Elec       q    Type
REMARK                         _______ _______ _______ _____ _____    ______ ____
ROOT
ATOM      9  C   UNL     1      -1.117   1.367  24.482  0.00  0.00    +0.000 A 
ATOM     10  C   UNL     1      -0.787   2.102  24.660  0.00  0.00    +0.001 A 
ATOM     11  C   UNL     1      -0.009   2.268  24.440  0.00  0.00    +0.017 A 
ATOM     12  C   UNL     1       0.438   1.701  24.042  0.00  0.00    +0.078 A 
ATOM     13  N   UNL     1       1.197   1.977  23.874  0.00  0.00    -0.178 NA
ATOM     14  C   UNL     1       1.812   1.588  23.487  0.00  0.00    +0.265 C 
ATOM     15  O   UNL     1       2.512   2.018  23.404  0.00  0.00    -0.271 OA
ATOM     16  C   UNL     1       1.821   0.826  23.173  0.00  0.00    +0.174 C 
ATOM     17  C   UNL     1       2.478   0.497  22.795  0.00  0.00    +0.124 C 
ATOM     18  C   UNL     1       2.278  -0.267  22.557  0.00  0.00    +0.045 C 
ATOM     19  C   UNL     1       1.500  -0.411  22.787  0.00  0.00    +0.096 C 
ATOM     20  N   UNL     1       1.217   0.265  23.167  0.00  0.00    -0.268 N 
ATOM     21  C   UNL     1       0.454   0.326  23.475  0.00  0.00    +0.251 C 
ATOM     22  O   UNL     1      -0.025  -0.338  23.381  0.00  0.00    -0.270 OA
ATOM     23  C   UNL     1       0.107   0.966  23.864  0.00  0.00    +0.069 A 
ATOM     24  C   UNL     1      -0.670   0.799  24.084  0.00  0.00    +0.006 A 
ENDROOT
BRANCH  17  25
ATOM     25  N   UNL     1       3.205   0.868  22.678  0.00  0.00    -0.205 NA
ATOM     26  C   UNL     1       3.905   0.471  22.859  0.00  0.00    +0.242 C 
ATOM     27  O   UNL     1       4.633   0.842  22.741  0.00  0.00    -0.273 OA
BRANCH  26  28
ATOM     28  C   UNL     1       3.877  -0.298  23.158  0.00  0.00    +0.099 C 
BRANCH  28  29
ATOM     29  C   UNL     1       4.572  -0.737  23.230  0.00  0.00    +0.124 C 
BRANCH  29  30
ATOM     30  C   UNL     1       4.694  -1.209  23.896  0.00  0.00    +0.365 C 
ATOM     31  O   UNL     1       4.316  -1.939  23.959  0.00  0.00    -0.246 OA
ATOM     32  O   UNL     1       5.194  -0.949  24.499  0.00  0.00    -0.246 OA
ENDBRANCH  29  30
ENDBRANCH  28  29
ENDBRANCH  26  28
ENDBRANCH  17  25
BRANCH   9   8
ATOM      7  C   UNL     1      -2.517   1.633  24.377  0.00  0.00    +0.000 C 
ATOM      8  C   UNL     1      -1.895   1.200  24.701  0.00  0.00    +0.000 C 
BRANCH   7   6
ATOM      3  C   UNL     1      -4.850   1.131  25.035  0.00  0.00    +0.139 A 
ATOM      4  C   UNL     1      -4.341   0.518  24.821  0.00  0.00    +0.037 A 
ATOM      5  C   UNL     1      -3.563   0.685  24.602  0.00  0.00    +0.003 A 
ATOM      6  C   UNL     1      -3.295   1.466  24.596  0.00  0.00    +0.000 A 
ATOM     33  C   UNL     1      -3.805   2.079  24.810  0.00  0.00    +0.003 A 
ATOM     34  C   UNL     1      -4.582   1.911  25.030  0.00  0.00    +0.037 A 
BRANCH   3   2
ATOM      1  C   UNL     1      -6.208   1.546  25.192  0.00  0.00    +0.252 C 
ATOM      2  O   UNL     1      -5.627   0.964  25.255  0.00  0.00    -0.471 OA
ENDBRANCH   3   2
ENDBRANCH   7   6
ENDBRANCH   9   8
TORSDOF 7
ENDMDL
MODEL 7
REMARK VINA RESULT:      -6.5     15.779     16.923
REMARK  Name = 
REMARK  7 active torsions:
REMARK  status: ('A' for Active; 'I' for Inactive)
REMARK    1  A    between atoms: O_2  and  C_3
REMARK    2  A    between atoms: C_6  and  C_7
REMARK    3  A    between atoms: C_8  and  C_9
REMARK    4  A    between atoms: C_17  and  N_25
REMARK    5  A    between atoms: C_26  and  C_28
REMARK    6  A    between atoms: C_28  and  C_29
REMARK    7  A    between atoms: C_29  and  C_30
REMARK                            x       y       z     vdW  Elec       q    Type
REMARK                         _______ _______ _______ _____ _____    ______ ____
ROOT
ATOM      9  C   UNL     1      -5.908 -10.215  14.484  0.00  0.00    +0.000 A 
ATOM     10  C   UNL     1      -5.121 -10.373  14.292  0.00  0.00    +0.001 A 
ATOM     11  C   UNL     1      -4.857 -10.271  13.517  0.00  0.00    +0.017 A 
ATOM     12  C   UNL     1      -5.379 -10.010  12.934  0.00  0.00    +0.078 A 
ATOM     13  N   UNL     1      -5.005  -9.945  12.202  0.00  0.00    -0.178 NA
ATOM     14  C   UNL     1      -5.326  -9.705  11.481  0.00  0.00    +0.265 C 
ATOM     15  O   UNL     1      -4.803  -9.698  10.842  0.00  0.00    -0.271 OA
ATOM     16  C   UNL     1      -6.099  -9.472  11.313  0.00  0.00    +0.174 C 
ATOM     17  C   UNL     1      -6.352  -9.243  10.562  0.00  0.00    +0.124 C 
ATOM     18  C   UNL     1      -7.153  -9.050  10.611  0.00  0.00    +0.045 C 
ATOM     19  C   UNL     1      -7.394  -9.160  11.392  0.00  0.00    +0.096 C 
ATOM     20  N   UNL     1      -6.743  -9.421  11.826  0.00  0.00    -0.268 N 
ATOM     21  C   UNL     1      -6.773  -9.590  12.633  0.00  0.00    +0.251 C 
ATOM     22  O   UNL     1      -7.507  -9.482  12.994  0.00  0.00    -0.270 OA
ATOM     23  C   UNL     1      -6.166  -9.852  13.126  0.00  0.00    +0.069 A 
ATOM     24  C   UNL     1      -6.431  -9.955  13.901  0.00  0.00    +0.006 A 
ENDROOT
BRANCH  17  25
ATOM     25  N   UNL     1      -5.887  -9.212   9.882  0.00  0.00    -0.205 NA
ATOM     26  C   UNL     1      -6.176  -8.852   9.199  0.00  0.00    +0.242 C 
ATOM     27  O   UNL     1      -5.711  -8.821   8.519  0.00  0.00    -0.273 OA
BRANCH  26  28
ATOM     28  C   UNL     1      -6.933  -8.521   9.197  0.00  0.00    +0.099 C 
BRANCH  28  29
ATOM     29  C   UNL     1      -7.256  -8.236   8.493  0.00  0.00    +0.124 C 
BRANCH  29  30
ATOM     30  C   UNL     1      -7.920  -7.746   8.513  0.00  0.00    +0.365 C 
ATOM     31  O   UNL     1      -8.673  -8.069   8.420  0.00  0.00    -0.246 OA
ATOM     32  O   UNL     1      -7.830  -6.934   8.626  0.00  0.00    -0.246 OA
ENDBRANCH  29  30
ENDBRANCH  28  29
ENDBRANCH  26  28
ENDBRANCH  17  25
BRANCH   9   8
ATOM      7  C   UNL     1      -5.847  -9.868  15.868  0.00  0.00    +0.000 C 
ATOM      8  C   UNL     1      -6.172 -10.318  15.258  0.00  0.00    +0.000 C 
BRANCH   7   6
ATOM      3  C   UNL     1      -6.642 -10.175  18.192  0.00  0.00    +0.139 A 
ATOM      4  C   UNL     1      -7.094  -9.742  17.656  0.00  0.00    +0.037 A 
ATOM      5  C   UNL     1      -6.829  -9.639  16.881  0.00  0.00    +0.003 A 
ATOM      6  C   UNL     1      -6.111  -9.971  16.643  0.00  0.00    +0.000 A 
ATOM     33  C   UNL     1      -5.659 -10.404  17.181  0.00  0.00    +0.003 A 
ATOM     34  C   UNL     1      -5.925 -10.506  17.955  0.00  0.00    +0.037 A 
BRANCH   3   2
ATOM      1  C   UNL     1      -6.366 -10.435  19.570  0.00  0.00    +0.252 C 
ATOM      2  O   UNL     1      -6.906 -10.277  18.967  0.00  0.00    -0.471 OA
ENDBRANCH   3   2
ENDBRANCH   7   6
ENDBRANCH   9   8
TORSDOF 7
ENDMDL
