MODEL 1
REMARK VINA RESULT:     -10.3      0.000      0.000
REMARK  Name = 
REMARK  8 active torsions:
REMARK  status: ('A' for Active; 'I' for Inactive)
REMARK    1  A    between atoms: C_2  and  C_4
REMARK    2  A    between atoms: C_6  and  C_7
REMARK    3  A    between atoms: C_7  and  C_8
REMARK    4  A    between atoms: C_11  and  C_13
REMARK    5  A    between atoms: C_23  and  C_24
REMARK    6  A    between atoms: C_24  and  N_25
REMARK    7  A    between atoms: N_28  and  C_29
REMARK    8  A    between atoms: C_29  and  C_30
REMARK                            x       y       z     vdW  Elec       q    Type
REMARK                         _______ _______ _______ _____ _____    ______ ____
ROOT
ATOM      4  C   UNL     1      -0.694   2.473  25.135  0.00  0.00    +0.006 C 
ATOM      5  C   UNL     1      -0.409   1.800  24.753  0.00  0.00    +0.005 C 
ATOM      6  C   UNL     1      -0.779   1.527  24.067  0.00  0.00    +0.027 C 
ATOM     20  C   UNL     1      -1.435   1.927  23.766  0.00  0.00    -0.048 C 
ATOM     21  C   UNL     1      -1.805   1.654  23.081  0.00  0.00    +0.026 C 
ATOM     22  C   UNL     1      -1.719   2.600  24.149  0.00  0.00    -0.034 C 
ATOM     23  C   UNL     1      -1.350   2.873  24.833  0.00  0.00    +0.037 C 
ENDROOT
BRANCH   4   2
ATOM      1  C   UNL     1       0.166   3.409  25.787  0.00  0.00    +0.000 C 
ATOM      2  C   UNL     1      -0.324   2.746  25.820  0.00  0.00    +0.000 C 
ATOM      3  C   UNL     1      -0.442   2.356  26.536  0.00  0.00    +0.000 C 
ENDBRANCH   4   2
BRANCH   6   7
ATOM      7  C   UNL     1      -0.494   0.854  23.685  0.00  0.00    +0.091 C 
BRANCH   7   8
ATOM      8  C   UNL     1      -0.634   0.108  24.004  0.00  0.00    +0.227 A 
ATOM      9  N   UNL     1      -0.066  -0.397  24.326  0.00  0.00    -0.111 NA
ATOM     10  N   UNL     1      -0.448  -1.083  24.578  0.00  0.00    -0.107 NA
ATOM     11  C   UNL     1      -1.252  -1.003  24.413  0.00  0.00    +0.250 A 
ATOM     12  O   UNL     1      -1.367  -0.266  24.058  0.00  0.00    -0.420 OA
BRANCH  11  13
ATOM     13  C   UNL     1      -1.839  -1.560  24.574  0.00  0.00    +0.055 A 
ATOM     14  C   UNL     1      -1.782  -2.321  24.261  0.00  0.00    +0.004 A 
ATOM     15  C   UNL     1      -2.368  -2.879  24.421  0.00  0.00    -0.004 A 
ATOM     16  C   UNL     1      -3.012  -2.675  24.895  0.00  0.00    -0.022 A 
ATOM     17  C   UNL     1      -3.599  -3.233  25.056  0.00  0.00    +0.031 C 
ATOM     18  C   UNL     1      -3.070  -1.914  25.209  0.00  0.00    -0.004 A 
ATOM     19  C   UNL     1      -2.482  -1.356  25.048  0.00  0.00    +0.004 A 
ENDBRANCH  11  13
ENDBRANCH   7   8
ENDBRANCH   6   7
BRANCH  23  24
ATOM     24  C   UNL     1      -1.634   3.545  25.216  0.00  0.00    +0.076 C 
BRANCH  24  25
ATOM     25  N   UNL     1      -2.448   3.684  25.257  0.00  0.00    -0.270 NA
ATOM     26  C   UNL     1      -2.819   4.130  24.671  0.00  0.00    +0.090 C 
ATOM     27  C   UNL     1      -3.632   4.269  24.711  0.00  0.00    +0.090 C 
ATOM     28  N   UNL     1      -4.072   3.961  25.338  0.00  0.00    -0.268 NA
ATOM     32  C   UNL     1      -3.700   3.514  25.923  0.00  0.00    +0.090 C 
ATOM     33  C   UNL     1      -2.887   3.376  25.882  0.00  0.00    +0.090 C 
BRANCH  28  29
ATOM     29  C   UNL     1      -4.884   4.099  25.378  0.00  0.00    +0.108 C 
BRANCH  29  30
ATOM     30  C   UNL     1      -5.395   3.494  25.609  0.00  0.00    +0.199 C 
ATOM     31  O   UNL     1      -6.194   3.654  25.738  0.00  0.00    -0.219 OA
ENDBRANCH  29  30
ENDBRANCH  28  29
ENDBRANCH  24  25
ENDBRANCH  23  24
TORSDOF 8
ENDMDL
MODEL 2
REMARK VINA RESULT:     -10.2      2.047      3.262
REMARK  Name = 
REMARK  8 active torsions:
REMARK  status: ('A' for Active; 'I' for Inactive)
REMARK    1  A    between atoms: C_2  and  C_4
REMARK    2  A    between atoms: C_6  and  C_7
REMARK    3  A    between atoms: C_7  and  C_8
REMARK    4  A    between atoms: C_11  and  C_13
REMARK    5  A    between atoms: C_23  and  C_24
REMARK    6  A    between atoms: C_24  and  N_25
REMARK    7  A    between atoms: N_28  and  C_29
REMARK    8  A    between atoms: C_29  and  C_30
REMARK                            x       y       z     vdW  Elec       q    Type
REMARK                         _______ _______ _______ _____ _____    ______ ____
ROOT
ATOM      4  C   UNL     1      -4.895   1.700  24.940  0.00  0.00    +0.006 C 
ATOM      5  C   UNL     1      -4.816   0.953  24.599  0.00  0.00    +0.005 C 
ATOM      6  C   UNL     1      -4.222   0.816  24.042  0.00  0.00    +0.027 C 
ATOM     20  C   UNL     1      -3.709   1.425  23.826  0.00  0.00    -0.048 C 
ATOM     21  C   UNL     1      -3.117   1.287  23.270  0.00  0.00    +0.026 C 
ATOM     22  C   UNL     1      -3.790   2.172  24.168  0.00  0.00    -0.034 C 
ATOM     23  C   UNL     1      -4.382   2.309  24.724  0.00  0.00    +0.037 C 
ENDROOT
BRANCH   4   2
ATOM      1  C   UNL     1      -5.365   1.637  26.288  0.00  0.00    +0.000 C 
ATOM      2  C   UNL     1      -5.488   1.837  25.496  0.00  0.00    +0.000 C 
ATOM      3  C   UNL     1      -6.203   2.174  25.263  0.00  0.00    +0.000 C 
ENDBRANCH   4   2
BRANCH   6   7
ATOM      7  C   UNL     1      -4.143   0.069  23.701  0.00  0.00    +0.091 C 
BRANCH   7   8
ATOM      8  C   UNL     1      -3.756  -0.533  24.110  0.00  0.00    +0.227 A 
ATOM      9  N   UNL     1      -4.118  -1.157  24.511  0.00  0.00    -0.111 NA
ATOM     10  N   UNL     1      -3.524  -1.627  24.840  0.00  0.00    -0.107 NA
ATOM     11  C   UNL     1      -2.796  -1.293  24.643  0.00  0.00    +0.250 A 
ATOM     12  O   UNL     1      -2.940  -0.617  24.192  0.00  0.00    -0.420 OA
BRANCH  11  13
ATOM     13  C   UNL     1      -2.055  -1.583  24.859  0.00  0.00    +0.055 A 
ATOM     14  C   UNL     1      -1.590  -1.167  25.398  0.00  0.00    +0.004 A 
ATOM     15  C   UNL     1      -0.848  -1.457  25.615  0.00  0.00    -0.004 A 
ATOM     16  C   UNL     1      -0.572  -2.164  25.291  0.00  0.00    -0.022 A 
ATOM     17  C   UNL     1       0.170  -2.454  25.507  0.00  0.00    +0.031 C 
ATOM     18  C   UNL     1      -1.036  -2.580  24.751  0.00  0.00    -0.004 A 
ATOM     19  C   UNL     1      -1.778  -2.289  24.535  0.00  0.00    +0.004 A 
ENDBRANCH  11  13
ENDBRANCH   7   8
ENDBRANCH   6   7
BRANCH  23  24
ATOM     24  C   UNL     1      -4.462   3.055  25.065  0.00  0.00    +0.076 C 
BRANCH  24  25
ATOM     25  N   UNL     1      -3.807   3.554  25.126  0.00  0.00    -0.270 NA
ATOM     26  C   UNL     1      -3.324   3.521  25.795  0.00  0.00    +0.090 C 
ATOM     27  C   UNL     1      -2.669   4.019  25.855  0.00  0.00    +0.090 C 
ATOM     28  N   UNL     1      -2.497   4.550  25.247  0.00  0.00    -0.268 NA
ATOM     32  C   UNL     1      -2.980   4.583  24.579  0.00  0.00    +0.090 C 
ATOM     33  C   UNL     1      -3.635   4.085  24.519  0.00  0.00    +0.090 C 
BRANCH  28  29
ATOM     29  C   UNL     1      -1.843   5.048  25.308  0.00  0.00    +0.108 C 
BRANCH  29  30
ATOM     30  C   UNL     1      -1.125   4.829  24.967  0.00  0.00    +0.199 C 
ATOM     31  O   UNL     1      -0.511   5.377  24.909  0.00  0.00    -0.219 OA
ENDBRANCH  29  30
ENDBRANCH  28  29
ENDBRANCH  24  25
ENDBRANCH  23  24
TORSDOF 8
ENDMDL
MODEL 3
REMARK VINA RESULT:     -10.0      1.239      4.688
REMARK  Name = 
REMARK  8 active torsions:
REMARK  status: ('A' for Active; 'I' for Inactive)
REMARK    1  A    between atoms: C_2  and  C_4
REMARK    2  A    between atoms: C_6  and  C_7
REMARK    3  A    between atoms: C_7  and  C_8
REMARK    4  A    between atoms: C_11  and  C_13
REMARK    5  A    between atoms: C_23  and  C_24
REMARK    6  A    between atoms: C_24  and  N_25
REMARK    7  A    between atoms: N_28  and  C_29
REMARK    8  A    between atoms: C_29  and  C_30
REMARK                            x       y       z     vdW  Elec       q    Type
REMARK                         _______ _______ _______ _____ _____    ______ ____
ROOT
ATOM      4  C   UNL     1      -0.995   2.385  24.725  0.00  0.00    +0.006 C 
ATOM      5  C   UNL     1      -1.570   2.902  24.438  0.00  0.00    +0.005 C 
ATOM      6  C   UNL     1      -2.030   2.686  23.787  0.00  0.00    +0.027 C 
ATOM     20  C   UNL     1      -1.916   1.953  23.426  0.00  0.00    -0.048 C 
ATOM     21  C   UNL     1      -2.377   1.738  22.777  0.00  0.00    +0.026 C 
ATOM     22  C   UNL     1      -1.341   1.436  23.715  0.00  0.00    -0.034 C 
ATOM     23  C   UNL     1      -0.881   1.652  24.364  0.00  0.00    +0.037 C 
ENDROOT
BRANCH   4   2
ATOM      1  C   UNL     1       0.240   2.863  25.262  0.00  0.00    +0.000 C 
ATOM      2  C   UNL     1      -0.535   2.601  25.375  0.00  0.00    +0.000 C 
ATOM      3  C   UNL     1      -0.848   2.556  26.136  0.00  0.00    +0.000 C 
ENDBRANCH   4   2
BRANCH   6   7
ATOM      7  C   UNL     1      -2.605   3.203  23.500  0.00  0.00    +0.091 C 
BRANCH   7   8
ATOM      8  C   UNL     1      -3.285   3.352  23.941  0.00  0.00    +0.227 A 
ATOM      9  N   UNL     1      -3.613   4.095  24.090  0.00  0.00    -0.111 NA
ATOM     10  N   UNL     1      -4.288   3.986  24.553  0.00  0.00    -0.107 NA
ATOM     11  C   UNL     1      -4.376   3.177  24.690  0.00  0.00    +0.250 A 
ATOM     12  O   UNL     1      -3.756   2.786  24.312  0.00  0.00    -0.420 OA
BRANCH  11  13
ATOM     13  C   UNL     1      -4.978   2.822  25.128  0.00  0.00    +0.055 A 
ATOM     14  C   UNL     1      -5.395   2.183  24.814  0.00  0.00    +0.004 A 
ATOM     15  C   UNL     1      -5.997   1.827  25.251  0.00  0.00    -0.004 A 
ATOM     16  C   UNL     1      -6.183   2.112  26.003  0.00  0.00    -0.022 A 
ATOM     17  C   UNL     1      -6.785   1.756  26.441  0.00  0.00    +0.031 C 
ATOM     18  C   UNL     1      -5.767   2.751  26.318  0.00  0.00    -0.004 A 
ATOM     19  C   UNL     1      -5.164   3.106  25.879  0.00  0.00    +0.004 A 
ENDBRANCH  11  13
ENDBRANCH   7   8
ENDBRANCH   6   7
BRANCH  23  24
ATOM     24  C   UNL     1      -0.307   1.135  24.652  0.00  0.00    +0.076 C 
BRANCH  24  25
ATOM     25  N   UNL     1      -0.450   0.322  24.660  0.00  0.00    -0.270 NA
ATOM     26  C   UNL     1      -0.119  -0.161  24.079  0.00  0.00    +0.090 C 
ATOM     27  C   UNL     1      -0.262  -0.973  24.087  0.00  0.00    +0.090 C 
ATOM     28  N   UNL     1      -0.736  -1.303  24.677  0.00  0.00    -0.268 NA
ATOM     32  C   UNL     1      -1.067  -0.820  25.258  0.00  0.00    +0.090 C 
ATOM     33  C   UNL     1      -0.924  -0.007  25.249  0.00  0.00    +0.090 C 
BRANCH  28  29
ATOM     29  C   UNL     1      -0.879  -2.115  24.685  0.00  0.00    +0.108 C 
BRANCH  29  30
ATOM     30  C   UNL     1      -1.652  -2.398  24.637  0.00  0.00    +0.199 C 
ATOM     31  O   UNL     1      -1.801  -3.134  24.294  0.00  0.00    -0.219 OA
ENDBRANCH  29  30
ENDBRANCH  28  29
ENDBRANCH  24  25
ENDBRANCH  23  24
TORSDOF 8
ENDMDL
MODEL 4
REMARK VINA RESULT:      -9.8      2.016      5.388
REMARK  Name = 
REMARK  8 active torsions:
REMARK  status: ('A' for Active; 'I' for Inactive)
REMARK    1  A    between atoms: C_2  and  C_4
REMARK    2  A    between atoms: C_6  and  C_7
REMARK    3  A    between atoms: C_7  and  C_8
REMARK    4  A    between atoms: C_11  and  C_13
REMARK    5  A    between atoms: C_23  and  C_24
REMARK    6  A    between atoms: C_24  and  N_25
REMARK    7  A    between atoms: N_28  and  C_29
REMARK    8  A    between atoms: C_29  and  C_30
REMARK                            x       y       z     vdW  Elec       q    Type
REMARK                         _______ _______ _______ _____ _____    ______ ____
ROOT
ATOM      4  C   UNL     1      -1.036   0.423  24.726  0.00  0.00    +0.006 C 
ATOM      5  C   UNL     1      -1.371   1.097  25.064  0.00  0.00    +0.005 C 
ATOM      6  C   UNL     1      -1.050   1.841  24.907  0.00  0.00    +0.027 C 
ATOM     20  C   UNL     1      -0.393   1.910  24.412  0.00  0.00    -0.048 C 
ATOM     21  C   UNL     1      -0.072   2.653  24.255  0.00  0.00    +0.026 C 
ATOM     22  C   UNL     1      -0.059   1.236  24.074  0.00  0.00    -0.034 C 
ATOM     23  C   UNL     1      -0.380   0.493  24.231  0.00  0.00    +0.037 C 
ENDROOT
BRANCH   4   2
ATOM      1  C   UNL     1      -1.915  -0.645  24.369  0.00  0.00    +0.000 C 
ATOM      2  C   UNL     1      -1.358  -0.319  24.884  0.00  0.00    +0.000 C 
ATOM      3  C   UNL     1      -1.124  -0.736  25.555  0.00  0.00    +0.000 C 
ENDBRANCH   4   2
BRANCH   6   7
ATOM      7  C   UNL     1      -1.385   2.515  25.245  0.00  0.00    +0.091 C 
BRANCH   7   8
ATOM      8  C   UNL     1      -2.158   2.729  25.057  0.00  0.00    +0.227 A 
ATOM      9  N   UNL     1      -2.382   3.361  24.575  0.00  0.00    -0.111 NA
ATOM     10  N   UNL     1      -3.207   3.372  24.538  0.00  0.00    -0.107 NA
ATOM     11  C   UNL     1      -3.492   2.748  24.996  0.00  0.00    +0.250 A 
ATOM     12  O   UNL     1      -2.843   2.351  25.317  0.00  0.00    -0.420 OA
BRANCH  11  13
ATOM     13  C   UNL     1      -4.285   2.555  25.114  0.00  0.00    +0.055 A 
ATOM     14  C   UNL     1      -4.739   2.986  25.651  0.00  0.00    +0.004 A 
ATOM     15  C   UNL     1      -5.533   2.794  25.769  0.00  0.00    -0.004 A 
ATOM     16  C   UNL     1      -5.872   2.169  25.349  0.00  0.00    -0.022 A 
ATOM     17  C   UNL     1      -6.666   1.977  25.467  0.00  0.00    +0.031 C 
ATOM     18  C   UNL     1      -5.418   1.738  24.813  0.00  0.00    -0.004 A 
ATOM     19  C   UNL     1      -4.624   1.931  24.695  0.00  0.00    +0.004 A 
ENDBRANCH  11  13
ENDBRANCH   7   8
ENDBRANCH   6   7
BRANCH  23  24
ATOM     24  C   UNL     1      -0.045  -0.181  23.894  0.00  0.00    +0.076 C 
BRANCH  24  25
ATOM     25  N   UNL     1       0.658  -0.122  23.465  0.00  0.00    -0.270 NA
ATOM     26  C   UNL     1       0.635  -0.068  22.642  0.00  0.00    +0.090 C 
ATOM     27  C   UNL     1       1.338  -0.009  22.213  0.00  0.00    +0.090 C 
ATOM     28  N   UNL     1       2.063  -0.004  22.608  0.00  0.00    -0.268 NA
ATOM     32  C   UNL     1       2.085  -0.059  23.431  0.00  0.00    +0.090 C 
ATOM     33  C   UNL     1       1.382  -0.118  23.859  0.00  0.00    +0.090 C 
BRANCH  28  29
ATOM     29  C   UNL     1       2.765   0.055  22.180  0.00  0.00    +0.108 C 
BRANCH  29  30
ATOM     30  C   UNL     1       3.357   0.573  22.427  0.00  0.00    +0.199 C 
ATOM     31  O   UNL     1       4.070   0.613  22.013  0.00  0.00    -0.219 OA
ENDBRANCH  29  30
ENDBRANCH  28  29
ENDBRANCH  24  25
ENDBRANCH  23  24
TORSDOF 8
ENDMDL
MODEL 5
REMARK VINA RESULT:      -9.6      1.836      3.723
REMARK  Name = 
REMARK  8 active torsions:
REMARK  status: ('A' for Active; 'I' for Inactive)
REMARK    1  A    between atoms: C_2  and  C_4
REMARK    2  A    between atoms: C_6  and  C_7
REMARK    3  A    between atoms: C_7  and  C_8
REMARK    4  A    between atoms: C_11  and  C_13
REMARK    5  A    between atoms: C_23  and  C_24
REMARK    6  A    between atoms: C_24  and  N_25
REMARK    7  A    between atoms: N_28  and  C_29
REMARK    8  A    between atoms: C_29  and  C_30
REMARK                            x       y       z     vdW  Elec       q    Type
REMARK                         _______ _______ _______ _____ _____    ______ ____
ROOT
ATOM      4  C   UNL     1      -3.075   3.512  25.352  0.00  0.00    +0.006 C 
ATOM      5  C   UNL     1      -3.795   3.151  25.173  0.00  0.00    +0.005 C 
ATOM      6  C   UNL     1      -3.893   2.763  24.451  0.00  0.00    +0.027 C 
ATOM     20  C   UNL     1      -3.272   2.737  23.909  0.00  0.00    -0.048 C 
ATOM     21  C   UNL     1      -3.371   2.349  23.188  0.00  0.00    +0.026 C 
ATOM     22  C   UNL     1      -2.552   3.099  24.089  0.00  0.00    -0.034 C 
ATOM     23  C   UNL     1      -2.454   3.486  24.810  0.00  0.00    +0.037 C 
ENDROOT
BRANCH   4   2
ATOM      1  C   UNL     1      -2.981   4.725  26.102  0.00  0.00    +0.000 C 
ATOM      2  C   UNL     1      -2.977   3.900  26.073  0.00  0.00    +0.000 C 
ATOM      3  C   UNL     1      -2.876   3.464  26.765  0.00  0.00    +0.000 C 
ENDBRANCH   4   2
BRANCH   6   7
ATOM      7  C   UNL     1      -4.613   2.402  24.272  0.00  0.00    +0.091 C 
BRANCH   7   8
ATOM      8  C   UNL     1      -4.764   1.634  24.529  0.00  0.00    +0.227 A 
ATOM      9  N   UNL     1      -5.429   1.385  24.950  0.00  0.00    -0.111 NA
ATOM     10  N   UNL     1      -5.352   0.575  25.091  0.00  0.00    -0.107 NA
ATOM     11  C   UNL     1      -4.641   0.324  24.757  0.00  0.00    +0.250 A 
ATOM     12  O   UNL     1      -4.278   0.978  24.409  0.00  0.00    -0.420 OA
BRANCH  11  13
ATOM     13  C   UNL     1      -4.345  -0.446  24.768  0.00  0.00    +0.055 A 
ATOM     14  C   UNL     1      -3.912  -0.712  25.417  0.00  0.00    +0.004 A 
ATOM     15  C   UNL     1      -3.615  -1.482  25.430  0.00  0.00    -0.004 A 
ATOM     16  C   UNL     1      -3.753  -1.986  24.790  0.00  0.00    -0.022 A 
ATOM     17  C   UNL     1      -3.456  -2.756  24.802  0.00  0.00    +0.031 C 
ATOM     18  C   UNL     1      -4.185  -1.721  24.140  0.00  0.00    -0.004 A 
ATOM     19  C   UNL     1      -4.482  -0.950  24.130  0.00  0.00    +0.004 A 
ENDBRANCH  11  13
ENDBRANCH   7   8
ENDBRANCH   6   7
BRANCH  23  24
ATOM     24  C   UNL     1      -1.735   3.847  24.989  0.00  0.00    +0.076 C 
BRANCH  24  25
ATOM     25  N   UNL     1      -1.025   3.469  24.801  0.00  0.00    -0.270 NA
ATOM     26  C   UNL     1      -0.743   2.859  25.280  0.00  0.00    +0.090 C 
ATOM     27  C   UNL     1      -0.034   2.482  25.092  0.00  0.00    +0.090 C 
ATOM     28  N   UNL     1       0.393   2.715  24.425  0.00  0.00    -0.268 NA
ATOM     32  C   UNL     1       0.111   3.325  23.947  0.00  0.00    +0.090 C 
ATOM     33  C   UNL     1      -0.598   3.702  24.135  0.00  0.00    +0.090 C 
BRANCH  28  29
ATOM     29  C   UNL     1       1.102   2.338  24.237  0.00  0.00    +0.108 C 
BRANCH  29  30
ATOM     30  C   UNL     1       1.092   1.593  23.882  0.00  0.00    +0.199 C 
ATOM     31  O   UNL     1       1.793   1.261  23.601  0.00  0.00    -0.219 OA
ENDBRANCH  29  30
ENDBRANCH  28  29
ENDBRANCH  24  25
ENDBRANCH  23  24
TORSDOF 8
ENDMDL
MODEL 6
REMARK VINA RESULT:      -9.6      1.912      5.239
REMARK  Name = 
REMARK  8 active torsions:
REMARK  status: ('A' for Active; 'I' for Inactive)
REMARK    1  A    between atoms: C_2  and  C_4
REMARK    2  A    between atoms: C_6  and  C_7
REMARK    3  A    between atoms: C_7  and  C_8
REMARK    4  A    between atoms: C_11  and  C_13
REMARK    5  A    between atoms: C_23  and  C_24
REMARK    6  A    between atoms: C_24  and  N_25
REMARK    7  A    between atoms: N_28  and  C_29
REMARK    8  A    between atoms: C_29  and  C_30
REMARK                            x       y       z     vdW  Elec       q    Type
REMARK                         _______ _______ _______ _____ _____    ______ ____
ROOT
ATOM      4  C   UNL     1      -4.850   1.635  24.739  0.00  0.00    +0.006 C 
ATOM      5  C   UNL     1      -4.484   2.349  24.547  0.00  0.00    +0.005 C 
ATOM      6  C   UNL     1      -3.857   2.359  24.009  0.00  0.00    +0.027 C 
ATOM     20  C   UNL     1      -3.598   1.656  23.664  0.00  0.00    -0.048 C 
ATOM     21  C   UNL     1      -2.972   1.667  23.127  0.00  0.00    +0.026 C 
ATOM     22  C   UNL     1      -3.965   0.943  23.857  0.00  0.00    -0.034 C 
ATOM     23  C   UNL     1      -4.591   0.932  24.394  0.00  0.00    +0.037 C 
ENDROOT
BRANCH   4   2
ATOM      1  C   UNL     1      -6.254   1.611  25.002  0.00  0.00    +0.000 C 
ATOM      2  C   UNL     1      -5.476   1.626  25.276  0.00  0.00    +0.000 C 
ATOM      3  C   UNL     1      -5.324   1.630  26.086  0.00  0.00    +0.000 C 
ENDBRANCH   4   2
BRANCH   6   7
ATOM      7  C   UNL     1      -3.491   3.073  23.817  0.00  0.00    +0.091 C 
BRANCH   7   8
ATOM      8  C   UNL     1      -2.904   3.381  24.307  0.00  0.00    +0.227 A 
ATOM      9  N   UNL     1      -2.830   4.170  24.538  0.00  0.00    -0.111 NA
ATOM     10  N   UNL     1      -2.167   4.231  25.027  0.00  0.00    -0.107 NA
ATOM     11  C   UNL     1      -1.833   3.480  25.098  0.00  0.00    +0.250 A 
ATOM     12  O   UNL     1      -2.289   2.955  24.653  0.00  0.00    -0.420 OA
BRANCH  11  13
ATOM     13  C   UNL     1      -1.162   3.287  25.537  0.00  0.00    +0.055 A 
ATOM     14  C   UNL     1      -0.413   3.477  25.249  0.00  0.00    +0.004 A 
ATOM     15  C   UNL     1       0.260   3.285  25.687  0.00  0.00    -0.004 A 
ATOM     16  C   UNL     1       0.181   2.903  26.415  0.00  0.00    -0.022 A 
ATOM     17  C   UNL     1       0.854   2.710  26.853  0.00  0.00    +0.031 C 
ATOM     18  C   UNL     1      -0.567   2.712  26.703  0.00  0.00    -0.004 A 
ATOM     19  C   UNL     1      -1.240   2.905  26.264  0.00  0.00    +0.004 A 
ENDBRANCH  11  13
ENDBRANCH   7   8
ENDBRANCH   6   7
BRANCH  23  24
ATOM     24  C   UNL     1      -4.957   0.219  24.586  0.00  0.00    +0.076 C 
BRANCH  24  25
ATOM     25  N   UNL     1      -4.524  -0.484  24.577  0.00  0.00    -0.270 NA
ATOM     26  C   UNL     1      -4.583  -0.995  23.932  0.00  0.00    +0.090 C 
ATOM     27  C   UNL     1      -4.149  -1.697  23.922  0.00  0.00    +0.090 C 
ATOM     28  N   UNL     1      -3.657  -1.888  24.557  0.00  0.00    -0.268 NA
ATOM     32  C   UNL     1      -3.599  -1.376  25.201  0.00  0.00    +0.090 C 
ATOM     33  C   UNL     1      -4.032  -0.673  25.211  0.00  0.00    +0.090 C 
BRANCH  28  29
ATOM     29  C   UNL     1      -3.225  -2.589  24.548  0.00  0.00    +0.108 C 
BRANCH  29  30
ATOM     30  C   UNL     1      -2.403  -2.567  24.473  0.00  0.00    +0.199 C 
ATOM     31  O   UNL     1      -1.991  -3.242  24.240  0.00  0.00    -0.219 OA
ENDBRANCH  29  30
ENDBRANCH  28  29
ENDBRANCH  24  25
ENDBRANCH  23  24
TORSDOF 8
ENDMDL
MODEL 7
REMARK VINA RESULT:      -9.4      2.362      3.666
REMARK  Name = 
REMARK  8 active torsions:
REMARK  status: ('A' for Active; 'I' for Inactive)
REMARK    1  A    between atoms: C_2  and  C_4
REMARK    2  A    between atoms: C_6  and  C_7
REMARK    3  A    between atoms: C_7  and  C_8
REMARK    4  A    between atoms: C_11  and  C_13
REMARK    5  A    between atoms: C_23  and  C_24
REMARK    6  A    between atoms: C_24  and  N_25
REMARK    7  A    between atoms: N_28  and  C_29
REMARK    8  A    between atoms: C_29  and  C_30
REMARK                            x       y       z     vdW  Elec       q    Type
REMARK                         _______ _______ _______ _____ _____    ______ ____
ROOT
ATOM      4  C   UNL     1      -0.663   1.937  24.565  0.00  0.00    +0.006 C 
ATOM      5  C   UNL     1      -0.220   1.265  24.385  0.00  0.00    +0.005 C 
ATOM      6  C   UNL     1      -0.601   0.568  24.161  0.00  0.00    +0.027 C 
ATOM     20  C   UNL     1      -1.425   0.543  24.117  0.00  0.00    -0.048 C 
ATOM     21  C   UNL     1      -1.805  -0.153  23.894  0.00  0.00    +0.026 C 
ATOM     22  C   UNL     1      -1.867   1.216  24.298  0.00  0.00    -0.034 C 
ATOM     23  C   UNL     1      -1.486   1.913  24.521  0.00  0.00    +0.037 C 
ENDROOT
BRANCH   4   2
ATOM      1  C   UNL     1      -0.122   3.215  24.225  0.00  0.00    +0.000 C 
ATOM      2  C   UNL     1      -0.281   2.633  24.789  0.00  0.00    +0.000 C 
ATOM      3  C   UNL     1      -0.060   2.748  25.574  0.00  0.00    +0.000 C 
ENDBRANCH   4   2
BRANCH   6   7
ATOM      7  C   UNL     1      -0.158  -0.105  23.981  0.00  0.00    +0.091 C 
BRANCH   7   8
ATOM      8  C   UNL     1       0.493  -0.047  23.479  0.00  0.00    +0.227 A 
ATOM      9  N   UNL     1       0.472  -0.070  22.654  0.00  0.00    -0.111 NA
ATOM     10  N   UNL     1       1.246   0.006  22.378  0.00  0.00    -0.107 NA
ATOM     11  C   UNL     1       1.745   0.075  23.031  0.00  0.00    +0.250 A 
ATOM     12  O   UNL     1       1.279   0.043  23.712  0.00  0.00    -0.420 OA
BRANCH  11  13
ATOM     13  C   UNL     1       2.564   0.163  23.009  0.00  0.00    +0.055 A 
ATOM     14  C   UNL     1       2.897   0.892  22.813  0.00  0.00    +0.004 A 
ATOM     15  C   UNL     1       3.717   0.980  22.791  0.00  0.00    -0.004 A 
ATOM     16  C   UNL     1       4.205   0.338  22.965  0.00  0.00    -0.022 A 
ATOM     17  C   UNL     1       5.025   0.426  22.942  0.00  0.00    +0.031 C 
ATOM     18  C   UNL     1       3.874  -0.392  23.161  0.00  0.00    -0.004 A 
ATOM     19  C   UNL     1       3.052  -0.479  23.183  0.00  0.00    +0.004 A 
ENDBRANCH  11  13
ENDBRANCH   7   8
ENDBRANCH   6   7
BRANCH  23  24
ATOM     24  C   UNL     1      -1.928   2.585  24.701  0.00  0.00    +0.076 C 
BRANCH  24  25
ATOM     25  N   UNL     1      -2.753   2.555  24.678  0.00  0.00    -0.270 NA
ATOM     26  C   UNL     1      -3.178   2.347  25.354  0.00  0.00    +0.090 C 
ATOM     27  C   UNL     1      -4.002   2.317  25.330  0.00  0.00    +0.090 C 
ATOM     28  N   UNL     1      -4.402   2.495  24.630  0.00  0.00    -0.268 NA
ATOM     32  C   UNL     1      -3.976   2.702  23.955  0.00  0.00    +0.090 C 
ATOM     33  C   UNL     1      -3.152   2.732  23.978  0.00  0.00    +0.090 C 
BRANCH  28  29
ATOM     29  C   UNL     1      -5.225   2.465  24.606  0.00  0.00    +0.108 C 
BRANCH  29  30
ATOM     30  C   UNL     1      -5.627   1.849  24.980  0.00  0.00    +0.199 C 
ATOM     31  O   UNL     1      -6.447   1.793  24.917  0.00  0.00    -0.219 OA
ENDBRANCH  29  30
ENDBRANCH  28  29
ENDBRANCH  24  25
ENDBRANCH  23  24
TORSDOF 8
ENDMDL
MODEL 8
REMARK VINA RESULT:      -9.4      1.885      5.644
REMARK  Name = 
REMARK  8 active torsions:
REMARK  status: ('A' for Active; 'I' for Inactive)
REMARK    1  A    between atoms: C_2  and  C_4
REMARK    2  A    between atoms: C_6  and  C_7
REMARK    3  A    between atoms: C_7  and  C_8
REMARK    4  A    between atoms: C_11  and  C_13
REMARK    5  A    between atoms: C_23  and  C_24
REMARK    6  A    between atoms: C_24  and  N_25
REMARK    7  A    between atoms: N_28  and  C_29
REMARK    8  A    between atoms: C_29  and  C_30
REMARK                            x       y       z     vdW  Elec       q    Type
REMARK                         _______ _______ _______ _____ _____    ______ ____
ROOT
ATOM      4  C   UNL     1      -3.398  -0.837  25.262  0.00  0.00    +0.006 C 
ATOM      5  C   UNL     1      -4.020  -0.301  25.187  0.00  0.00    +0.005 C 
ATOM      6  C   UNL     1      -4.073   0.177  24.515  0.00  0.00    +0.027 C 
ATOM     20  C   UNL     1      -3.503   0.118  23.921  0.00  0.00    -0.048 C 
ATOM     21  C   UNL     1      -3.556   0.595  23.251  0.00  0.00    +0.026 C 
ATOM     22  C   UNL     1      -2.882  -0.419  23.998  0.00  0.00    -0.034 C 
ATOM     23  C   UNL     1      -2.829  -0.897  24.668  0.00  0.00    +0.037 C 
ENDROOT
BRANCH   4   2
ATOM      1  C   UNL     1      -3.536  -2.117  25.884  0.00  0.00    +0.000 C 
ATOM      2  C   UNL     1      -3.346  -1.315  25.933  0.00  0.00    +0.000 C 
ATOM      3  C   UNL     1      -3.106  -0.991  26.652  0.00  0.00    +0.000 C 
ENDBRANCH   4   2
BRANCH   6   7
ATOM      7  C   UNL     1      -4.694   0.714  24.440  0.00  0.00    +0.091 C 
BRANCH   7   8
ATOM      8  C   UNL     1      -4.644   1.456  24.794  0.00  0.00    +0.227 A 
ATOM      9  N   UNL     1      -5.232   1.819  25.246  0.00  0.00    -0.111 NA
ATOM     10  N   UNL     1      -4.948   2.554  25.490  0.00  0.00    -0.107 NA
ATOM     11  C   UNL     1      -4.186   2.647  25.189  0.00  0.00    +0.250 A 
ATOM     12  O   UNL     1      -3.998   1.968  24.758  0.00  0.00    -0.420 OA
BRANCH  11  13
ATOM     13  C   UNL     1      -3.697   3.302  25.298  0.00  0.00    +0.055 A 
ATOM     14  C   UNL     1      -3.520   3.795  24.661  0.00  0.00    +0.004 A 
ATOM     15  C   UNL     1      -3.031   4.451  24.769  0.00  0.00    -0.004 A 
ATOM     16  C   UNL     1      -2.719   4.613  25.516  0.00  0.00    -0.022 A 
ATOM     17  C   UNL     1      -2.229   5.269  25.625  0.00  0.00    +0.031 C 
ATOM     18  C   UNL     1      -2.895   4.120  26.153  0.00  0.00    -0.004 A 
ATOM     19  C   UNL     1      -3.385   3.464  26.044  0.00  0.00    +0.004 A 
ENDBRANCH  11  13
ENDBRANCH   7   8
ENDBRANCH   6   7
BRANCH  23  24
ATOM     24  C   UNL     1      -2.208  -1.433  24.745  0.00  0.00    +0.076 C 
BRANCH  24  25
ATOM     25  N   UNL     1      -1.456  -1.237  24.465  0.00  0.00    -0.270 NA
ATOM     26  C   UNL     1      -1.169  -1.585  23.774  0.00  0.00    +0.090 C 
ATOM     27  C   UNL     1      -0.418  -1.389  23.495  0.00  0.00    +0.090 C 
ATOM     28  N   UNL     1       0.046  -0.844  23.906  0.00  0.00    -0.268 NA
ATOM     32  C   UNL     1      -0.242  -0.497  24.597  0.00  0.00    +0.090 C 
ATOM     33  C   UNL     1      -0.993  -0.693  24.876  0.00  0.00    +0.090 C 
BRANCH  28  29
ATOM     29  C   UNL     1       0.796  -0.649  23.627  0.00  0.00    +0.108 C 
BRANCH  29  30
ATOM     30  C   UNL     1       0.881  -0.085  23.031  0.00  0.00    +0.199 C 
ATOM     31  O   UNL     1       1.626   0.072  22.714  0.00  0.00    -0.219 OA
ENDBRANCH  29  30
ENDBRANCH  28  29
ENDBRANCH  24  25
ENDBRANCH  23  24
TORSDOF 8
ENDMDL
MODEL 9
REMARK VINA RESULT:      -9.3      1.918      3.630
REMARK  Name = 
REMARK  8 active torsions:
REMARK  status: ('A' for Active; 'I' for Inactive)
REMARK    1  A    between atoms: C_2  and  C_4
REMARK    2  A    between atoms: C_6  and  C_7
REMARK    3  A    between atoms: C_7  and  C_8
REMARK    4  A    between atoms: C_11  and  C_13
REMARK    5  A    between atoms: C_23  and  C_24
REMARK    6  A    between atoms: C_24  and  N_25
REMARK    7  A    between atoms: N_28  and  C_29
REMARK    8  A    between atoms: C_29  and  C_30
REMARK                            x       y       z     vdW  Elec       q    Type
REMARK                         _______ _______ _______ _____ _____    ______ ____
ROOT
ATOM      4  C   UNL     1      -3.151  -0.339  24.685  0.00  0.00    +0.006 C 
ATOM      5  C   UNL     1      -2.364  -0.444  24.906  0.00  0.00    +0.005 C 
ATOM      6  C   UNL     1      -1.906   0.207  25.124  0.00  0.00    +0.027 C 
ATOM     20  C   UNL     1      -2.236   0.963  25.121  0.00  0.00    -0.048 C 
ATOM     21  C   UNL     1      -1.779   1.614  25.339  0.00  0.00    +0.026 C 
ATOM     22  C   UNL     1      -3.024   1.068  24.899  0.00  0.00    -0.034 C 
ATOM     23  C   UNL     1      -3.482   0.417  24.681  0.00  0.00    +0.037 C 
ENDROOT
BRANCH   4   2
ATOM      1  C   UNL     1      -3.766  -1.134  23.669  0.00  0.00    +0.000 C 
ATOM      2  C   UNL     1      -3.608  -0.990  24.467  0.00  0.00    +0.000 C 
ATOM      3  C   UNL     1      -3.906  -1.497  25.044  0.00  0.00    +0.000 C 
ENDBRANCH   4   2
BRANCH   6   7
ATOM      7  C   UNL     1      -1.119   0.102  25.346  0.00  0.00    +0.091 C 
BRANCH   7   8
ATOM      8  C   UNL     1      -0.590  -0.264  24.830  0.00  0.00    +0.227 A 
ATOM      9  N   UNL     1      -0.470  -1.077  24.753  0.00  0.00    -0.111 NA
ATOM     10  N   UNL     1       0.106  -1.196  24.175  0.00  0.00    -0.107 NA
ATOM     11  C   UNL     1       0.342  -0.457  23.894  0.00  0.00    +0.250 A 
ATOM     12  O   UNL     1      -0.088   0.119  24.298  0.00  0.00    -0.420 OA
BRANCH  11  13
ATOM     13  C   UNL     1       0.908  -0.319  23.310  0.00  0.00    +0.055 A 
ATOM     14  C   UNL     1       1.653  -0.029  23.518  0.00  0.00    +0.004 A 
ATOM     15  C   UNL     1       2.220   0.110  22.936  0.00  0.00    -0.004 A 
ATOM     16  C   UNL     1       2.042  -0.041  22.144  0.00  0.00    -0.022 A 
ATOM     17  C   UNL     1       2.609   0.098  21.561  0.00  0.00    +0.031 C 
ATOM     18  C   UNL     1       1.299  -0.330  21.935  0.00  0.00    -0.004 A 
ATOM     19  C   UNL     1       0.731  -0.469  22.519  0.00  0.00    +0.004 A 
ENDBRANCH  11  13
ENDBRANCH   7   8
ENDBRANCH   6   7
BRANCH  23  24
ATOM     24  C   UNL     1      -4.269   0.522  24.460  0.00  0.00    +0.076 C 
BRANCH  24  25
ATOM     25  N   UNL     1      -4.678   1.199  24.697  0.00  0.00    -0.270 NA
ATOM     26  C   UNL     1      -4.645   1.883  24.235  0.00  0.00    +0.090 C 
ATOM     27  C   UNL     1      -5.053   2.559  24.472  0.00  0.00    +0.090 C 
ATOM     28  N   UNL     1      -5.494   2.553  25.170  0.00  0.00    -0.268 NA
ATOM     32  C   UNL     1      -5.526   1.869  25.630  0.00  0.00    +0.090 C 
ATOM     33  C   UNL     1      -5.118   1.192  25.394  0.00  0.00    +0.090 C 
BRANCH  28  29
ATOM     29  C   UNL     1      -5.902   3.228  25.406  0.00  0.00    +0.108 C 
BRANCH  29  30
ATOM     30  C   UNL     1      -5.486   3.904  25.632  0.00  0.00    +0.199 C 
ATOM     31  O   UNL     1      -5.891   4.608  25.781  0.00  0.00    -0.219 OA
ENDBRANCH  29  30
ENDBRANCH  28  29
ENDBRANCH  24  25
ENDBRANCH  23  24
TORSDOF 8
ENDMDL
MODEL 10
REMARK VINA RESULT:      -9.2      1.951      4.155
REMARK  Name = 
REMARK  8 active torsions:
REMARK  status: ('A' for Active; 'I' for Inactive)
REMARK    1  A    between atoms: C_2  and  C_4
REMARK    2  A    between atoms: C_6  and  C_7
REMARK    3  A    between atoms: C_7  and  C_8
REMARK    4  A    between atoms: C_11  and  C_13
REMARK    5  A    between atoms: C_23  and  C_24
REMARK    6  A    between atoms: C_24  and  N_25
REMARK    7  A    between atoms: N_28  and  C_29
REMARK    8  A    between atoms: C_29  and  C_30
REMARK                            x       y       z     vdW  Elec       q    Type
REMARK                         _______ _______ _______ _____ _____    ______ ____
ROOT
ATOM      4  C   UNL     1      -1.279   2.001  25.052  0.00  0.00    +0.006 C 
ATOM      5  C   UNL     1      -2.095   1.959  24.937  0.00  0.00    +0.005 C 
ATOM      6  C   UNL     1      -2.401   1.901  24.173  0.00  0.00    +0.027 C 
ATOM     20  C   UNL     1      -1.892   1.884  23.524  0.00  0.00    -0.048 C 
ATOM     21  C   UNL     1      -2.198   1.825  22.761  0.00  0.00    +0.026 C 
ATOM     22  C   UNL     1      -1.076   1.925  23.640  0.00  0.00    -0.034 C 
ATOM     23  C   UNL     1      -0.770   1.984  24.403  0.00  0.00    +0.037 C 
ENDROOT
BRANCH   4   2
ATOM      1  C   UNL     1      -0.795   2.801  26.133  0.00  0.00    +0.000 C 
ATOM      2  C   UNL     1      -0.974   2.060  25.816  0.00  0.00    +0.000 C 
ATOM      3  C   UNL     1      -0.847   1.379  26.263  0.00  0.00    +0.000 C 
ENDBRANCH   4   2
BRANCH   6   7
ATOM      7  C   UNL     1      -3.217   1.859  24.058  0.00  0.00    +0.091 C 
BRANCH   7   8
ATOM      8  C   UNL     1      -3.630   1.179  24.274  0.00  0.00    +0.227 A 
ATOM      9  N   UNL     1      -4.372   1.156  24.635  0.00  0.00    -0.111 NA
ATOM     10  N   UNL     1      -4.574   0.364  24.750  0.00  0.00    -0.107 NA
ATOM     11  C   UNL     1      -3.958  -0.102  24.461  0.00  0.00    +0.250 A 
ATOM     12  O   UNL     1      -3.374   0.402  24.166  0.00  0.00    -0.420 OA
BRANCH  11  13
ATOM     13  C   UNL     1      -3.930  -0.926  24.465  0.00  0.00    +0.055 A 
ATOM     14  C   UNL     1      -3.566  -1.323  25.090  0.00  0.00    +0.004 A 
ATOM     15  C   UNL     1      -3.537  -2.148  25.095  0.00  0.00    -0.004 A 
ATOM     16  C   UNL     1      -3.873  -2.575  24.473  0.00  0.00    -0.022 A 
ATOM     17  C   UNL     1      -3.844  -3.400  24.478  0.00  0.00    +0.031 C 
ATOM     18  C   UNL     1      -4.236  -2.179  23.848  0.00  0.00    -0.004 A 
ATOM     19  C   UNL     1      -4.265  -1.353  23.845  0.00  0.00    +0.004 A 
ENDBRANCH  11  13
ENDBRANCH   7   8
ENDBRANCH   6   7
BRANCH  23  24
ATOM     24  C   UNL     1       0.045   2.026  24.519  0.00  0.00    +0.076 C 
BRANCH  24  25
ATOM     25  N   UNL     1       0.552   1.569  24.053  0.00  0.00    -0.270 NA
ATOM     26  C   UNL     1       1.167   1.930  23.637  0.00  0.00    +0.090 C 
ATOM     27  C   UNL     1       1.673   1.473  23.172  0.00  0.00    +0.090 C 
ATOM     28  N   UNL     1       1.564   0.656  23.123  0.00  0.00    -0.268 NA
ATOM     32  C   UNL     1       0.950   0.297  23.540  0.00  0.00    +0.090 C 
ATOM     33  C   UNL     1       0.444   0.753  24.005  0.00  0.00    +0.090 C 
BRANCH  28  29
ATOM     29  C   UNL     1       2.070   0.200  22.659  0.00  0.00    +0.108 C 
BRANCH  29  30
ATOM     30  C   UNL     1       2.887   0.296  22.722  0.00  0.00    +0.199 C 
ATOM     31  O   UNL     1       3.393  -0.150  22.246  0.00  0.00    -0.219 OA
ENDBRANCH  29  30
ENDBRANCH  28  29
ENDBRANCH  24  25
ENDBRANCH  23  24
TORSDOF 8
ENDMDL
