REMARK  Name = 
REMARK  5 active torsions:
REMARK  status: ('A' for Active; 'I' for Inactive)
REMARK    1  A    between atoms: O_2  and  C_3
REMARK    2  A    between atoms: C_6  and  C_7
REMARK    3  A    between atoms: C_7  and  N_8
REMARK    4  A    between atoms: N_12  and  C_13
REMARK    5  A    between atoms: C_13  and  C_14
REMARK                            x       y       z     vdW  Elec       q    Type
REMARK                         _______ _______ _______ _____ _____    ______ ____
ROOT
ATOM      8  N   UNL     1       0.654  -0.698   0.000  0.00  0.00    -0.258 N 
ATOM      9  C   UNL     1       1.139  -0.030   0.000  0.00  0.00    +0.116 C 
ATOM     10  C   UNL     1       1.923  -0.285   0.000  0.00  0.00    +0.113 C 
ATOM     11  C   UNL     1       2.638   0.127   0.000  0.00  0.00    +0.094 C 
ATOM     12  N   UNL     1       3.352  -0.285   0.000  0.00  0.00    -0.266 NA
ATOM     21  C   UNL     1       3.352  -1.110   0.000  0.00  0.00    +0.094 C 
ATOM     22  C   UNL     1       2.638  -1.523   0.000  0.00  0.00    +0.112 C 
ATOM     23  N   UNL     1       1.923  -1.110   0.000  0.00  0.00    -0.261 N 
ATOM     24  C   UNL     1       1.139  -1.365   0.000  0.00  0.00    +0.308 C 
ATOM     25  O   UNL     1       0.884  -2.150   0.000  0.00  0.00    -0.252 OA
ENDROOT
BRANCH   8   7
ATOM      7  C   UNL     1      -0.171  -0.698   0.000  0.00  0.00    +0.122 C 
BRANCH   7   6
ATOM      3  C   UNL     1      -1.409  -2.841   0.000  0.00  0.00    +0.139 A 
ATOM      4  C   UNL     1      -1.821  -2.127   0.000  0.00  0.00    +0.037 A 
ATOM      5  C   UNL     1      -1.409  -1.412   0.000  0.00  0.00    +0.001 A 
ATOM      6  C   UNL     1      -0.584  -1.412   0.000  0.00  0.00    -0.002 A 
ATOM     26  C   UNL     1      -0.171  -2.127   0.000  0.00  0.00    +0.001 A 
ATOM     27  C   UNL     1      -0.584  -2.841   0.000  0.00  0.00    +0.037 A 
BRANCH   3   2
ATOM      1  C   UNL     1      -1.409  -4.270   0.000  0.00  0.00    +0.252 C 
ATOM      2  O   UNL     1      -1.821  -3.556   0.000  0.00  0.00    -0.471 OA
ENDBRANCH   3   2
ENDBRANCH   7   6
ENDBRANCH   8   7
BRANCH  12  13
ATOM     13  C   UNL     1       4.067   0.127   0.000  0.00  0.00    +0.102 C 
BRANCH  13  14
ATOM     14  C   UNL     1       4.781  -0.285   0.000  0.00  0.00    +0.024 A 
ATOM     15  C   UNL     1       5.496   0.127   0.000  0.00  0.00    +0.020 A 
ATOM     16  C   UNL     1       6.210  -0.285   0.000  0.00  0.00    +0.099 A 
ATOM     17  N   UNL     1       6.210  -1.110   0.000  0.00  0.00    -0.240 NA
ATOM     18  C   UNL     1       5.496  -1.523   0.000  0.00  0.00    +0.128 A 
ATOM     19  C   UNL     1       4.781  -1.110   0.000  0.00  0.00    +0.157 A 
ATOM     20  F   UNL     1       4.067  -1.523   0.000  0.00  0.00    -0.203 F 
ENDBRANCH  13  14
ENDBRANCH  12  13
TORSDOF 5
