MODEL 1
REMARK VINA RESULT:     -13.4      0.000      0.000
REMARK  Name = 
REMARK  5 active torsions:
REMARK  status: ('A' for Active; 'I' for Inactive)
REMARK    1  A    between atoms: C_4  and  C_14
REMARK    2  A    between atoms: N_5  and  C_6
REMARK    3  A    between atoms: C_6  and  C_7
REMARK    4  A    between atoms: C_16  and  C_19
REMARK    5  A    between atoms: C_22  and  C_25
REMARK                            x       y       z     vdW  Elec       q    Type
REMARK                         _______ _______ _______ _____ _____    ______ ____
ROOT
ATOM     14  C   UNL     1      -3.962   1.639  24.400  0.00  0.00    +0.251 A 
ATOM     15  N   UNL     1      -3.995   0.906  24.779  0.00  0.00    -0.190 NA
ATOM     16  C   UNL     1      -3.767   0.328  24.235  0.00  0.00    +0.203 A 
ATOM     17  N   UNL     1      -3.593   0.703  23.522  0.00  0.00    -0.056 NA
ATOM     18  O   UNL     1      -3.714   1.513  23.623  0.00  0.00    -0.336 OA
ENDROOT
BRANCH  14   4
ATOM      1  O   UNL     1      -5.432   3.831  25.609  0.00  0.00    -0.222 OA
ATOM      2  C   UNL     1      -4.820   3.376  25.294  0.00  0.00    +0.170 C 
ATOM      3  C   UNL     1      -4.891   2.611  24.994  0.00  0.00    +0.060 C 
ATOM      4  C   UNL     1      -4.145   2.368  24.738  0.00  0.00    +0.140 C 
ATOM      5  N   UNL     1      -3.614   2.983  24.881  0.00  0.00    -0.260 NA
ATOM     13  C   UNL     1      -4.032   3.606  25.225  0.00  0.00    +0.106 C 
BRANCH   5   6
ATOM      6  C   UNL     1      -2.807   2.977  24.710  0.00  0.00    +0.100 C 
BRANCH   6   7
ATOM      7  C   UNL     1      -2.330   3.607  24.946  0.00  0.00    -0.006 A 
ATOM      8  C   UNL     1      -2.290   4.290  24.483  0.00  0.00    -0.003 A 
ATOM      9  C   UNL     1      -1.813   4.921  24.720  0.00  0.00    -0.000 A 
ATOM     10  C   UNL     1      -1.377   4.869  25.417  0.00  0.00    -0.000 A 
ATOM     11  C   UNL     1      -1.417   4.186  25.880  0.00  0.00    -0.000 A 
ATOM     12  C   UNL     1      -1.894   3.557  25.643  0.00  0.00    -0.003 A 
ENDBRANCH   6   7
ENDBRANCH   5   6
ENDBRANCH  14   4
BRANCH  16  19
ATOM     19  C   UNL     1      -3.721  -0.483  24.381  0.00  0.00    +0.039 A 
ATOM     20  C   UNL     1      -3.185  -0.773  24.937  0.00  0.00    +0.003 A 
ATOM     21  C   UNL     1      -3.140  -1.583  25.083  0.00  0.00    +0.004 A 
ATOM     22  C   UNL     1      -3.630  -2.104  24.672  0.00  0.00    +0.071 A 
ATOM     23  C   UNL     1      -4.166  -1.815  24.116  0.00  0.00    +0.004 A 
ATOM     24  C   UNL     1      -4.212  -1.004  23.970  0.00  0.00    +0.003 A 
BRANCH  22  25
ATOM     25  C   UNL     1      -3.584  -2.915  24.818  0.00  0.00    +0.419 C 
ATOM     26  F   UNL     1      -3.539  -3.726  24.963  0.00  0.00    -0.166 F 
ATOM     27  F   UNL     1      -3.614  -2.772  25.629  0.00  0.00    -0.166 F 
ATOM     28  F   UNL     1      -3.554  -3.058  24.005  0.00  0.00    -0.166 F 
ENDBRANCH  22  25
ENDBRANCH  16  19
TORSDOF 5
ENDMDL
MODEL 2
REMARK VINA RESULT:     -12.8      3.507      6.011
REMARK  Name = 
REMARK  5 active torsions:
REMARK  status: ('A' for Active; 'I' for Inactive)
REMARK    1  A    between atoms: C_4  and  C_14
REMARK    2  A    between atoms: N_5  and  C_6
REMARK    3  A    between atoms: C_6  and  C_7
REMARK    4  A    between atoms: C_16  and  C_19
REMARK    5  A    between atoms: C_22  and  C_25
REMARK                            x       y       z     vdW  Elec       q    Type
REMARK                         _______ _______ _______ _____ _____    ______ ____
ROOT
ATOM     14  C   UNL     1      -0.894   0.871  25.277  0.00  0.00    +0.251 A 
ATOM     15  N   UNL     1      -1.038   1.605  24.929  0.00  0.00    -0.190 NA
ATOM     16  C   UNL     1      -1.000   2.179  25.521  0.00  0.00    +0.203 A 
ATOM     17  N   UNL     1      -0.832   1.800  26.234  0.00  0.00    -0.056 NA
ATOM     18  O   UNL     1      -0.766   0.991  26.083  0.00  0.00    -0.336 OA
ENDROOT
BRANCH  14   4
ATOM      1  O   UNL     1       0.009  -1.418  23.736  0.00  0.00    -0.222 OA
ATOM      2  C   UNL     1      -0.464  -0.908  24.179  0.00  0.00    +0.170 C 
ATOM      3  C   UNL     1      -0.235  -0.176  24.482  0.00  0.00    +0.060 C 
ATOM      4  C   UNL     1      -0.879   0.144  24.887  0.00  0.00    +0.140 C 
ATOM      5  N   UNL     1      -1.505  -0.390  24.833  0.00  0.00    -0.260 NA
ATOM     13  C   UNL     1      -1.248  -1.041  24.395  0.00  0.00    +0.106 C 
BRANCH   5   6
ATOM      6  C   UNL     1      -2.256  -0.292  25.160  0.00  0.00    +0.100 C 
BRANCH   6   7
ATOM      7  C   UNL     1      -2.880  -0.771  24.912  0.00  0.00    -0.006 A 
ATOM      8  C   UNL     1      -3.383  -0.514  24.309  0.00  0.00    -0.003 A 
ATOM      9  C   UNL     1      -4.007  -0.994  24.062  0.00  0.00    -0.000 A 
ATOM     10  C   UNL     1      -4.128  -1.729  24.415  0.00  0.00    -0.000 A 
ATOM     11  C   UNL     1      -3.625  -1.985  25.018  0.00  0.00    -0.000 A 
ATOM     12  C   UNL     1      -3.002  -1.506  25.265  0.00  0.00    -0.003 A 
ENDBRANCH   6   7
ENDBRANCH   5   6
ENDBRANCH  14   4
BRANCH  16  19
ATOM     19  C   UNL     1      -1.111   2.990  25.418  0.00  0.00    +0.039 A 
ATOM     20  C   UNL     1      -1.805   3.349  25.682  0.00  0.00    +0.003 A 
ATOM     21  C   UNL     1      -1.915   4.160  25.579  0.00  0.00    +0.004 A 
ATOM     22  C   UNL     1      -1.332   4.612  25.211  0.00  0.00    +0.071 A 
ATOM     23  C   UNL     1      -0.637   4.253  24.946  0.00  0.00    +0.004 A 
ATOM     24  C   UNL     1      -0.527   3.442  25.049  0.00  0.00    +0.003 A 
BRANCH  22  25
ATOM     25  C   UNL     1      -1.442   5.423  25.107  0.00  0.00    +0.419 C 
ATOM     26  F   UNL     1      -1.552   6.234  25.004  0.00  0.00    -0.166 F 
ATOM     27  F   UNL     1      -0.791   5.448  24.602  0.00  0.00    -0.166 F 
ATOM     28  F   UNL     1      -2.093   5.398  25.613  0.00  0.00    -0.166 F 
ENDBRANCH  22  25
ENDBRANCH  16  19
TORSDOF 5
ENDMDL
MODEL 3
REMARK VINA RESULT:     -12.7      1.927      2.606
REMARK  Name = 
REMARK  5 active torsions:
REMARK  status: ('A' for Active; 'I' for Inactive)
REMARK    1  A    between atoms: C_4  and  C_14
REMARK    2  A    between atoms: N_5  and  C_6
REMARK    3  A    between atoms: C_6  and  C_7
REMARK    4  A    between atoms: C_16  and  C_19
REMARK    5  A    between atoms: C_22  and  C_25
REMARK                            x       y       z     vdW  Elec       q    Type
REMARK                         _______ _______ _______ _____ _____    ______ ____
ROOT
ATOM     14  C   UNL     1      -0.953   1.134  25.025  0.00  0.00    +0.251 A 
ATOM     15  N   UNL     1      -1.461   0.534  25.275  0.00  0.00    -0.190 NA
ATOM     16  C   UNL     1      -1.649   0.070  24.619  0.00  0.00    +0.203 A 
ATOM     17  N   UNL     1      -1.258   0.383  23.964  0.00  0.00    -0.056 NA
ATOM     18  O   UNL     1      -0.827   1.041  24.215  0.00  0.00    -0.336 OA
ENDROOT
BRANCH  14   4
ATOM      1  O   UNL     1       0.687   2.506  26.990  0.00  0.00    -0.222 OA
ATOM      2  C   UNL     1       0.125   2.355  26.404  0.00  0.00    +0.170 C 
ATOM      3  C   UNL     1      -0.027   1.622  26.057  0.00  0.00    +0.060 C 
ATOM      4  C   UNL     1      -0.628   1.724  25.501  0.00  0.00    +0.140 C 
ATOM      5  N   UNL     1      -0.847   2.520  25.506  0.00  0.00    -0.260 NA
ATOM     13  C   UNL     1      -0.381   2.909  26.064  0.00  0.00    +0.106 C 
BRANCH   5   6
ATOM      6  C   UNL     1      -1.429   2.865  25.035  0.00  0.00    +0.100 C 
BRANCH   6   7
ATOM      7  C   UNL     1      -1.639   3.654  25.150  0.00  0.00    -0.006 A 
ATOM      8  C   UNL     1      -2.313   3.842  25.588  0.00  0.00    -0.003 A 
ATOM      9  C   UNL     1      -2.522   4.633  25.703  0.00  0.00    -0.000 A 
ATOM     10  C   UNL     1      -2.059   5.233  25.381  0.00  0.00    -0.000 A 
ATOM     11  C   UNL     1      -1.385   5.045  24.943  0.00  0.00    -0.000 A 
ATOM     12  C   UNL     1      -1.176   4.255  24.828  0.00  0.00    -0.003 A 
ENDBRANCH   6   7
ENDBRANCH   5   6
ENDBRANCH  14   4
BRANCH  16  19
ATOM     19  C   UNL     1      -2.143  -0.592  24.619  0.00  0.00    +0.039 A 
ATOM     20  C   UNL     1      -2.962  -0.495  24.605  0.00  0.00    +0.003 A 
ATOM     21  C   UNL     1      -3.455  -1.156  24.605  0.00  0.00    +0.004 A 
ATOM     22  C   UNL     1      -3.129  -1.914  24.618  0.00  0.00    +0.071 A 
ATOM     23  C   UNL     1      -2.310  -2.011  24.632  0.00  0.00    +0.004 A 
ATOM     24  C   UNL     1      -1.817  -1.349  24.632  0.00  0.00    +0.003 A 
BRANCH  22  25
ATOM     25  C   UNL     1      -3.622  -2.575  24.618  0.00  0.00    +0.419 C 
ATOM     26  F   UNL     1      -4.115  -3.237  24.617  0.00  0.00    -0.166 F 
ATOM     27  F   UNL     1      -3.412  -2.733  25.399  0.00  0.00    -0.166 F 
ATOM     28  F   UNL     1      -3.832  -2.417  23.835  0.00  0.00    -0.166 F 
ENDBRANCH  22  25
ENDBRANCH  16  19
TORSDOF 5
ENDMDL
MODEL 4
REMARK VINA RESULT:     -12.0      2.762      5.449
REMARK  Name = 
REMARK  5 active torsions:
REMARK  status: ('A' for Active; 'I' for Inactive)
REMARK    1  A    between atoms: C_4  and  C_14
REMARK    2  A    between atoms: N_5  and  C_6
REMARK    3  A    between atoms: C_6  and  C_7
REMARK    4  A    between atoms: C_16  and  C_19
REMARK    5  A    between atoms: C_22  and  C_25
REMARK                            x       y       z     vdW  Elec       q    Type
REMARK                         _______ _______ _______ _____ _____    ______ ____
ROOT
ATOM     14  C   UNL     1      -2.314   0.861  24.316  0.00  0.00    +0.251 A 
ATOM     15  N   UNL     1      -2.883   1.218  24.795  0.00  0.00    -0.190 NA
ATOM     16  C   UNL     1      -3.162   1.889  24.403  0.00  0.00    +0.203 A 
ATOM     17  N   UNL     1      -2.765   1.946  23.682  0.00  0.00    -0.056 NA
ATOM     18  O   UNL     1      -2.241   1.311  23.628  0.00  0.00    -0.336 OA
ENDROOT
BRANCH  14   4
ATOM      1  O   UNL     1      -0.131  -0.999  24.769  0.00  0.00    -0.222 OA
ATOM      2  C   UNL     1      -0.889  -0.681  24.701  0.00  0.00    +0.170 C 
ATOM      3  C   UNL     1      -1.071   0.097  24.493  0.00  0.00    +0.060 C 
ATOM      4  C   UNL     1      -1.892   0.174  24.493  0.00  0.00    +0.140 C 
ATOM      5  N   UNL     1      -2.217  -0.554  24.702  0.00  0.00    -0.260 NA
ATOM     13  C   UNL     1      -1.597  -1.083  24.831  0.00  0.00    +0.106 C 
BRANCH   5   6
ATOM      6  C   UNL     1      -3.021  -0.725  24.770  0.00  0.00    +0.100 C 
BRANCH   6   7
ATOM      7  C   UNL     1      -3.292  -1.494  24.643  0.00  0.00    -0.006 A 
ATOM      8  C   UNL     1      -3.190  -2.069  25.226  0.00  0.00    -0.003 A 
ATOM      9  C   UNL     1      -3.462  -2.838  25.098  0.00  0.00    -0.000 A 
ATOM     10  C   UNL     1      -3.834  -3.031  24.388  0.00  0.00    -0.000 A 
ATOM     11  C   UNL     1      -3.936  -2.456  23.805  0.00  0.00    -0.000 A 
ATOM     12  C   UNL     1      -3.665  -1.687  23.934  0.00  0.00    -0.003 A 
ENDBRANCH   6   7
ENDBRANCH   5   6
ENDBRANCH  14   4
BRANCH  16  19
ATOM     19  C   UNL     1      -3.737   2.410  24.683  0.00  0.00    +0.039 A 
ATOM     20  C   UNL     1      -4.534   2.267  24.529  0.00  0.00    +0.003 A 
ATOM     21  C   UNL     1      -5.108   2.788  24.809  0.00  0.00    +0.004 A 
ATOM     22  C   UNL     1      -4.885   3.454  25.243  0.00  0.00    +0.071 A 
ATOM     23  C   UNL     1      -4.088   3.597  25.397  0.00  0.00    +0.004 A 
ATOM     24  C   UNL     1      -3.513   3.075  25.117  0.00  0.00    +0.003 A 
BRANCH  22  25
ATOM     25  C   UNL     1      -5.459   3.975  25.523  0.00  0.00    +0.419 C 
ATOM     26  F   UNL     1      -6.034   4.497  25.804  0.00  0.00    -0.166 F 
ATOM     27  F   UNL     1      -5.129   4.581  25.073  0.00  0.00    -0.166 F 
ATOM     28  F   UNL     1      -5.790   3.368  25.974  0.00  0.00    -0.166 F 
ENDBRANCH  22  25
ENDBRANCH  16  19
TORSDOF 5
ENDMDL
