MODEL 1
REMARK VINA RESULT:     -12.3      0.000      0.000
REMARK  Name = 
REMARK  6 active torsions:
REMARK  status: ('A' for Active; 'I' for Inactive)
REMARK    1  A    between atoms: C_10  and  C_12
REMARK    2  A    between atoms: C_12  and  C_13
REMARK    3  A    between atoms: C_18  and  C_19
REMARK    4  A    between atoms: C_19  and  C_20
REMARK    5  A    between atoms: C_23  and  C_24
REMARK    6  A    between atoms: C_24  and  C_25
REMARK                            x       y       z     vdW  Elec       q    Type
REMARK                         _______ _______ _______ _____ _____    ______ ____
ROOT
ATOM     13  C   UNL     1      -4.808   1.148  24.926  0.00  0.00    +0.012 C 
ATOM     14  C   UNL     1      -5.433   0.813  25.346  0.00  0.00    +0.019 C 
ATOM     15  C   UNL     1      -6.064   1.285  25.592  0.00  0.00    +0.089 C 
ATOM     16  N   UNL     1      -6.069   2.092  25.418  0.00  0.00    -0.218 NA
ATOM     17  C   UNL     1      -5.442   2.426  24.998  0.00  0.00    +0.089 C 
ATOM     18  C   UNL     1      -4.812   1.954  24.752  0.00  0.00    +0.024 C 
ENDROOT
BRANCH  13  12
ATOM     12  C   UNL     1      -4.177   0.676  24.679  0.00  0.00    +0.085 C 
BRANCH  12  10
ATOM      1  C   UNL     1      -1.039  -1.998  24.791  0.00  0.00    +0.095 C 
ATOM      2  C   UNL     1      -1.793  -2.257  24.581  0.00  0.00    +0.226 C 
ATOM      3  O   UNL     1      -1.920  -3.051  24.393  0.00  0.00    -0.275 OA
ATOM      4  N   UNL     1      -2.421  -1.722  24.559  0.00  0.00    -0.276 N 
ATOM      5  C   UNL     1      -3.176  -1.981  24.349  0.00  0.00    +0.115 C 
ATOM      6  C   UNL     1      -3.804  -1.445  24.326  0.00  0.00    +0.115 C 
ATOM      7  N   UNL     1      -3.677  -0.652  24.514  0.00  0.00    -0.276 N 
ATOM      8  C   UNL     1      -2.921  -0.394  24.724  0.00  0.00    +0.115 C 
ATOM      9  C   UNL     1      -2.294  -0.929  24.746  0.00  0.00    +0.115 C 
ATOM     10  C   UNL     1      -4.304  -0.118  24.492  0.00  0.00    +0.226 C 
ATOM     11  O   UNL     1      -5.059  -0.376  24.282  0.00  0.00    -0.275 OA
ENDBRANCH  12  10
ENDBRANCH  13  12
BRANCH  18  19
ATOM     19  C   UNL     1      -4.185   2.288  24.331  0.00  0.00    +0.051 C 
BRANCH  19  20
ATOM     20  C   UNL     1      -3.863   3.008  24.575  0.00  0.00    +0.100 A 
ATOM     21  N   UNL     1      -4.099   3.756  24.320  0.00  0.00    -0.082 NA
ATOM     22  O   UNL     1      -3.630   4.316  24.704  0.00  0.00    -0.358 OA
ATOM     23  C   UNL     1      -3.104   3.914  25.196  0.00  0.00    +0.154 A 
ATOM     31  C   UNL     1      -3.248   3.105  25.116  0.00  0.00    +0.054 A 
BRANCH  23  24
ATOM     24  C   UNL     1      -2.534   4.259  25.682  0.00  0.00    +0.067 C 
BRANCH  24  25
ATOM     25  C   UNL     1      -1.793   4.455  25.375  0.00  0.00    +0.008 C 
ATOM     26  C   UNL     1      -1.644   5.226  25.120  0.00  0.00    +0.000 C 
ATOM     27  C   UNL     1      -0.904   5.422  24.813  0.00  0.00    +0.000 C 
ATOM     28  C   UNL     1      -0.314   4.849  24.760  0.00  0.00    +0.000 C 
ATOM     29  C   UNL     1      -0.463   4.078  25.014  0.00  0.00    +0.000 C 
ATOM     30  C   UNL     1      -1.203   3.881  25.322  0.00  0.00    +0.000 C 
ENDBRANCH  24  25
ENDBRANCH  23  24
ENDBRANCH  19  20
ENDBRANCH  18  19
TORSDOF 6
ENDMDL
MODEL 2
REMARK VINA RESULT:     -12.1      2.235      6.209
REMARK  Name = 
REMARK  6 active torsions:
REMARK  status: ('A' for Active; 'I' for Inactive)
REMARK    1  A    between atoms: C_10  and  C_12
REMARK    2  A    between atoms: C_12  and  C_13
REMARK    3  A    between atoms: C_18  and  C_19
REMARK    4  A    between atoms: C_19  and  C_20
REMARK    5  A    between atoms: C_23  and  C_24
REMARK    6  A    between atoms: C_24  and  C_25
REMARK                            x       y       z     vdW  Elec       q    Type
REMARK                         _______ _______ _______ _____ _____    ______ ____
ROOT
ATOM     13  C   UNL     1      -0.195   0.760  24.272  0.00  0.00    +0.012 C 
ATOM     14  C   UNL     1       0.185   0.868  23.548  0.00  0.00    +0.019 C 
ATOM     15  C   UNL     1       0.468   0.214  23.129  0.00  0.00    +0.089 C 
ATOM     16  N   UNL     1       0.371  -0.546  23.435  0.00  0.00    -0.218 NA
ATOM     17  C   UNL     1      -0.009  -0.652  24.160  0.00  0.00    +0.089 C 
ATOM     18  C   UNL     1      -0.292  -0.000  24.578  0.00  0.00    +0.024 C 
ENDROOT
BRANCH  13  12
ATOM     12  C   UNL     1      -0.478   1.413  24.690  0.00  0.00    +0.085 C 
BRANCH  12  10
ATOM      1  C   UNL     1      -2.598   4.816  25.659  0.00  0.00    +0.095 C 
ATOM      2  C   UNL     1      -1.837   4.879  25.347  0.00  0.00    +0.226 C 
ATOM      3  O   UNL     1      -1.500   5.623  25.228  0.00  0.00    -0.275 OA
ATOM      4  N   UNL     1      -1.413   4.198  25.153  0.00  0.00    -0.276 N 
ATOM      5  C   UNL     1      -0.652   4.261  24.841  0.00  0.00    +0.115 C 
ATOM      6  C   UNL     1      -0.228   3.580  24.647  0.00  0.00    +0.115 C 
ATOM      7  N   UNL     1      -0.565   2.836  24.765  0.00  0.00    -0.276 N 
ATOM      8  C   UNL     1      -1.326   2.774  25.078  0.00  0.00    +0.115 C 
ATOM      9  C   UNL     1      -1.750   3.454  25.271  0.00  0.00    +0.115 C 
ATOM     10  C   UNL     1      -0.141   2.156  24.572  0.00  0.00    +0.226 C 
ATOM     11  O   UNL     1       0.620   2.219  24.259  0.00  0.00    -0.275 OA
ENDBRANCH  12  10
ENDBRANCH  13  12
BRANCH  18  19
ATOM     19  C   UNL     1      -0.672  -0.107  25.303  0.00  0.00    +0.051 C 
BRANCH  19  20
ATOM     20  C   UNL     1      -1.197  -0.735  25.404  0.00  0.00    +0.100 A 
ATOM     21  N   UNL     1      -0.992  -1.532  25.477  0.00  0.00    -0.082 NA
ATOM     22  O   UNL     1      -1.688  -1.966  25.568  0.00  0.00    -0.358 OA
ATOM     23  C   UNL     1      -2.322  -1.439  25.550  0.00  0.00    +0.154 A 
ATOM     31  C   UNL     1      -2.019  -0.678  25.449  0.00  0.00    +0.054 A 
BRANCH  23  24
ATOM     24  C   UNL     1      -3.120  -1.637  25.622  0.00  0.00    +0.067 C 
BRANCH  24  25
ATOM     25  C   UNL     1      -3.551  -1.861  24.955  0.00  0.00    +0.008 C 
ATOM     26  C   UNL     1      -3.563  -2.651  24.718  0.00  0.00    +0.000 C 
ATOM     27  C   UNL     1      -3.994  -2.875  24.050  0.00  0.00    +0.000 C 
ATOM     28  C   UNL     1      -4.412  -2.309  23.621  0.00  0.00    +0.000 C 
ATOM     29  C   UNL     1      -4.400  -1.519  23.858  0.00  0.00    +0.000 C 
ATOM     30  C   UNL     1      -3.969  -1.294  24.525  0.00  0.00    +0.000 C 
ENDBRANCH  24  25
ENDBRANCH  23  24
ENDBRANCH  19  20
ENDBRANCH  18  19
TORSDOF 6
ENDMDL
MODEL 3
REMARK VINA RESULT:     -12.0      1.095      5.111
REMARK  Name = 
REMARK  6 active torsions:
REMARK  status: ('A' for Active; 'I' for Inactive)
REMARK    1  A    between atoms: C_10  and  C_12
REMARK    2  A    between atoms: C_12  and  C_13
REMARK    3  A    between atoms: C_18  and  C_19
REMARK    4  A    between atoms: C_19  and  C_20
REMARK    5  A    between atoms: C_23  and  C_24
REMARK    6  A    between atoms: C_24  and  C_25
REMARK                            x       y       z     vdW  Elec       q    Type
REMARK                         _______ _______ _______ _____ _____    ______ ____
ROOT
ATOM     13  C   UNL     1      -4.721   2.414  25.211  0.00  0.00    +0.012 C 
ATOM     14  C   UNL     1      -5.263   2.849  25.655  0.00  0.00    +0.019 C 
ATOM     15  C   UNL     1      -5.992   2.518  25.856  0.00  0.00    +0.089 C 
ATOM     16  N   UNL     1      -6.179   1.753  25.612  0.00  0.00    -0.218 NA
ATOM     17  C   UNL     1      -5.636   1.318  25.167  0.00  0.00    +0.089 C 
ATOM     18  C   UNL     1      -4.908   1.649  24.966  0.00  0.00    +0.024 C 
ENDROOT
BRANCH  13  12
ATOM     12  C   UNL     1      -3.992   2.745  25.010  0.00  0.00    +0.085 C 
BRANCH  12  10
ATOM      1  C   UNL     1      -0.186   4.198  24.365  0.00  0.00    +0.095 C 
ATOM      2  C   UNL     1      -0.726   4.639  24.805  0.00  0.00    +0.226 C 
ATOM      3  O   UNL     1      -0.506   5.371  25.115  0.00  0.00    -0.275 OA
ATOM      4  N   UNL     1      -1.488   4.348  24.934  0.00  0.00    -0.276 N 
ATOM      5  C   UNL     1      -2.029   4.790  25.373  0.00  0.00    +0.115 C 
ATOM      6  C   UNL     1      -2.791   4.499  25.503  0.00  0.00    +0.115 C 
ATOM      7  N   UNL     1      -3.011   3.767  25.192  0.00  0.00    -0.276 N 
ATOM      8  C   UNL     1      -2.469   3.326  24.752  0.00  0.00    +0.115 C 
ATOM      9  C   UNL     1      -1.709   3.617  24.623  0.00  0.00    +0.115 C 
ATOM     10  C   UNL     1      -3.772   3.477  25.321  0.00  0.00    +0.226 C 
ATOM     11  O   UNL     1      -4.313   3.918  25.761  0.00  0.00    -0.275 OA
ENDBRANCH  12  10
ENDBRANCH  13  12
BRANCH  18  19
ATOM     19  C   UNL     1      -4.366   1.214  24.522  0.00  0.00    +0.051 C 
BRANCH  19  20
ATOM     20  C   UNL     1      -4.310   0.397  24.623  0.00  0.00    +0.100 A 
ATOM     21  N   UNL     1      -4.757  -0.172  24.226  0.00  0.00    -0.082 NA
ATOM     22  O   UNL     1      -4.521  -0.915  24.497  0.00  0.00    -0.358 OA
ATOM     23  C   UNL     1      -3.929  -0.805  25.061  0.00  0.00    +0.154 A 
ATOM     31  C   UNL     1      -3.799   0.006  25.138  0.00  0.00    +0.054 A 
BRANCH  23  24
ATOM     24  C   UNL     1      -3.536  -1.401  25.474  0.00  0.00    +0.067 C 
BRANCH  24  25
ATOM     25  C   UNL     1      -2.940  -1.836  25.104  0.00  0.00    +0.008 C 
ATOM     26  C   UNL     1      -2.158  -1.576  25.138  0.00  0.00    +0.000 C 
ATOM     27  C   UNL     1      -1.563  -2.011  24.768  0.00  0.00    +0.000 C 
ATOM     28  C   UNL     1      -1.749  -2.706  24.365  0.00  0.00    +0.000 C 
ATOM     29  C   UNL     1      -2.531  -2.966  24.332  0.00  0.00    +0.000 C 
ATOM     30  C   UNL     1      -3.127  -2.531  24.701  0.00  0.00    +0.000 C 
ENDBRANCH  24  25
ENDBRANCH  23  24
ENDBRANCH  19  20
ENDBRANCH  18  19
TORSDOF 6
ENDMDL
MODEL 4
REMARK VINA RESULT:     -12.0      1.780      5.625
REMARK  Name = 
REMARK  6 active torsions:
REMARK  status: ('A' for Active; 'I' for Inactive)
REMARK    1  A    between atoms: C_10  and  C_12
REMARK    2  A    between atoms: C_12  and  C_13
REMARK    3  A    between atoms: C_18  and  C_19
REMARK    4  A    between atoms: C_19  and  C_20
REMARK    5  A    between atoms: C_23  and  C_24
REMARK    6  A    between atoms: C_24  and  C_25
REMARK                            x       y       z     vdW  Elec       q    Type
REMARK                         _______ _______ _______ _____ _____    ______ ____
ROOT
ATOM     13  C   UNL     1      -1.132   2.412  25.127  0.00  0.00    +0.012 C 
ATOM     14  C   UNL     1      -0.809   2.940  25.672  0.00  0.00    +0.019 C 
ATOM     15  C   UNL     1      -0.028   2.848  25.922  0.00  0.00    +0.089 C 
ATOM     16  N   UNL     1       0.429   2.228  25.626  0.00  0.00    -0.218 NA
ATOM     17  C   UNL     1       0.105   1.700  25.081  0.00  0.00    +0.089 C 
ATOM     18  C   UNL     1      -0.675   1.792  24.831  0.00  0.00    +0.024 C 
ENDROOT
BRANCH  13  12
ATOM     12  C   UNL     1      -1.914   2.505  24.877  0.00  0.00    +0.085 C 
BRANCH  12  10
ATOM      1  C   UNL     1      -5.996   2.294  25.424  0.00  0.00    +0.095 C 
ATOM      2  C   UNL     1      -5.604   3.013  25.525  0.00  0.00    +0.226 C 
ATOM      3  O   UNL     1      -6.027   3.689  25.735  0.00  0.00    -0.275 OA
ATOM      4  N   UNL     1      -4.786   3.055  25.415  0.00  0.00    -0.276 N 
ATOM      5  C   UNL     1      -4.394   3.773  25.516  0.00  0.00    +0.115 C 
ATOM      6  C   UNL     1      -3.576   3.815  25.406  0.00  0.00    +0.115 C 
ATOM      7  N   UNL     1      -3.153   3.139  25.196  0.00  0.00    -0.276 N 
ATOM      8  C   UNL     1      -3.547   2.421  25.096  0.00  0.00    +0.115 C 
ATOM      9  C   UNL     1      -4.363   2.378  25.205  0.00  0.00    +0.115 C 
ATOM     10  C   UNL     1      -2.337   3.181  25.087  0.00  0.00    +0.226 C 
ATOM     11  O   UNL     1      -1.943   3.899  25.187  0.00  0.00    -0.275 OA
ENDBRANCH  12  10
ENDBRANCH  13  12
BRANCH  18  19
ATOM     19  C   UNL     1      -0.999   1.265  24.286  0.00  0.00    +0.051 C 
BRANCH  19  20
ATOM     20  C   UNL     1      -0.891   0.453  24.384  0.00  0.00    +0.100 A 
ATOM     21  N   UNL     1      -0.331  -0.012  23.995  0.00  0.00    -0.082 NA
ATOM     22  O   UNL     1      -0.417  -0.790  24.259  0.00  0.00    -0.358 OA
ATOM     23  C   UNL     1      -1.030  -0.805  24.810  0.00  0.00    +0.154 A 
ATOM     31  C   UNL     1      -1.323  -0.037  24.888  0.00  0.00    +0.054 A 
BRANCH  23  24
ATOM     24  C   UNL     1      -1.303  -1.470  25.214  0.00  0.00    +0.067 C 
BRANCH  24  25
ATOM     25  C   UNL     1      -2.037  -1.796  25.024  0.00  0.00    +0.008 C 
ATOM     26  C   UNL     1      -2.091  -2.376  24.439  0.00  0.00    +0.000 C 
ATOM     27  C   UNL     1      -2.825  -2.702  24.250  0.00  0.00    +0.000 C 
ATOM     28  C   UNL     1      -3.503  -2.449  24.643  0.00  0.00    +0.000 C 
ATOM     29  C   UNL     1      -3.449  -1.869  25.228  0.00  0.00    +0.000 C 
ATOM     30  C   UNL     1      -2.715  -1.543  25.418  0.00  0.00    +0.000 C 
ENDBRANCH  24  25
ENDBRANCH  23  24
ENDBRANCH  19  20
ENDBRANCH  18  19
TORSDOF 6
ENDMDL
MODEL 5
REMARK VINA RESULT:     -11.7      1.612      3.604
REMARK  Name = 
REMARK  6 active torsions:
REMARK  status: ('A' for Active; 'I' for Inactive)
REMARK    1  A    between atoms: C_10  and  C_12
REMARK    2  A    between atoms: C_12  and  C_13
REMARK    3  A    between atoms: C_18  and  C_19
REMARK    4  A    between atoms: C_19  and  C_20
REMARK    5  A    between atoms: C_23  and  C_24
REMARK    6  A    between atoms: C_24  and  C_25
REMARK                            x       y       z     vdW  Elec       q    Type
REMARK                         _______ _______ _______ _____ _____    ______ ____
ROOT
ATOM     13  C   UNL     1      -0.894   1.882  25.152  0.00  0.00    +0.012 C 
ATOM     14  C   UNL     1      -0.374   1.746  25.777  0.00  0.00    +0.019 C 
ATOM     15  C   UNL     1      -0.055   2.384  26.193  0.00  0.00    +0.089 C 
ATOM     16  N   UNL     1      -0.256   3.156  25.983  0.00  0.00    -0.218 NA
ATOM     17  C   UNL     1      -0.777   3.290  25.357  0.00  0.00    +0.089 C 
ATOM     18  C   UNL     1      -1.096   2.653  24.942  0.00  0.00    +0.024 C 
ENDROOT
BRANCH  13  12
ATOM     12  C   UNL     1      -1.214   1.244  24.736  0.00  0.00    +0.085 C 
BRANCH  12  10
ATOM      1  C   UNL     1      -3.231  -2.349  24.561  0.00  0.00    +0.095 C 
ATOM      2  C   UNL     1      -2.407  -2.338  24.538  0.00  0.00    +0.226 C 
ATOM      3  O   UNL     1      -1.986  -3.046  24.481  0.00  0.00    -0.275 OA
ATOM      4  N   UNL     1      -2.003  -1.619  24.573  0.00  0.00    -0.276 N 
ATOM      5  C   UNL     1      -1.179  -1.608  24.551  0.00  0.00    +0.115 C 
ATOM      6  C   UNL     1      -0.775  -0.889  24.586  0.00  0.00    +0.115 C 
ATOM      7  N   UNL     1      -1.196  -0.182  24.643  0.00  0.00    -0.276 N 
ATOM      8  C   UNL     1      -2.021  -0.194  24.666  0.00  0.00    +0.115 C 
ATOM      9  C   UNL     1      -2.424  -0.912  24.631  0.00  0.00    +0.115 C 
ATOM     10  C   UNL     1      -0.793   0.536  24.678  0.00  0.00    +0.226 C 
ATOM     11  O   UNL     1       0.032   0.549  24.656  0.00  0.00    -0.275 OA
ENDBRANCH  12  10
ENDBRANCH  13  12
BRANCH  18  19
ATOM     19  C   UNL     1      -1.617   2.787  24.316  0.00  0.00    +0.051 C 
BRANCH  19  20
ATOM     20  C   UNL     1      -2.325   3.190  24.448  0.00  0.00    +0.100 A 
ATOM     21  N   UNL     1      -2.405   3.918  24.828  0.00  0.00    -0.082 NA
ATOM     22  O   UNL     1      -3.207   4.113  24.839  0.00  0.00    -0.358 OA
ATOM     23  C   UNL     1      -3.622   3.506  24.465  0.00  0.00    +0.154 A 
ATOM     31  C   UNL     1      -3.076   2.935  24.223  0.00  0.00    +0.054 A 
BRANCH  23  24
ATOM     24  C   UNL     1      -4.438   3.474  24.352  0.00  0.00    +0.067 C 
BRANCH  24  25
ATOM     25  C   UNL     1      -4.901   2.977  24.820  0.00  0.00    +0.008 C 
ATOM     26  C   UNL     1      -5.071   2.211  24.564  0.00  0.00    +0.000 C 
ATOM     27  C   UNL     1      -5.534   1.713  25.033  0.00  0.00    +0.000 C 
ATOM     28  C   UNL     1      -5.825   1.981  25.756  0.00  0.00    +0.000 C 
ATOM     29  C   UNL     1      -5.655   2.747  26.012  0.00  0.00    +0.000 C 
ATOM     30  C   UNL     1      -5.192   3.245  25.544  0.00  0.00    +0.000 C 
ENDBRANCH  24  25
ENDBRANCH  23  24
ENDBRANCH  19  20
ENDBRANCH  18  19
TORSDOF 6
ENDMDL
MODEL 6
REMARK VINA RESULT:     -10.9      2.030      4.360
REMARK  Name = 
REMARK  6 active torsions:
REMARK  status: ('A' for Active; 'I' for Inactive)
REMARK    1  A    between atoms: C_10  and  C_12
REMARK    2  A    between atoms: C_12  and  C_13
REMARK    3  A    between atoms: C_18  and  C_19
REMARK    4  A    between atoms: C_19  and  C_20
REMARK    5  A    between atoms: C_23  and  C_24
REMARK    6  A    between atoms: C_24  and  C_25
REMARK                            x       y       z     vdW  Elec       q    Type
REMARK                         _______ _______ _______ _____ _____    ______ ____
ROOT
ATOM     13  C   UNL     1      -2.525   3.195  25.046  0.00  0.00    +0.012 C 
ATOM     14  C   UNL     1      -2.163   3.677  25.610  0.00  0.00    +0.019 C 
ATOM     15  C   UNL     1      -2.625   4.106  26.142  0.00  0.00    +0.089 C 
ATOM     16  N   UNL     1      -3.448   4.054  26.111  0.00  0.00    -0.218 NA
ATOM     17  C   UNL     1      -3.808   3.572  25.546  0.00  0.00    +0.089 C 
ATOM     18  C   UNL     1      -3.347   3.143  25.014  0.00  0.00    +0.024 C 
ENDROOT
BRANCH  13  12
ATOM     12  C   UNL     1      -2.063   2.765  24.514  0.00  0.00    +0.085 C 
BRANCH  12  10
ATOM      1  C   UNL     1       0.426  -0.284  23.280  0.00  0.00    +0.095 C 
ATOM      2  C   UNL     1       0.744   0.445  23.498  0.00  0.00    +0.226 C 
ATOM      3  O   UNL     1       1.560   0.565  23.469  0.00  0.00    -0.275 OA
ATOM      4  N   UNL     1       0.246   1.056  23.745  0.00  0.00    -0.276 N 
ATOM      5  C   UNL     1       0.565   1.784  23.963  0.00  0.00    +0.115 C 
ATOM      6  C   UNL     1       0.066   2.395  24.210  0.00  0.00    +0.115 C 
ATOM      7  N   UNL     1      -0.750   2.275  24.239  0.00  0.00    -0.276 N 
ATOM      8  C   UNL     1      -1.067   1.546  24.020  0.00  0.00    +0.115 C 
ATOM      9  C   UNL     1      -0.570   0.936  23.773  0.00  0.00    +0.115 C 
ATOM     10  C   UNL     1      -1.247   2.885  24.485  0.00  0.00    +0.226 C 
ATOM     11  O   UNL     1      -0.929   3.614  24.704  0.00  0.00    -0.275 OA
ENDBRANCH  12  10
ENDBRANCH  13  12
BRANCH  18  19
ATOM     19  C   UNL     1      -3.708   2.661  24.450  0.00  0.00    +0.051 C 
BRANCH  19  20
ATOM     20  C   UNL     1      -4.164   2.016  24.690  0.00  0.00    +0.100 A 
ATOM     21  N   UNL     1      -4.737   2.022  25.284  0.00  0.00    -0.082 NA
ATOM     22  O   UNL     1      -5.055   1.262  25.339  0.00  0.00    -0.358 OA
ATOM     23  C   UNL     1      -4.678   0.787  24.779  0.00  0.00    +0.154 A 
ATOM     31  C   UNL     1      -4.127   1.254  24.378  0.00  0.00    +0.054 A 
BRANCH  23  24
ATOM     24  C   UNL     1      -4.825  -0.013  24.644  0.00  0.00    +0.067 C 
BRANCH  24  25
ATOM     25  C   UNL     1      -4.236  -0.572  24.792  0.00  0.00    +0.008 C 
ATOM     26  C   UNL     1      -3.917  -1.009  24.169  0.00  0.00    +0.000 C 
ATOM     27  C   UNL     1      -3.328  -1.568  24.318  0.00  0.00    +0.000 C 
ATOM     28  C   UNL     1      -3.058  -1.689  25.087  0.00  0.00    +0.000 C 
ATOM     29  C   UNL     1      -3.378  -1.252  25.710  0.00  0.00    +0.000 C 
ATOM     30  C   UNL     1      -3.967  -0.693  25.562  0.00  0.00    +0.000 C 
ENDBRANCH  24  25
ENDBRANCH  23  24
ENDBRANCH  19  20
ENDBRANCH  18  19
TORSDOF 6
ENDMDL
MODEL 7
REMARK VINA RESULT:     -10.7      1.693      3.751
REMARK  Name = 
REMARK  6 active torsions:
REMARK  status: ('A' for Active; 'I' for Inactive)
REMARK    1  A    between atoms: C_10  and  C_12
REMARK    2  A    between atoms: C_12  and  C_13
REMARK    3  A    between atoms: C_18  and  C_19
REMARK    4  A    between atoms: C_19  and  C_20
REMARK    5  A    between atoms: C_23  and  C_24
REMARK    6  A    between atoms: C_24  and  C_25
REMARK                            x       y       z     vdW  Elec       q    Type
REMARK                         _______ _______ _______ _____ _____    ______ ____
ROOT
ATOM     13  C   UNL     1      -1.867  -0.263  24.595  0.00  0.00    +0.012 C 
ATOM     14  C   UNL     1      -1.970  -0.968  25.011  0.00  0.00    +0.019 C 
ATOM     15  C   UNL     1      -1.312  -1.408  25.245  0.00  0.00    +0.089 C 
ATOM     16  N   UNL     1      -0.552  -1.143  25.064  0.00  0.00    -0.218 NA
ATOM     17  C   UNL     1      -0.451  -0.437  24.648  0.00  0.00    +0.089 C 
ATOM     18  C   UNL     1      -1.108   0.002  24.414  0.00  0.00    +0.024 C 
ENDROOT
BRANCH  13  12
ATOM     12  C   UNL     1      -2.526   0.177  24.361  0.00  0.00    +0.085 C 
BRANCH  12  10
ATOM      1  C   UNL     1      -5.617   2.776  25.196  0.00  0.00    +0.095 C 
ATOM      2  C   UNL     1      -5.760   1.965  25.161  0.00  0.00    +0.226 C 
ATOM      3  O   UNL     1      -6.520   1.672  25.293  0.00  0.00    -0.275 OA
ATOM      4  N   UNL     1      -5.141   1.444  24.994  0.00  0.00    -0.276 N 
ATOM      5  C   UNL     1      -5.283   0.633  24.959  0.00  0.00    +0.115 C 
ATOM      6  C   UNL     1      -4.664   0.113  24.792  0.00  0.00    +0.115 C 
ATOM      7  N   UNL     1      -3.904   0.405  24.660  0.00  0.00    -0.276 N 
ATOM      8  C   UNL     1      -3.763   1.217  24.695  0.00  0.00    +0.115 C 
ATOM      9  C   UNL     1      -4.380   1.737  24.862  0.00  0.00    +0.115 C 
ATOM     10  C   UNL     1      -3.286  -0.115  24.493  0.00  0.00    +0.226 C 
ATOM     11  O   UNL     1      -3.427  -0.927  24.458  0.00  0.00    -0.275 OA
ENDBRANCH  12  10
ENDBRANCH  13  12
BRANCH  18  19
ATOM     19  C   UNL     1      -1.006   0.708  23.998  0.00  0.00    +0.051 C 
BRANCH  19  20
ATOM     20  C   UNL     1      -0.541   1.310  24.317  0.00  0.00    +0.100 A 
ATOM     21  N   UNL     1       0.251   1.458  24.136  0.00  0.00    -0.082 NA
ATOM     22  O   UNL     1       0.496   2.110  24.579  0.00  0.00    -0.358 OA
ATOM     23  C   UNL     1      -0.144   2.364  25.034  0.00  0.00    +0.154 A 
ATOM     31  C   UNL     1      -0.784   1.870  24.871  0.00  0.00    +0.054 A 
BRANCH  23  24
ATOM     24  C   UNL     1      -0.144   3.001  25.558  0.00  0.00    +0.067 C 
BRANCH  24  25
ATOM     25  C   UNL     1      -0.642   3.645  25.425  0.00  0.00    +0.008 C 
ATOM     26  C   UNL     1      -1.382   3.675  25.789  0.00  0.00    +0.000 C 
ATOM     27  C   UNL     1      -1.880   4.319  25.657  0.00  0.00    +0.000 C 
ATOM     28  C   UNL     1      -1.640   4.933  25.162  0.00  0.00    +0.000 C 
ATOM     29  C   UNL     1      -0.899   4.903  24.798  0.00  0.00    +0.000 C 
ATOM     30  C   UNL     1      -0.400   4.258  24.930  0.00  0.00    +0.000 C 
ENDBRANCH  24  25
ENDBRANCH  23  24
ENDBRANCH  19  20
ENDBRANCH  18  19
TORSDOF 6
ENDMDL
MODEL 8
REMARK VINA RESULT:     -10.5      1.818      5.251
REMARK  Name = 
REMARK  6 active torsions:
REMARK  status: ('A' for Active; 'I' for Inactive)
REMARK    1  A    between atoms: C_10  and  C_12
REMARK    2  A    between atoms: C_12  and  C_13
REMARK    3  A    between atoms: C_18  and  C_19
REMARK    4  A    between atoms: C_19  and  C_20
REMARK    5  A    between atoms: C_23  and  C_24
REMARK    6  A    between atoms: C_24  and  C_25
REMARK                            x       y       z     vdW  Elec       q    Type
REMARK                         _______ _______ _______ _____ _____    ______ ____
ROOT
ATOM     13  C   UNL     1      -0.812   0.169  24.863  0.00  0.00    +0.012 C 
ATOM     14  C   UNL     1      -0.242  -0.050  24.309  0.00  0.00    +0.019 C 
ATOM     15  C   UNL     1      -0.220  -0.826  24.025  0.00  0.00    +0.089 C 
ATOM     16  N   UNL     1      -0.768  -1.380  24.296  0.00  0.00    -0.218 NA
ATOM     17  C   UNL     1      -1.337  -1.159  24.851  0.00  0.00    +0.089 C 
ATOM     18  C   UNL     1      -1.359  -0.385  25.135  0.00  0.00    +0.024 C 
ENDROOT
BRANCH  13  12
ATOM     12  C   UNL     1      -0.834   0.944  25.147  0.00  0.00    +0.085 C 
BRANCH  12  10
ATOM      1  C   UNL     1      -1.819   4.940  25.421  0.00  0.00    +0.095 C 
ATOM      2  C   UNL     1      -1.121   4.713  25.045  0.00  0.00    +0.226 C 
ATOM      3  O   UNL     1      -0.620   5.284  24.723  0.00  0.00    -0.275 OA
ATOM      4  N   UNL     1      -0.924   3.913  24.990  0.00  0.00    -0.276 N 
ATOM      5  C   UNL     1      -0.226   3.685  24.614  0.00  0.00    +0.115 C 
ATOM      6  C   UNL     1      -0.029   2.885  24.559  0.00  0.00    +0.115 C 
ATOM      7  N   UNL     1      -0.530   2.314  24.880  0.00  0.00    -0.276 N 
ATOM      8  C   UNL     1      -1.228   2.543  25.257  0.00  0.00    +0.115 C 
ATOM      9  C   UNL     1      -1.425   3.341  25.312  0.00  0.00    +0.115 C 
ATOM     10  C   UNL     1      -0.333   1.516  24.825  0.00  0.00    +0.226 C 
ATOM     11  O   UNL     1       0.365   1.287  24.449  0.00  0.00    -0.275 OA
ENDBRANCH  12  10
ENDBRANCH  13  12
BRANCH  18  19
ATOM     19  C   UNL     1      -1.929  -0.164  25.690  0.00  0.00    +0.051 C 
BRANCH  19  20
ATOM     20  C   UNL     1      -2.729  -0.288  25.530  0.00  0.00    +0.100 A 
ATOM     21  N   UNL     1      -3.187  -0.916  25.806  0.00  0.00    -0.082 NA
ATOM     22  O   UNL     1      -3.953  -0.821  25.514  0.00  0.00    -0.358 OA
ATOM     23  C   UNL     1      -3.968  -0.134  25.057  0.00  0.00    +0.154 A 
ATOM     31  C   UNL     1      -3.211   0.195  25.067  0.00  0.00    +0.054 A 
BRANCH  23  24
ATOM     24  C   UNL     1      -4.623   0.170  24.660  0.00  0.00    +0.067 C 
BRANCH  24  25
ATOM     25  C   UNL     1      -4.892   0.931  24.829  0.00  0.00    +0.008 C 
ATOM     26  C   UNL     1      -5.431   1.051  25.442  0.00  0.00    +0.000 C 
ATOM     27  C   UNL     1      -5.700   1.813  25.611  0.00  0.00    +0.000 C 
ATOM     28  C   UNL     1      -5.430   2.454  25.168  0.00  0.00    +0.000 C 
ATOM     29  C   UNL     1      -4.891   2.334  24.555  0.00  0.00    +0.000 C 
ATOM     30  C   UNL     1      -4.622   1.572  24.385  0.00  0.00    +0.000 C 
ENDBRANCH  24  25
ENDBRANCH  23  24
ENDBRANCH  19  20
ENDBRANCH  18  19
TORSDOF 6
ENDMDL
