MODEL 1
REMARK VINA RESULT:     -11.1      0.000      0.000
REMARK  Name = 
REMARK  7 active torsions:
REMARK  status: ('A' for Active; 'I' for Inactive)
REMARK    1  A    between atoms: C_2  and  C_4
REMARK    2  A    between atoms: C_4  and  C_5
REMARK    3  A    between atoms: C_4  and  N_12
REMARK    4  A    between atoms: C_5  and  C_6
REMARK    5  A    between atoms: C_13  and  C_15
REMARK    6  A    between atoms: C_21  and  C_23
REMARK    7  A    between atoms: C_29  and  C_31
REMARK                            x       y       z     vdW  Elec       q    Type
REMARK                         _______ _______ _______ _____ _____    ______ ____
ROOT
ATOM     15  C   UNL     1      -2.521   1.152  24.789  0.00  0.00    +0.174 C 
ATOM     16  C   UNL     1      -3.342   1.142  24.866  0.00  0.00    +0.123 C 
ATOM     17  N   UNL     1      -3.750   1.839  25.036  0.00  0.00    -0.272 N 
ATOM     18  C   UNL     1      -3.336   2.546  25.130  0.00  0.00    +0.115 C 
ATOM     19  C   UNL     1      -2.515   2.557  25.053  0.00  0.00    +0.115 C 
ATOM     20  N   UNL     1      -2.107   1.860  24.883  0.00  0.00    -0.270 N 
ATOM     21  C   UNL     1      -1.286   1.871  24.806  0.00  0.00    +0.226 C 
ATOM     22  O   UNL     1      -0.879   1.175  24.636  0.00  0.00    -0.275 OA
ATOM     29  C   UNL     1      -4.570   1.828  25.113  0.00  0.00    +0.251 C 
ATOM     30  O   UNL     1      -4.985   1.120  25.020  0.00  0.00    -0.270 OA
ENDROOT
BRANCH  21  23
ATOM     23  C   UNL     1      -0.872   2.579  24.900  0.00  0.00    +0.080 C 
ATOM     24  C   UNL     1      -0.756   3.078  24.253  0.00  0.00    +0.028 C 
ATOM     25  C   UNL     1      -0.343   3.785  24.346  0.00  0.00    +0.089 C 
ATOM     26  N   UNL     1      -0.045   3.995  25.087  0.00  0.00    -0.218 NA
ATOM     27  C   UNL     1      -0.160   3.496  25.734  0.00  0.00    +0.089 C 
ATOM     28  C   UNL     1      -0.574   2.787  25.640  0.00  0.00    +0.028 C 
ENDBRANCH  21  23
BRANCH  29  31
ATOM     31  C   UNL     1      -4.979   2.525  25.283  0.00  0.00    +0.073 A 
ATOM     32  C   UNL     1      -5.322   2.631  26.026  0.00  0.00    +0.103 A 
ATOM     33  N   UNL     1      -5.730   3.327  26.196  0.00  0.00    -0.242 NA
ATOM     34  C   UNL     1      -5.794   3.919  25.623  0.00  0.00    +0.099 A 
ATOM     35  C   UNL     1      -5.450   3.812  24.881  0.00  0.00    +0.021 A 
ATOM     36  C   UNL     1      -5.042   3.115  24.711  0.00  0.00    +0.008 A 
ENDBRANCH  29  31
BRANCH  15  13
ATOM     12  N   UNL     1      -2.260  -0.226  25.061  0.00  0.00    -0.196 NA
ATOM     13  C   UNL     1      -2.114   0.456  24.619  0.00  0.00    +0.262 C 
ATOM     14  O   UNL     1      -1.560   0.440  24.008  0.00  0.00    -0.271 OA
BRANCH  12   4
ATOM      4  C   UNL     1      -1.852  -0.923  24.891  0.00  0.00    +0.174 C 
BRANCH   4   2
ATOM      1  N   UNL     1      -0.529  -1.444  25.025  0.00  0.00    -0.086 NA
ATOM      2  C   UNL     1      -1.221  -1.158  25.368  0.00  0.00    +0.281 C 
ATOM      3  O   UNL     1      -1.285  -1.107  26.190  0.00  0.00    -0.270 OA
ENDBRANCH   4   2
BRANCH   4   5
ATOM      5  C   UNL     1      -2.075  -1.383  24.244  0.00  0.00    +0.031 C 
BRANCH   5   6
ATOM      6  C   UNL     1      -2.718  -1.898  24.306  0.00  0.00    +0.002 C 
ATOM      7  C   UNL     1      -3.419  -1.731  23.904  0.00  0.00    +0.000 C 
ATOM      8  C   UNL     1      -4.062  -2.245  23.966  0.00  0.00    +0.000 C 
ATOM      9  C   UNL     1      -4.004  -2.925  24.430  0.00  0.00    +0.000 C 
ATOM     10  C   UNL     1      -3.302  -3.091  24.832  0.00  0.00    +0.000 C 
ATOM     11  C   UNL     1      -2.660  -2.577  24.770  0.00  0.00    +0.000 C 
ENDBRANCH   5   6
ENDBRANCH   4   5
ENDBRANCH  12   4
ENDBRANCH  15  13
TORSDOF 7
ENDMDL
MODEL 2
REMARK VINA RESULT:     -10.8      1.587      4.417
REMARK  Name = 
REMARK  7 active torsions:
REMARK  status: ('A' for Active; 'I' for Inactive)
REMARK    1  A    between atoms: C_2  and  C_4
REMARK    2  A    between atoms: C_4  and  C_5
REMARK    3  A    between atoms: C_4  and  N_12
REMARK    4  A    between atoms: C_5  and  C_6
REMARK    5  A    between atoms: C_13  and  C_15
REMARK    6  A    between atoms: C_21  and  C_23
REMARK    7  A    between atoms: C_29  and  C_31
REMARK                            x       y       z     vdW  Elec       q    Type
REMARK                         _______ _______ _______ _____ _____    ______ ____
ROOT
ATOM     15  C   UNL     1      -2.092   1.056  24.381  0.00  0.00    +0.174 C 
ATOM     16  C   UNL     1      -2.797   0.686  24.598  0.00  0.00    +0.123 C 
ATOM     17  N   UNL     1      -2.864  -0.135  24.548  0.00  0.00    -0.272 N 
ATOM     18  C   UNL     1      -2.227  -0.585  24.282  0.00  0.00    +0.115 C 
ATOM     19  C   UNL     1      -1.522  -0.216  24.064  0.00  0.00    +0.115 C 
ATOM     20  N   UNL     1      -1.455   0.605  24.114  0.00  0.00    -0.270 N 
ATOM     21  C   UNL     1      -0.750   0.975  23.897  0.00  0.00    +0.226 C 
ATOM     22  O   UNL     1      -0.683   1.795  23.946  0.00  0.00    -0.275 OA
ATOM     29  C   UNL     1      -3.568  -0.505  24.766  0.00  0.00    +0.251 C 
ATOM     30  O   UNL     1      -4.206  -0.054  25.033  0.00  0.00    -0.270 OA
ENDROOT
BRANCH  21  23
ATOM     23  C   UNL     1      -0.113   0.524  23.629  0.00  0.00    +0.080 C 
ATOM     24  C   UNL     1       0.401   0.173  24.172  0.00  0.00    +0.028 C 
ATOM     25  C   UNL     1       1.037  -0.277  23.905  0.00  0.00    +0.089 C 
ATOM     26  N   UNL     1       1.162  -0.378  23.095  0.00  0.00    -0.218 NA
ATOM     27  C   UNL     1       0.648  -0.027  22.553  0.00  0.00    +0.089 C 
ATOM     28  C   UNL     1       0.011   0.424  22.820  0.00  0.00    +0.028 C 
ENDBRANCH  21  23
BRANCH  29  31
ATOM     31  C   UNL     1      -3.636  -1.326  24.716  0.00  0.00    +0.073 A 
ATOM     32  C   UNL     1      -3.376  -1.800  25.340  0.00  0.00    +0.103 A 
ATOM     33  N   UNL     1      -3.444  -2.620  25.290  0.00  0.00    -0.242 NA
ATOM     34  C   UNL     1      -3.770  -2.968  24.616  0.00  0.00    +0.099 A 
ATOM     35  C   UNL     1      -4.029  -2.494  23.993  0.00  0.00    +0.021 A 
ATOM     36  C   UNL     1      -3.962  -1.673  24.043  0.00  0.00    +0.008 A 
ENDBRANCH  29  31
BRANCH  15  13
ATOM     12  N   UNL     1      -2.277   2.270  25.111  0.00  0.00    -0.196 NA
ATOM     13  C   UNL     1      -2.025   1.876  24.431  0.00  0.00    +0.262 C 
ATOM     14  O   UNL     1      -1.707   2.303  23.801  0.00  0.00    -0.271 OA
BRANCH  12   4
ATOM      4  C   UNL     1      -2.209   3.091  25.161  0.00  0.00    +0.174 C 
BRANCH   4   2
ATOM      1  N   UNL     1      -1.187   4.081  25.290  0.00  0.00    -0.086 NA
ATOM      2  C   UNL     1      -1.591   3.428  25.591  0.00  0.00    +0.281 C 
ATOM      3  O   UNL     1      -1.378   3.112  26.323  0.00  0.00    -0.270 OA
ENDBRANCH   4   2
BRANCH   4   5
ATOM      5  C   UNL     1      -2.759   3.573  24.781  0.00  0.00    +0.031 C 
BRANCH   5   6
ATOM      6  C   UNL     1      -3.525   3.643  25.082  0.00  0.00    +0.002 C 
ATOM      7  C   UNL     1      -4.175   3.523  24.588  0.00  0.00    +0.000 C 
ATOM      8  C   UNL     1      -4.940   3.592  24.889  0.00  0.00    +0.000 C 
ATOM      9  C   UNL     1      -5.055   3.782  25.684  0.00  0.00    +0.000 C 
ATOM     10  C   UNL     1      -4.405   3.902  26.177  0.00  0.00    +0.000 C 
ATOM     11  C   UNL     1      -3.640   3.832  25.876  0.00  0.00    +0.000 C 
ENDBRANCH   5   6
ENDBRANCH   4   5
ENDBRANCH  12   4
ENDBRANCH  15  13
TORSDOF 7
ENDMDL
MODEL 3
REMARK VINA RESULT:     -10.6      1.965      4.099
REMARK  Name = 
REMARK  7 active torsions:
REMARK  status: ('A' for Active; 'I' for Inactive)
REMARK    1  A    between atoms: C_2  and  C_4
REMARK    2  A    between atoms: C_4  and  C_5
REMARK    3  A    between atoms: C_4  and  N_12
REMARK    4  A    between atoms: C_5  and  C_6
REMARK    5  A    between atoms: C_13  and  C_15
REMARK    6  A    between atoms: C_21  and  C_23
REMARK    7  A    between atoms: C_29  and  C_31
REMARK                            x       y       z     vdW  Elec       q    Type
REMARK                         _______ _______ _______ _____ _____    ______ ____
ROOT
ATOM     15  C   UNL     1      -1.386   0.710  24.548  0.00  0.00    +0.174 C 
ATOM     16  C   UNL     1      -0.970   0.103  24.175  0.00  0.00    +0.123 C 
ATOM     17  N   UNL     1      -0.234   0.255  23.834  0.00  0.00    -0.272 N 
ATOM     18  C   UNL     1       0.086   1.014  23.867  0.00  0.00    +0.115 C 
ATOM     19  C   UNL     1      -0.329   1.622  24.240  0.00  0.00    +0.115 C 
ATOM     20  N   UNL     1      -1.065   1.470  24.580  0.00  0.00    -0.270 N 
ATOM     21  C   UNL     1      -1.481   2.077  24.953  0.00  0.00    +0.226 C 
ATOM     22  O   UNL     1      -2.216   1.925  25.293  0.00  0.00    -0.275 OA
ATOM     29  C   UNL     1       0.181  -0.352  23.462  0.00  0.00    +0.251 C 
ATOM     30  O   UNL     1      -0.139  -1.112  23.429  0.00  0.00    -0.270 OA
ENDROOT
BRANCH  21  23
ATOM     23  C   UNL     1      -1.160   2.837  24.985  0.00  0.00    +0.080 C 
ATOM     24  C   UNL     1      -0.651   3.044  25.601  0.00  0.00    +0.028 C 
ATOM     25  C   UNL     1      -0.331   3.803  25.633  0.00  0.00    +0.089 C 
ATOM     26  N   UNL     1      -0.519   4.356  25.049  0.00  0.00    -0.218 NA
ATOM     27  C   UNL     1      -1.028   4.149  24.434  0.00  0.00    +0.089 C 
ATOM     28  C   UNL     1      -1.349   3.389  24.402  0.00  0.00    +0.028 C 
ENDBRANCH  21  23
BRANCH  29  31
ATOM     31  C   UNL     1       0.917  -0.200  23.121  0.00  0.00    +0.073 A 
ATOM     32  C   UNL     1       0.985  -0.126  22.302  0.00  0.00    +0.103 A 
ATOM     33  N   UNL     1       1.721   0.026  21.962  0.00  0.00    -0.242 NA
ATOM     34  C   UNL     1       2.389   0.104  22.440  0.00  0.00    +0.099 A 
ATOM     35  C   UNL     1       2.320   0.030  23.259  0.00  0.00    +0.021 A 
ATOM     36  C   UNL     1       1.584  -0.122  23.599  0.00  0.00    +0.008 A 
ENDBRANCH  29  31
BRANCH  15  13
ATOM     12  N   UNL     1      -2.722   0.216  24.436  0.00  0.00    -0.196 NA
ATOM     13  C   UNL     1      -2.121   0.558  24.888  0.00  0.00    +0.262 C 
ATOM     14  O   UNL     1      -2.257   0.747  25.679  0.00  0.00    -0.271 OA
BRANCH  12   4
ATOM      4  C   UNL     1      -3.458   0.064  24.777  0.00  0.00    +0.174 C 
BRANCH   4   2
ATOM      1  N   UNL     1      -4.593   0.781  25.267  0.00  0.00    -0.086 NA
ATOM      2  C   UNL     1      -4.087   0.582  24.647  0.00  0.00    +0.281 C 
ATOM      3  O   UNL     1      -4.210   0.902  23.895  0.00  0.00    -0.270 OA
ENDBRANCH   4   2
BRANCH   4   5
ATOM      5  C   UNL     1      -3.565  -0.605  25.246  0.00  0.00    +0.031 C 
BRANCH   5   6
ATOM      6  C   UNL     1      -3.667  -1.345  24.894  0.00  0.00    +0.002 C 
ATOM      7  C   UNL     1      -4.133  -1.417  24.216  0.00  0.00    +0.000 C 
ATOM      8  C   UNL     1      -4.236  -2.156  23.864  0.00  0.00    +0.000 C 
ATOM      9  C   UNL     1      -3.872  -2.822  24.189  0.00  0.00    +0.000 C 
ATOM     10  C   UNL     1      -3.406  -2.749  24.866  0.00  0.00    +0.000 C 
ATOM     11  C   UNL     1      -3.304  -2.010  25.218  0.00  0.00    +0.000 C 
ENDBRANCH   5   6
ENDBRANCH   4   5
ENDBRANCH  12   4
ENDBRANCH  15  13
TORSDOF 7
ENDMDL
MODEL 4
REMARK VINA RESULT:     -10.6      1.235      4.158
REMARK  Name = 
REMARK  7 active torsions:
REMARK  status: ('A' for Active; 'I' for Inactive)
REMARK    1  A    between atoms: C_2  and  C_4
REMARK    2  A    between atoms: C_4  and  C_5
REMARK    3  A    between atoms: C_4  and  N_12
REMARK    4  A    between atoms: C_5  and  C_6
REMARK    5  A    between atoms: C_13  and  C_15
REMARK    6  A    between atoms: C_21  and  C_23
REMARK    7  A    between atoms: C_29  and  C_31
REMARK                            x       y       z     vdW  Elec       q    Type
REMARK                         _______ _______ _______ _____ _____    ______ ____
ROOT
ATOM     15  C   UNL     1      -2.694   0.632  24.897  0.00  0.00    +0.174 C 
ATOM     16  C   UNL     1      -3.122   1.329  25.008  0.00  0.00    +0.123 C 
ATOM     17  N   UNL     1      -3.944   1.303  25.072  0.00  0.00    -0.272 N 
ATOM     18  C   UNL     1      -4.339   0.581  25.025  0.00  0.00    +0.115 C 
ATOM     19  C   UNL     1      -3.912  -0.117  24.913  0.00  0.00    +0.115 C 
ATOM     20  N   UNL     1      -3.090  -0.091  24.849  0.00  0.00    -0.270 N 
ATOM     21  C   UNL     1      -2.662  -0.788  24.738  0.00  0.00    +0.226 C 
ATOM     22  O   UNL     1      -1.841  -0.762  24.674  0.00  0.00    -0.275 OA
ATOM     29  C   UNL     1      -4.371   1.999  25.183  0.00  0.00    +0.251 C 
ATOM     30  O   UNL     1      -3.976   2.723  25.231  0.00  0.00    -0.270 OA
ENDROOT
BRANCH  21  23
ATOM     23  C   UNL     1      -3.058  -1.511  24.690  0.00  0.00    +0.080 C 
ATOM     24  C   UNL     1      -3.427  -1.734  23.987  0.00  0.00    +0.028 C 
ATOM     25  C   UNL     1      -3.822  -2.456  23.940  0.00  0.00    +0.089 C 
ATOM     26  N   UNL     1      -3.848  -2.956  24.596  0.00  0.00    -0.218 NA
ATOM     27  C   UNL     1      -3.478  -2.733  25.299  0.00  0.00    +0.089 C 
ATOM     28  C   UNL     1      -3.083  -2.010  25.347  0.00  0.00    +0.028 C 
ENDBRANCH  21  23
BRANCH  29  31
ATOM     31  C   UNL     1      -5.194   1.974  25.247  0.00  0.00    +0.073 A 
ATOM     32  C   UNL     1      -5.660   1.952  24.567  0.00  0.00    +0.103 A 
ATOM     33  N   UNL     1      -6.482   1.927  24.631  0.00  0.00    -0.242 NA
ATOM     34  C   UNL     1      -6.838   1.922  25.375  0.00  0.00    +0.099 A 
ATOM     35  C   UNL     1      -6.371   1.943  26.055  0.00  0.00    +0.021 A 
ATOM     36  C   UNL     1      -5.549   1.969  25.991  0.00  0.00    +0.008 A 
ENDBRANCH  29  31
BRANCH  15  13
ATOM     12  N   UNL     1      -1.514   1.222  24.348  0.00  0.00    -0.196 NA
ATOM     13  C   UNL     1      -1.873   0.658  24.833  0.00  0.00    +0.262 C 
ATOM     14  O   UNL     1      -1.409   0.121  25.253  0.00  0.00    -0.271 OA
BRANCH  12   4
ATOM      4  C   UNL     1      -0.692   1.248  24.284  0.00  0.00    +0.174 C 
BRANCH   4   2
ATOM      1  N   UNL     1       0.363   0.419  23.794  0.00  0.00    -0.086 NA
ATOM      2  C   UNL     1      -0.315   0.866  23.657  0.00  0.00    +0.281 C 
ATOM      3  O   UNL     1      -0.619   0.932  22.892  0.00  0.00    -0.270 OA
ENDBRANCH   4   2
BRANCH   4   5
ATOM      5  C   UNL     1      -0.248   1.655  24.847  0.00  0.00    +0.031 C 
BRANCH   5   6
ATOM      6  C   UNL     1      -0.304   2.477  24.902  0.00  0.00    +0.002 C 
ATOM      7  C   UNL     1      -0.402   2.835  25.639  0.00  0.00    +0.000 C 
ATOM      8  C   UNL     1      -0.458   3.656  25.693  0.00  0.00    +0.000 C 
ATOM      9  C   UNL     1      -0.416   4.119  25.011  0.00  0.00    +0.000 C 
ATOM     10  C   UNL     1      -0.318   3.760  24.275  0.00  0.00    +0.000 C 
ATOM     11  C   UNL     1      -0.262   2.939  24.220  0.00  0.00    +0.000 C 
ENDBRANCH   5   6
ENDBRANCH   4   5
ENDBRANCH  12   4
ENDBRANCH  15  13
TORSDOF 7
ENDMDL
MODEL 5
REMARK VINA RESULT:     -10.3      1.690      5.525
REMARK  Name = 
REMARK  7 active torsions:
REMARK  status: ('A' for Active; 'I' for Inactive)
REMARK    1  A    between atoms: C_2  and  C_4
REMARK    2  A    between atoms: C_4  and  C_5
REMARK    3  A    between atoms: C_4  and  N_12
REMARK    4  A    between atoms: C_5  and  C_6
REMARK    5  A    between atoms: C_13  and  C_15
REMARK    6  A    between atoms: C_21  and  C_23
REMARK    7  A    between atoms: C_29  and  C_31
REMARK                            x       y       z     vdW  Elec       q    Type
REMARK                         _______ _______ _______ _____ _____    ______ ____
ROOT
ATOM     15  C   UNL     1      -2.674   0.727  24.610  0.00  0.00    +0.174 C 
ATOM     16  C   UNL     1      -1.936   1.049  24.431  0.00  0.00    +0.123 C 
ATOM     17  N   UNL     1      -1.332   0.565  24.145  0.00  0.00    -0.272 N 
ATOM     18  C   UNL     1      -1.466  -0.241  24.038  0.00  0.00    +0.115 C 
ATOM     19  C   UNL     1      -2.204  -0.565  24.217  0.00  0.00    +0.115 C 
ATOM     20  N   UNL     1      -2.808  -0.081  24.504  0.00  0.00    -0.270 N 
ATOM     21  C   UNL     1      -3.545  -0.403  24.683  0.00  0.00    +0.226 C 
ATOM     22  O   UNL     1      -4.148   0.081  24.969  0.00  0.00    -0.275 OA
ATOM     29  C   UNL     1      -0.595   0.888  23.965  0.00  0.00    +0.251 C 
ATOM     30  O   UNL     1      -0.460   1.695  24.072  0.00  0.00    -0.270 OA
ENDROOT
BRANCH  21  23
ATOM     23  C   UNL     1      -3.679  -1.211  24.576  0.00  0.00    +0.080 C 
ATOM     24  C   UNL     1      -4.075  -1.478  23.904  0.00  0.00    +0.028 C 
ATOM     25  C   UNL     1      -4.209  -2.284  23.797  0.00  0.00    +0.089 C 
ATOM     26  N   UNL     1      -3.947  -2.825  24.363  0.00  0.00    -0.218 NA
ATOM     27  C   UNL     1      -3.552  -2.558  25.036  0.00  0.00    +0.089 C 
ATOM     28  C   UNL     1      -3.417  -1.750  25.143  0.00  0.00    +0.028 C 
ENDBRANCH  21  23
BRANCH  29  31
ATOM     31  C   UNL     1       0.009   0.403  23.679  0.00  0.00    +0.073 A 
ATOM     32  C   UNL     1       0.367  -0.148  24.178  0.00  0.00    +0.103 A 
ATOM     33  N   UNL     1       0.970  -0.633  23.892  0.00  0.00    -0.242 NA
ATOM     34  C   UNL     1       1.216  -0.566  23.107  0.00  0.00    +0.099 A 
ATOM     35  C   UNL     1       0.858  -0.014  22.609  0.00  0.00    +0.021 A 
ATOM     36  C   UNL     1       0.255   0.470  22.895  0.00  0.00    +0.008 A 
ENDBRANCH  29  31
BRANCH  15  13
ATOM     12  N   UNL     1      -3.380   1.968  24.585  0.00  0.00    -0.196 NA
ATOM     13  C   UNL     1      -3.276   1.211  24.896  0.00  0.00    +0.262 C 
ATOM     14  O   UNL     1      -3.777   0.938  25.493  0.00  0.00    -0.271 OA
BRANCH  12   4
ATOM      4  C   UNL     1      -3.984   2.453  24.871  0.00  0.00    +0.174 C 
BRANCH   4   2
ATOM      1  N   UNL     1      -5.412   2.436  24.919  0.00  0.00    -0.086 NA
ATOM      2  C   UNL     1      -4.712   2.475  24.484  0.00  0.00    +0.281 C 
ATOM      3  O   UNL     1      -4.740   2.537  23.661  0.00  0.00    -0.270 OA
ENDBRANCH   4   2
BRANCH   4   5
ATOM      5  C   UNL     1      -3.859   2.913  25.543  0.00  0.00    +0.031 C 
BRANCH   5   6
ATOM      6  C   UNL     1      -3.335   3.551  25.515  0.00  0.00    +0.002 C 
ATOM      7  C   UNL     1      -2.835   3.703  26.154  0.00  0.00    +0.000 C 
ATOM      8  C   UNL     1      -2.311   4.340  26.125  0.00  0.00    +0.000 C 
ATOM      9  C   UNL     1      -2.288   4.826  25.458  0.00  0.00    +0.000 C 
ATOM     10  C   UNL     1      -2.788   4.673  24.820  0.00  0.00    +0.000 C 
ATOM     11  C   UNL     1      -3.312   4.036  24.849  0.00  0.00    +0.000 C 
ENDBRANCH   5   6
ENDBRANCH   4   5
ENDBRANCH  12   4
ENDBRANCH  15  13
TORSDOF 7
ENDMDL
MODEL 6
REMARK VINA RESULT:     -10.1      1.367      4.897
REMARK  Name = 
REMARK  7 active torsions:
REMARK  status: ('A' for Active; 'I' for Inactive)
REMARK    1  A    between atoms: C_2  and  C_4
REMARK    2  A    between atoms: C_4  and  C_5
REMARK    3  A    between atoms: C_4  and  N_12
REMARK    4  A    between atoms: C_5  and  C_6
REMARK    5  A    between atoms: C_13  and  C_15
REMARK    6  A    between atoms: C_21  and  C_23
REMARK    7  A    between atoms: C_29  and  C_31
REMARK                            x       y       z     vdW  Elec       q    Type
REMARK                         _______ _______ _______ _____ _____    ______ ____
ROOT
ATOM     15  C   UNL     1      -3.324   1.504  24.800  0.00  0.00    +0.174 C 
ATOM     16  C   UNL     1      -2.873   0.825  24.678  0.00  0.00    +0.123 C 
ATOM     17  N   UNL     1      -3.228   0.081  24.711  0.00  0.00    -0.272 N 
ATOM     18  C   UNL     1      -4.035   0.017  24.866  0.00  0.00    +0.115 C 
ATOM     19  C   UNL     1      -4.488   0.695  24.988  0.00  0.00    +0.115 C 
ATOM     20  N   UNL     1      -4.133   1.439  24.955  0.00  0.00    -0.270 N 
ATOM     21  C   UNL     1      -4.584   2.118  25.077  0.00  0.00    +0.226 C 
ATOM     22  O   UNL     1      -4.229   2.861  25.044  0.00  0.00    -0.275 OA
ATOM     29  C   UNL     1      -2.776  -0.597  24.588  0.00  0.00    +0.251 C 
ATOM     30  O   UNL     1      -1.968  -0.533  24.433  0.00  0.00    -0.270 OA
ENDROOT
BRANCH  21  23
ATOM     23  C   UNL     1      -5.393   2.053  25.233  0.00  0.00    +0.080 C 
ATOM     24  C   UNL     1      -5.926   1.959  24.610  0.00  0.00    +0.028 C 
ATOM     25  C   UNL     1      -6.733   1.894  24.766  0.00  0.00    +0.089 C 
ATOM     26  N   UNL     1      -7.008   1.924  25.543  0.00  0.00    -0.218 NA
ATOM     27  C   UNL     1      -6.475   2.018  26.166  0.00  0.00    +0.089 C 
ATOM     28  C   UNL     1      -5.666   2.083  26.010  0.00  0.00    +0.028 C 
ENDBRANCH  21  23
BRANCH  29  31
ATOM     31  C   UNL     1      -3.132  -1.342  24.621  0.00  0.00    +0.073 A 
ATOM     32  C   UNL     1      -3.099  -1.784  25.318  0.00  0.00    +0.103 A 
ATOM     33  N   UNL     1      -3.454  -2.528  25.350  0.00  0.00    -0.242 NA
ATOM     34  C   UNL     1      -3.843  -2.830  24.687  0.00  0.00    +0.099 A 
ATOM     35  C   UNL     1      -3.875  -2.387  23.992  0.00  0.00    +0.021 A 
ATOM     36  C   UNL     1      -3.519  -1.643  23.959  0.00  0.00    +0.008 A 
ENDBRANCH  29  31
BRANCH  15  13
ATOM     12  N   UNL     1      -2.368   2.441  25.299  0.00  0.00    -0.196 NA
ATOM     13  C   UNL     1      -2.969   2.247  24.767  0.00  0.00    +0.262 C 
ATOM     14  O   UNL     1      -3.214   2.797  24.203  0.00  0.00    -0.271 OA
BRANCH  12   4
ATOM      4  C   UNL     1      -2.013   3.185  25.266  0.00  0.00    +0.174 C 
BRANCH   4   2
ATOM      1  N   UNL     1      -2.410   4.547  25.441  0.00  0.00    -0.086 NA
ATOM      2  C   UNL     1      -2.285   3.794  25.752  0.00  0.00    +0.281 C 
ATOM      3  O   UNL     1      -2.432   3.648  26.552  0.00  0.00    -0.270 OA
ENDBRANCH   4   2
BRANCH   4   5
ATOM      5  C   UNL     1      -1.387   3.320  24.747  0.00  0.00    +0.031 C 
BRANCH   5   6
ATOM      6  C   UNL     1      -0.665   2.935  24.862  0.00  0.00    +0.002 C 
ATOM      7  C   UNL     1      -0.262   2.614  24.217  0.00  0.00    +0.000 C 
ATOM      8  C   UNL     1       0.459   2.229  24.332  0.00  0.00    +0.000 C 
ATOM      9  C   UNL     1       0.777   2.166  25.092  0.00  0.00    +0.000 C 
ATOM     10  C   UNL     1       0.373   2.488  25.735  0.00  0.00    +0.000 C 
ATOM     11  C   UNL     1      -0.348   2.872  25.620  0.00  0.00    +0.000 C 
ENDBRANCH   5   6
ENDBRANCH   4   5
ENDBRANCH  12   4
ENDBRANCH  15  13
TORSDOF 7
ENDMDL
MODEL 7
REMARK VINA RESULT:      -9.7      1.044      3.602
REMARK  Name = 
REMARK  7 active torsions:
REMARK  status: ('A' for Active; 'I' for Inactive)
REMARK    1  A    between atoms: C_2  and  C_4
REMARK    2  A    between atoms: C_4  and  C_5
REMARK    3  A    between atoms: C_4  and  N_12
REMARK    4  A    between atoms: C_5  and  C_6
REMARK    5  A    between atoms: C_13  and  C_15
REMARK    6  A    between atoms: C_21  and  C_23
REMARK    7  A    between atoms: C_29  and  C_31
REMARK                            x       y       z     vdW  Elec       q    Type
REMARK                         _______ _______ _______ _____ _____    ______ ____
ROOT
ATOM     15  C   UNL     1      -3.185   0.963  24.987  0.00  0.00    +0.174 C 
ATOM     16  C   UNL     1      -2.386   1.144  24.891  0.00  0.00    +0.123 C 
ATOM     17  N   UNL     1      -2.137   1.931  24.893  0.00  0.00    -0.272 N 
ATOM     18  C   UNL     1      -2.688   2.536  24.990  0.00  0.00    +0.115 C 
ATOM     19  C   UNL     1      -3.487   2.357  25.086  0.00  0.00    +0.115 C 
ATOM     20  N   UNL     1      -3.736   1.570  25.084  0.00  0.00    -0.270 N 
ATOM     21  C   UNL     1      -4.535   1.389  25.180  0.00  0.00    +0.226 C 
ATOM     22  O   UNL     1      -4.783   0.603  25.178  0.00  0.00    -0.275 OA
ATOM     29  C   UNL     1      -1.338   2.111  24.797  0.00  0.00    +0.251 C 
ATOM     30  O   UNL     1      -0.787   1.505  24.700  0.00  0.00    -0.270 OA
ENDROOT
BRANCH  21  23
ATOM     23  C   UNL     1      -5.086   1.996  25.277  0.00  0.00    +0.080 C 
ATOM     24  C   UNL     1      -5.262   2.276  26.033  0.00  0.00    +0.028 C 
ATOM     25  C   UNL     1      -5.813   2.882  26.130  0.00  0.00    +0.089 C 
ATOM     26  N   UNL     1      -6.188   3.209  25.471  0.00  0.00    -0.218 NA
ATOM     27  C   UNL     1      -6.011   2.929  24.716  0.00  0.00    +0.089 C 
ATOM     28  C   UNL     1      -5.460   2.322  24.618  0.00  0.00    +0.028 C 
ENDBRANCH  21  23
BRANCH  29  31
ATOM     31  C   UNL     1      -1.090   2.898  24.798  0.00  0.00    +0.073 A 
ATOM     32  C   UNL     1      -0.922   3.279  24.086  0.00  0.00    +0.103 A 
ATOM     33  N   UNL     1      -0.673   4.065  24.087  0.00  0.00    -0.242 NA
ATOM     34  C   UNL     1      -0.593   4.472  24.801  0.00  0.00    +0.099 A 
ATOM     35  C   UNL     1      -0.761   4.090  25.513  0.00  0.00    +0.021 A 
ATOM     36  C   UNL     1      -1.009   3.304  25.512  0.00  0.00    +0.008 A 
ENDBRANCH  29  31
BRANCH  15  13
ATOM     12  N   UNL     1      -3.136  -0.348  24.422  0.00  0.00    -0.196 NA
ATOM     13  C   UNL     1      -3.433   0.177  24.985  0.00  0.00    +0.262 C 
ATOM     14  O   UNL     1      -3.978  -0.085  25.546  0.00  0.00    -0.271 OA
BRANCH  12   4
ATOM      4  C   UNL     1      -3.385  -1.135  24.421  0.00  0.00    +0.174 C 
BRANCH   4   2
ATOM      1  N   UNL     1      -4.522  -1.931  24.082  0.00  0.00    -0.086 NA
ATOM      2  C   UNL     1      -3.938  -1.391  23.865  0.00  0.00    +0.281 C 
ATOM      3  O   UNL     1      -3.906  -1.106  23.090  0.00  0.00    -0.270 OA
ENDBRANCH   4   2
BRANCH   4   5
ATOM      5  C   UNL     1      -3.080  -1.664  24.974  0.00  0.00    +0.031 C 
BRANCH   5   6
ATOM      6  C   UNL     1      -2.323  -1.978  24.873  0.00  0.00    +0.002 C 
ATOM      7  C   UNL     1      -1.711  -1.750  25.377  0.00  0.00    +0.000 C 
ATOM      8  C   UNL     1      -0.955  -2.063  25.276  0.00  0.00    +0.000 C 
ATOM      9  C   UNL     1      -0.810  -2.605  24.669  0.00  0.00    +0.000 C 
ATOM     10  C   UNL     1      -1.422  -2.832  24.165  0.00  0.00    +0.000 C 
ATOM     11  C   UNL     1      -2.179  -2.519  24.267  0.00  0.00    +0.000 C 
ENDBRANCH   5   6
ENDBRANCH   4   5
ENDBRANCH  12   4
ENDBRANCH  15  13
TORSDOF 7
ENDMDL
