MODEL 1
REMARK VINA RESULT:     -15.1      0.000      0.000
REMARK  Name = 
REMARK  5 active torsions:
REMARK  status: ('A' for Active; 'I' for Inactive)
REMARK    1  A    between atoms: C_2  and  C_3
REMARK    2  A    between atoms: C_11  and  C_12
REMARK    3  A    between atoms: C_12  and  C_13
REMARK    4  A    between atoms: N_15  and  C_16
REMARK    5  A    between atoms: C_27  and  C_29
REMARK                            x       y       z     vdW  Elec       q    Type
REMARK                         _______ _______ _______ _____ _____    ______ ____
ROOT
ATOM      1  C   UNL     1      -2.966  -2.912  24.626  0.00  0.00    +0.005 C 
ATOM      2  C   UNL     1      -3.030  -2.097  24.523  0.00  0.00    +0.059 C 
ATOM      5  C   UNL     1      -3.755  -2.337  24.214  0.00  0.00    +0.154 C 
ATOM      6  O   UNL     1      -3.952  -3.138  24.198  0.00  0.00    -0.223 OA
ATOM      7  C   UNL     1      -4.286  -1.776  23.921  0.00  0.00    +0.033 C 
ATOM      8  C   UNL     1      -4.089  -0.975  23.938  0.00  0.00    +0.003 C 
ATOM      9  C   UNL     1      -3.364  -0.735  24.246  0.00  0.00    +0.006 C 
ATOM     10  C   UNL     1      -3.893  -0.175  23.954  0.00  0.00    +0.000 C 
ATOM     11  C   UNL     1      -3.167   0.066  24.263  0.00  0.00    +0.050 C 
ATOM     22  C   UNL     1      -2.441   0.307  24.571  0.00  0.00    +0.062 A 
ATOM     23  C   UNL     1      -1.911  -0.254  24.864  0.00  0.00    +0.022 A 
ATOM     24  C   UNL     1      -2.107  -1.055  24.847  0.00  0.00    +0.034 C 
ATOM     25  C   UNL     1      -2.833  -1.296  24.539  0.00  0.00    +0.010 C 
ATOM     26  S   UNL     1      -1.240   0.145  25.132  0.00  0.00    -0.071 S 
ATOM     27  C   UNL     1      -1.356   0.952  25.006  0.00  0.00    +0.111 A 
ATOM     28  N   UNL     1      -2.097   1.052  24.659  0.00  0.00    -0.243 NA
ENDROOT
BRANCH  27  29
ATOM     29  C   UNL     1      -0.823   1.553  25.194  0.00  0.00    +0.031 A 
ATOM     30  C   UNL     1      -0.205   1.820  24.717  0.00  0.00    +0.037 A 
ATOM     31  S   UNL     1       0.185   2.425  25.119  0.00  0.00    -0.086 S 
ATOM     32  C   UNL     1      -0.192   2.532  25.846  0.00  0.00    +0.036 A 
ATOM     33  C   UNL     1      -0.814   1.994  25.891  0.00  0.00    +0.010 A 
ENDBRANCH  27  29
BRANCH   2   3
ATOM      3  C   UNL     1      -2.281  -2.140  24.867  0.00  0.00    +0.184 C 
ATOM      4  O   UNL     1      -1.925  -2.874  24.990  0.00  0.00    -0.220 OA
ENDBRANCH   2   3
BRANCH  11  12
ATOM     12  C   UNL     1      -3.697   0.627  23.970  0.00  0.00    +0.093 C 
BRANCH  12  13
ATOM     13  C   UNL     1      -4.062   1.159  24.486  0.00  0.00    +0.246 C 
ATOM     14  O   UNL     1      -4.171   0.955  25.277  0.00  0.00    -0.273 OA
ATOM     15  N   UNL     1      -4.316   1.892  24.209  0.00  0.00    -0.179 NA
BRANCH  15  16
ATOM     16  C   UNL     1      -4.681   2.424  24.724  0.00  0.00    +0.073 A 
ATOM     17  C   UNL     1      -4.282   3.105  24.962  0.00  0.00    +0.017 A 
ATOM     18  C   UNL     1      -4.646   3.637  25.477  0.00  0.00    +0.001 A 
ATOM     19  C   UNL     1      -5.409   3.488  25.753  0.00  0.00    +0.000 A 
ATOM     20  C   UNL     1      -5.808   2.806  25.514  0.00  0.00    +0.001 A 
ATOM     21  C   UNL     1      -5.444   2.274  25.000  0.00  0.00    +0.017 A 
ENDBRANCH  15  16
ENDBRANCH  12  13
ENDBRANCH  11  12
TORSDOF 5
ENDMDL
MODEL 2
REMARK VINA RESULT:     -14.1      1.948      4.660
REMARK  Name = 
REMARK  5 active torsions:
REMARK  status: ('A' for Active; 'I' for Inactive)
REMARK    1  A    between atoms: C_2  and  C_3
REMARK    2  A    between atoms: C_11  and  C_12
REMARK    3  A    between atoms: C_12  and  C_13
REMARK    4  A    between atoms: N_15  and  C_16
REMARK    5  A    between atoms: C_27  and  C_29
REMARK                            x       y       z     vdW  Elec       q    Type
REMARK                         _______ _______ _______ _____ _____    ______ ____
ROOT
ATOM      1  C   UNL     1      -5.854   3.062  25.789  0.00  0.00    +0.005 C 
ATOM      2  C   UNL     1      -5.264   2.678  25.358  0.00  0.00    +0.059 C 
ATOM      5  C   UNL     1      -5.082   3.463  25.183  0.00  0.00    +0.154 C 
ATOM      6  O   UNL     1      -5.536   4.074  25.501  0.00  0.00    -0.223 OA
ATOM      7  C   UNL     1      -4.443   3.638  24.690  0.00  0.00    +0.033 C 
ATOM      8  C   UNL     1      -3.989   3.028  24.372  0.00  0.00    +0.003 C 
ATOM      9  C   UNL     1      -4.172   2.243  24.547  0.00  0.00    +0.006 C 
ATOM     10  C   UNL     1      -3.534   2.418  24.054  0.00  0.00    +0.000 C 
ATOM     11  C   UNL     1      -3.717   1.632  24.229  0.00  0.00    +0.050 C 
ATOM     22  C   UNL     1      -3.900   0.847  24.404  0.00  0.00    +0.062 A 
ATOM     23  C   UNL     1      -4.539   0.672  24.897  0.00  0.00    +0.022 A 
ATOM     24  C   UNL     1      -4.993   1.283  25.215  0.00  0.00    +0.034 C 
ATOM     25  C   UNL     1      -4.810   2.068  25.040  0.00  0.00    +0.010 C 
ATOM     26  S   UNL     1      -4.586  -0.148  24.970  0.00  0.00    -0.071 S 
ATOM     27  C   UNL     1      -3.978  -0.480  24.523  0.00  0.00    +0.111 A 
ATOM     28  N   UNL     1      -3.554   0.135  24.173  0.00  0.00    -0.243 NA
ENDROOT
BRANCH  27  29
ATOM     29  C   UNL     1      -3.821  -1.286  24.441  0.00  0.00    +0.031 A 
ATOM     30  C   UNL     1      -3.298  -1.728  24.900  0.00  0.00    +0.037 A 
ATOM     31  S   UNL     1      -3.313  -2.506  24.628  0.00  0.00    -0.086 S 
ATOM     32  C   UNL     1      -3.847  -2.545  23.999  0.00  0.00    +0.036 A 
ATOM     33  C   UNL     1      -4.160  -1.792  23.884  0.00  0.00    +0.010 A 
ENDBRANCH  27  29
BRANCH   2   3
ATOM      3  C   UNL     1      -5.652   2.027  25.683  0.00  0.00    +0.184 C 
ATOM      4  O   UNL     1      -6.267   2.139  26.222  0.00  0.00    -0.220 OA
ENDBRANCH   2   3
BRANCH  11  12
ATOM     12  C   UNL     1      -3.079   1.807  23.736  0.00  0.00    +0.093 C 
BRANCH  12  13
ATOM     13  C   UNL     1      -2.307   1.689  24.002  0.00  0.00    +0.246 C 
ATOM     14  O   UNL     1      -2.151   1.654  24.811  0.00  0.00    -0.273 OA
ATOM     15  N   UNL     1      -1.692   1.606  23.460  0.00  0.00    -0.179 NA
BRANCH  15  16
ATOM     16  C   UNL     1      -0.920   1.488  23.726  0.00  0.00    +0.073 A 
ATOM     17  C   UNL     1      -0.574   0.741  23.666  0.00  0.00    +0.017 A 
ATOM     18  C   UNL     1       0.199   0.622  23.932  0.00  0.00    +0.001 A 
ATOM     19  C   UNL     1       0.624   1.250  24.257  0.00  0.00    +0.000 A 
ATOM     20  C   UNL     1       0.277   1.996  24.316  0.00  0.00    +0.001 A 
ATOM     21  C   UNL     1      -0.494   2.115  24.051  0.00  0.00    +0.017 A 
ENDBRANCH  15  16
ENDBRANCH  12  13
ENDBRANCH  11  12
TORSDOF 5
ENDMDL
MODEL 3
REMARK VINA RESULT:     -13.8      1.389      3.314
REMARK  Name = 
REMARK  5 active torsions:
REMARK  status: ('A' for Active; 'I' for Inactive)
REMARK    1  A    between atoms: C_2  and  C_3
REMARK    2  A    between atoms: C_11  and  C_12
REMARK    3  A    between atoms: C_12  and  C_13
REMARK    4  A    between atoms: N_15  and  C_16
REMARK    5  A    between atoms: C_27  and  C_29
REMARK                            x       y       z     vdW  Elec       q    Type
REMARK                         _______ _______ _______ _____ _____    ______ ____
ROOT
ATOM      1  C   UNL     1      -3.823  -2.734  23.955  0.00  0.00    +0.005 C 
ATOM      2  C   UNL     1      -3.530  -2.039  24.288  0.00  0.00    +0.059 C 
ATOM      5  C   UNL     1      -2.881  -2.535  24.398  0.00  0.00    +0.154 C 
ATOM      6  O   UNL     1      -2.913  -3.320  24.144  0.00  0.00    -0.223 OA
ATOM      7  C   UNL     1      -2.199  -2.247  24.764  0.00  0.00    +0.033 C 
ATOM      8  C   UNL     1      -2.167  -1.464  25.018  0.00  0.00    +0.003 C 
ATOM      9  C   UNL     1      -2.816  -0.967  24.908  0.00  0.00    +0.006 C 
ATOM     10  C   UNL     1      -2.135  -0.680  25.272  0.00  0.00    +0.000 C 
ATOM     11  C   UNL     1      -2.784  -0.183  25.162  0.00  0.00    +0.050 C 
ATOM     22  C   UNL     1      -3.433   0.313  25.051  0.00  0.00    +0.062 A 
ATOM     23  C   UNL     1      -4.116   0.025  24.686  0.00  0.00    +0.022 A 
ATOM     24  C   UNL     1      -4.148  -0.758  24.432  0.00  0.00    +0.034 C 
ATOM     25  C   UNL     1      -3.498  -1.255  24.542  0.00  0.00    +0.010 C 
ATOM     26  S   UNL     1      -4.665   0.640  24.652  0.00  0.00    -0.071 S 
ATOM     27  C   UNL     1      -4.323   1.307  24.996  0.00  0.00    +0.111 A 
ATOM     28  N   UNL     1      -3.563   1.105  25.243  0.00  0.00    -0.243 NA
ENDROOT
BRANCH  27  29
ATOM     29  C   UNL     1      -4.680   2.047  25.079  0.00  0.00    +0.031 A 
ATOM     30  C   UNL     1      -5.238   2.255  25.650  0.00  0.00    +0.037 A 
ATOM     31  S   UNL     1      -5.444   3.044  25.530  0.00  0.00    -0.086 S 
ATOM     32  C   UNL     1      -5.012   3.324  24.884  0.00  0.00    +0.036 A 
ATOM     33  C   UNL     1      -4.541   2.708  24.607  0.00  0.00    +0.010 A 
ENDBRANCH  27  29
BRANCH   2   3
ATOM      3  C   UNL     1      -4.281  -1.784  24.062  0.00  0.00    +0.184 C 
ATOM      4  O   UNL     1      -4.784  -2.295  23.651  0.00  0.00    -0.220 OA
ENDBRANCH   2   3
BRANCH  11  12
ATOM     12  C   UNL     1      -2.103   0.105  25.527  0.00  0.00    +0.093 C 
BRANCH  12  13
ATOM     13  C   UNL     1      -1.655   0.693  25.160  0.00  0.00    +0.246 C 
ATOM     14  O   UNL     1      -1.662   0.764  24.338  0.00  0.00    -0.273 OA
ATOM     15  N   UNL     1      -1.201   1.209  25.614  0.00  0.00    -0.179 NA
BRANCH  15  16
ATOM     16  C   UNL     1      -0.753   1.797  25.248  0.00  0.00    +0.073 A 
ATOM     17  C   UNL     1      -0.964   2.590  25.337  0.00  0.00    +0.017 A 
ATOM     18  C   UNL     1      -0.516   3.179  24.970  0.00  0.00    +0.001 A 
ATOM     19  C   UNL     1       0.142   2.975  24.516  0.00  0.00    +0.000 A 
ATOM     20  C   UNL     1       0.352   2.181  24.429  0.00  0.00    +0.001 A 
ATOM     21  C   UNL     1      -0.095   1.593  24.794  0.00  0.00    +0.017 A 
ENDBRANCH  15  16
ENDBRANCH  12  13
ENDBRANCH  11  12
TORSDOF 5
ENDMDL
MODEL 4
REMARK VINA RESULT:     -13.7      1.274      4.091
REMARK  Name = 
REMARK  5 active torsions:
REMARK  status: ('A' for Active; 'I' for Inactive)
REMARK    1  A    between atoms: C_2  and  C_3
REMARK    2  A    between atoms: C_11  and  C_12
REMARK    3  A    between atoms: C_12  and  C_13
REMARK    4  A    between atoms: N_15  and  C_16
REMARK    5  A    between atoms: C_27  and  C_29
REMARK                            x       y       z     vdW  Elec       q    Type
REMARK                         _______ _______ _______ _____ _____    ______ ____
ROOT
ATOM      1  C   UNL     1      -4.846   3.779  25.940  0.00  0.00    +0.005 C 
ATOM      2  C   UNL     1      -4.522   3.152  25.513  0.00  0.00    +0.059 C 
ATOM      5  C   UNL     1      -5.323   2.974  25.442  0.00  0.00    +0.154 C 
ATOM      6  O   UNL     1      -5.888   3.463  25.792  0.00  0.00    -0.223 OA
ATOM      7  C   UNL     1      -5.562   2.305  25.019  0.00  0.00    +0.033 C 
ATOM      8  C   UNL     1      -4.998   1.816  24.669  0.00  0.00    +0.003 C 
ATOM      9  C   UNL     1      -4.197   1.994  24.741  0.00  0.00    +0.006 C 
ATOM     10  C   UNL     1      -4.435   1.327  24.319  0.00  0.00    +0.000 C 
ATOM     11  C   UNL     1      -3.632   1.504  24.391  0.00  0.00    +0.050 C 
ATOM     22  C   UNL     1      -2.830   1.682  24.462  0.00  0.00    +0.062 A 
ATOM     23  C   UNL     1      -2.592   2.350  24.884  0.00  0.00    +0.022 A 
ATOM     24  C   UNL     1      -3.155   2.840  25.234  0.00  0.00    +0.034 C 
ATOM     25  C   UNL     1      -3.958   2.662  25.163  0.00  0.00    +0.010 C 
ATOM     26  S   UNL     1      -1.767   2.385  24.861  0.00  0.00    -0.071 S 
ATOM     27  C   UNL     1      -1.496   1.739  24.426  0.00  0.00    +0.111 A 
ATOM     28  N   UNL     1      -2.153   1.305  24.179  0.00  0.00    -0.243 NA
ENDROOT
BRANCH  27  29
ATOM     29  C   UNL     1      -0.708   1.559  24.265  0.00  0.00    +0.031 A 
ATOM     30  C   UNL     1      -0.437   0.918  23.822  0.00  0.00    +0.037 A 
ATOM     31  S   UNL     1       0.386   0.951  23.802  0.00  0.00    -0.086 S 
ATOM     32  C   UNL     1       0.625   1.614  24.232  0.00  0.00    +0.036 A 
ATOM     33  C   UNL     1      -0.051   1.989  24.518  0.00  0.00    +0.010 A 
ENDBRANCH  27  29
BRANCH   2   3
ATOM      3  C   UNL     1      -3.832   3.547  25.733  0.00  0.00    +0.184 C 
ATOM      4  O   UNL     1      -3.875   4.212  26.221  0.00  0.00    -0.220 OA
ENDBRANCH   2   3
BRANCH  11  12
ATOM     12  C   UNL     1      -3.870   0.837  23.969  0.00  0.00    +0.093 C 
BRANCH  12  13
ATOM     13  C   UNL     1      -3.760   0.084  24.290  0.00  0.00    +0.246 C 
ATOM     14  O   UNL     1      -3.770  -0.020  25.108  0.00  0.00    -0.273 OA
ATOM     15  N   UNL     1      -3.640  -0.562  23.793  0.00  0.00    -0.179 NA
BRANCH  15  16
ATOM     16  C   UNL     1      -3.530  -1.314  24.113  0.00  0.00    +0.073 A 
ATOM     17  C   UNL     1      -4.150  -1.858  24.110  0.00  0.00    +0.017 A 
ATOM     18  C   UNL     1      -4.040  -2.611  24.430  0.00  0.00    +0.001 A 
ATOM     19  C   UNL     1      -3.310  -2.819  24.754  0.00  0.00    +0.000 A 
ATOM     20  C   UNL     1      -2.691  -2.274  24.757  0.00  0.00    +0.001 A 
ATOM     21  C   UNL     1      -2.800  -1.523  24.437  0.00  0.00    +0.017 A 
ENDBRANCH  15  16
ENDBRANCH  12  13
ENDBRANCH  11  12
TORSDOF 5
ENDMDL
MODEL 5
REMARK VINA RESULT:     -12.9      1.923      4.566
REMARK  Name = 
REMARK  5 active torsions:
REMARK  status: ('A' for Active; 'I' for Inactive)
REMARK    1  A    between atoms: C_2  and  C_3
REMARK    2  A    between atoms: C_11  and  C_12
REMARK    3  A    between atoms: C_12  and  C_13
REMARK    4  A    between atoms: N_15  and  C_16
REMARK    5  A    between atoms: C_27  and  C_29
REMARK                            x       y       z     vdW  Elec       q    Type
REMARK                         _______ _______ _______ _____ _____    ______ ____
ROOT
ATOM      1  C   UNL     1       0.119   2.844  24.178  0.00  0.00    +0.005 C 
ATOM      2  C   UNL     1      -0.475   2.338  24.447  0.00  0.00    +0.059 C 
ATOM      5  C   UNL     1       0.179   1.841  24.514  0.00  0.00    +0.154 C 
ATOM      6  O   UNL     1       0.929   2.112  24.301  0.00  0.00    -0.223 OA
ATOM      7  C   UNL     1       0.084   1.070  24.794  0.00  0.00    +0.033 C 
ATOM      8  C   UNL     1      -0.665   0.798  25.007  0.00  0.00    +0.003 C 
ATOM      9  C   UNL     1      -1.319   1.296  24.940  0.00  0.00    +0.006 C 
ATOM     10  C   UNL     1      -1.414   0.527  25.219  0.00  0.00    +0.000 C 
ATOM     11  C   UNL     1      -2.068   1.025  25.153  0.00  0.00    +0.050 C 
ATOM     22  C   UNL     1      -2.722   1.522  25.086  0.00  0.00    +0.062 A 
ATOM     23  C   UNL     1      -2.627   2.293  24.805  0.00  0.00    +0.022 A 
ATOM     24  C   UNL     1      -1.878   2.565  24.593  0.00  0.00    +0.034 C 
ATOM     25  C   UNL     1      -1.224   2.067  24.659  0.00  0.00    +0.010 C 
ATOM     26  S   UNL     1      -3.369   2.655  24.799  0.00  0.00    -0.071 S 
ATOM     27  C   UNL     1      -3.922   2.109  25.075  0.00  0.00    +0.111 A 
ATOM     28  N   UNL     1      -3.522   1.410  25.252  0.00  0.00    -0.243 NA
ENDROOT
BRANCH  27  29
ATOM     29  C   UNL     1      -4.732   2.240  25.160  0.00  0.00    +0.031 A 
ATOM     30  C   UNL     1      -5.089   2.729  25.720  0.00  0.00    +0.037 A 
ATOM     31  S   UNL     1      -5.904   2.696  25.605  0.00  0.00    -0.086 S 
ATOM     32  C   UNL     1      -6.052   2.186  24.973  0.00  0.00    +0.036 A 
ATOM     33  C   UNL     1      -5.328   1.905  24.698  0.00  0.00    +0.010 A 
ENDBRANCH  27  29
BRANCH   2   3
ATOM      3  C   UNL     1      -0.922   3.012  24.286  0.00  0.00    +0.184 C 
ATOM      4  O   UNL     1      -0.548   3.711  24.055  0.00  0.00    -0.220 OA
ENDBRANCH   2   3
BRANCH  11  12
ATOM     12  C   UNL     1      -2.164   0.254  25.433  0.00  0.00    +0.093 C 
BRANCH  12  13
ATOM     13  C   UNL     1      -2.530  -0.315  24.960  0.00  0.00    +0.246 C 
ATOM     14  O   UNL     1      -2.464  -0.273  24.139  0.00  0.00    -0.273 OA
ATOM     15  N   UNL     1      -2.963  -0.924  25.308  0.00  0.00    -0.179 NA
BRANCH  15  16
ATOM     16  C   UNL     1      -3.329  -1.492  24.836  0.00  0.00    +0.073 A 
ATOM     17  C   UNL     1      -3.004  -2.248  24.775  0.00  0.00    +0.017 A 
ATOM     18  C   UNL     1      -3.371  -2.817  24.303  0.00  0.00    +0.001 A 
ATOM     19  C   UNL     1      -4.061  -2.631  23.893  0.00  0.00    +0.000 A 
ATOM     20  C   UNL     1      -4.386  -1.874  23.954  0.00  0.00    +0.001 A 
ATOM     21  C   UNL     1      -4.020  -1.305  24.426  0.00  0.00    +0.017 A 
ENDBRANCH  15  16
ENDBRANCH  12  13
ENDBRANCH  11  12
TORSDOF 5
ENDMDL
