MODEL 1
REMARK VINA RESULT:     -13.1      0.000      0.000
REMARK  Name = 
REMARK  6 active torsions:
REMARK  status: ('A' for Active; 'I' for Inactive)
REMARK    1  A    between atoms: S_2  and  C_5
REMARK    2  A    between atoms: C_8  and  O_9
REMARK    3  A    between atoms: O_9  and  C_10
REMARK    4  A    between atoms: N_15  and  C_16
REMARK    5  A    between atoms: C_16  and  C_17
REMARK    6  A    between atoms: C_20  and  C_23
REMARK                            x       y       z     vdW  Elec       q    Type
REMARK                         _______ _______ _______ _____ _____    ______ ____
ROOT
ATOM     10  C   UNL     1      -3.807   3.571  25.040  0.00  0.00    +0.211 C 
ATOM     11  C   UNL     1      -4.168   3.905  25.703  0.00  0.00    +0.187 C 
ATOM     12  O   UNL     1      -4.878   3.694  26.064  0.00  0.00    -0.348 OA
ATOM     13  C   UNL     1      -5.406   3.096  25.851  0.00  0.00    +0.160 C 
ATOM     14  C   UNL     1      -5.351   2.561  25.225  0.00  0.00    +0.105 C 
ATOM     15  N   UNL     1      -4.756   2.493  24.657  0.00  0.00    -0.264 NA
ATOM     29  C   UNL     1      -4.070   2.942  24.576  0.00  0.00    +0.119 C 
ENDROOT
BRANCH  10   9
ATOM      9  O   UNL     1      -3.090   3.910  24.814  0.00  0.00    -0.475 OA
BRANCH   9   8
ATOM      5  C   UNL     1      -0.957   2.968  25.642  0.00  0.00    +0.106 A 
ATOM      6  C   UNL     1      -1.482   3.325  26.168  0.00  0.00    +0.021 A 
ATOM      7  C   UNL     1      -2.193   3.638  25.892  0.00  0.00    +0.038 A 
ATOM      8  C   UNL     1      -2.379   3.596  25.090  0.00  0.00    +0.139 A 
ATOM     30  C   UNL     1      -1.853   3.239  24.563  0.00  0.00    +0.038 A 
ATOM     31  C   UNL     1      -1.143   2.925  24.839  0.00  0.00    +0.021 A 
BRANCH   5   2
ATOM      1  C   UNL     1       0.466   2.340  26.194  0.00  0.00    +0.182 C 
ATOM      2  S   UNL     1      -0.246   2.654  25.918  0.00  0.00    +0.010 S 
ATOM      3  O   UNL     1       0.135   3.366  25.749  0.00  0.00    -0.169 OA
ATOM      4  O   UNL     1      -0.626   1.941  26.087  0.00  0.00    -0.169 OA
ENDBRANCH   5   2
ENDBRANCH   9   8
ENDBRANCH  10   9
BRANCH  15  16
ATOM     16  C   UNL     1      -4.863   1.896  24.097  0.00  0.00    +0.099 C 
BRANCH  16  17
ATOM     17  C   UNL     1      -4.599   1.131  24.256  0.00  0.00    -0.006 A 
ATOM     18  C   UNL     1      -3.964   0.818  23.830  0.00  0.00    -0.003 A 
ATOM     19  C   UNL     1      -3.700   0.052  23.989  0.00  0.00    -0.000 A 
ATOM     20  C   UNL     1      -4.070  -0.400  24.573  0.00  0.00    -0.000 A 
ATOM     21  C   UNL     1      -4.703  -0.087  24.997  0.00  0.00    -0.000 A 
ATOM     22  C   UNL     1      -4.967   0.679  24.839  0.00  0.00    -0.003 A 
BRANCH  20  23
ATOM     23  C   UNL     1      -3.805  -1.165  24.731  0.00  0.00    -0.000 A 
ATOM     24  C   UNL     1      -3.971  -1.776  24.202  0.00  0.00    -0.000 A 
ATOM     25  C   UNL     1      -3.705  -2.542  24.361  0.00  0.00    +0.000 A 
ATOM     26  C   UNL     1      -3.275  -2.695  25.047  0.00  0.00    +0.000 A 
ATOM     27  C   UNL     1      -3.109  -2.084  25.576  0.00  0.00    +0.000 A 
ATOM     28  C   UNL     1      -3.374  -1.318  25.417  0.00  0.00    -0.000 A 
ENDBRANCH  20  23
ENDBRANCH  16  17
ENDBRANCH  15  16
TORSDOF 6
ENDMDL
MODEL 2
REMARK VINA RESULT:     -12.6      1.671      3.355
REMARK  Name = 
REMARK  6 active torsions:
REMARK  status: ('A' for Active; 'I' for Inactive)
REMARK    1  A    between atoms: S_2  and  C_5
REMARK    2  A    between atoms: C_8  and  O_9
REMARK    3  A    between atoms: O_9  and  C_10
REMARK    4  A    between atoms: N_15  and  C_16
REMARK    5  A    between atoms: C_16  and  C_17
REMARK    6  A    between atoms: C_20  and  C_23
REMARK                            x       y       z     vdW  Elec       q    Type
REMARK                         _______ _______ _______ _____ _____    ______ ____
ROOT
ATOM     10  C   UNL     1      -1.376   3.199  24.932  0.00  0.00    +0.211 C 
ATOM     11  C   UNL     1      -1.069   3.569  25.603  0.00  0.00    +0.187 C 
ATOM     12  O   UNL     1      -0.462   3.313  26.098  0.00  0.00    -0.348 OA
ATOM     13  C   UNL     1      -0.011   2.623  26.046  0.00  0.00    +0.160 C 
ATOM     14  C   UNL     1      -0.057   2.021  25.485  0.00  0.00    +0.105 C 
ATOM     15  N   UNL     1      -0.565   1.958  24.838  0.00  0.00    -0.264 NA
ATOM     29  C   UNL     1      -1.151   2.483  24.592  0.00  0.00    +0.119 C 
ENDROOT
BRANCH  10   9
ATOM      9  O   UNL     1      -1.988   3.600  24.552  0.00  0.00    -0.475 OA
BRANCH   9   8
ATOM      5  C   UNL     1      -4.333   3.236  25.256  0.00  0.00    +0.106 A 
ATOM      6  C   UNL     1      -3.798   3.594  25.771  0.00  0.00    +0.021 A 
ATOM      7  C   UNL     1      -3.017   3.715  25.537  0.00  0.00    +0.038 A 
ATOM      8  C   UNL     1      -2.770   3.479  24.786  0.00  0.00    +0.139 A 
ATOM     30  C   UNL     1      -3.305   3.121  24.270  0.00  0.00    +0.038 A 
ATOM     31  C   UNL     1      -4.086   3.000  24.504  0.00  0.00    +0.021 A 
BRANCH   5   2
ATOM      1  C   UNL     1      -5.896   2.993  25.725  0.00  0.00    +0.182 C 
ATOM      2  S   UNL     1      -5.115   3.115  25.490  0.00  0.00    +0.010 S 
ATOM      3  O   UNL     1      -5.257   3.925  25.434  0.00  0.00    -0.169 OA
ATOM      4  O   UNL     1      -4.972   2.304  25.547  0.00  0.00    -0.169 OA
ENDBRANCH   5   2
ENDBRANCH   9   8
ENDBRANCH  10   9
BRANCH  15  16
ATOM     16  C   UNL     1      -0.473   1.280  24.375  0.00  0.00    +0.099 C 
BRANCH  16  17
ATOM     17  C   UNL     1      -0.968   0.631  24.493  0.00  0.00    -0.006 A 
ATOM     18  C   UNL     1      -1.547   0.447  23.934  0.00  0.00    -0.003 A 
ATOM     19  C   UNL     1      -2.042  -0.203  24.053  0.00  0.00    -0.000 A 
ATOM     20  C   UNL     1      -1.958  -0.668  24.729  0.00  0.00    -0.000 A 
ATOM     21  C   UNL     1      -1.380  -0.484  25.287  0.00  0.00    -0.000 A 
ATOM     22  C   UNL     1      -0.885   0.166  25.169  0.00  0.00    -0.003 A 
BRANCH  20  23
ATOM     23  C   UNL     1      -2.453  -1.317  24.846  0.00  0.00    -0.000 A 
ATOM     24  C   UNL     1      -3.153  -1.230  25.273  0.00  0.00    -0.000 A 
ATOM     25  C   UNL     1      -3.649  -1.880  25.391  0.00  0.00    +0.000 A 
ATOM     26  C   UNL     1      -3.444  -2.616  25.080  0.00  0.00    +0.000 A 
ATOM     27  C   UNL     1      -2.744  -2.703  24.653  0.00  0.00    +0.000 A 
ATOM     28  C   UNL     1      -2.248  -2.053  24.536  0.00  0.00    -0.000 A 
ENDBRANCH  20  23
ENDBRANCH  16  17
ENDBRANCH  15  16
TORSDOF 6
ENDMDL
MODEL 3
REMARK VINA RESULT:     -12.1      2.072      5.201
REMARK  Name = 
REMARK  6 active torsions:
REMARK  status: ('A' for Active; 'I' for Inactive)
REMARK    1  A    between atoms: S_2  and  C_5
REMARK    2  A    between atoms: C_8  and  O_9
REMARK    3  A    between atoms: O_9  and  C_10
REMARK    4  A    between atoms: N_15  and  C_16
REMARK    5  A    between atoms: C_16  and  C_17
REMARK    6  A    between atoms: C_20  and  C_23
REMARK                            x       y       z     vdW  Elec       q    Type
REMARK                         _______ _______ _______ _____ _____    ______ ____
ROOT
ATOM     10  C   UNL     1      -2.523  -0.412  24.669  0.00  0.00    +0.211 C 
ATOM     11  C   UNL     1      -2.593  -1.003  25.241  0.00  0.00    +0.187 C 
ATOM     12  O   UNL     1      -2.026  -1.268  25.778  0.00  0.00    -0.348 OA
ATOM     13  C   UNL     1      -1.249  -1.008  25.877  0.00  0.00    +0.160 C 
ATOM     14  C   UNL     1      -0.848  -0.419  25.462  0.00  0.00    +0.105 C 
ATOM     15  N   UNL     1      -1.124   0.057  24.846  0.00  0.00    -0.264 NA
ATOM     29  C   UNL     1      -1.870   0.059  24.494  0.00  0.00    +0.119 C 
ENDROOT
BRANCH  10   9
ATOM      9  O   UNL     1      -3.197  -0.275  24.213  0.00  0.00    -0.475 OA
BRANCH   9   8
ATOM      5  C   UNL     1      -4.870   1.395  24.944  0.00  0.00    +0.106 A 
ATOM      6  C   UNL     1      -4.748   0.712  25.388  0.00  0.00    +0.021 A 
ATOM      7  C   UNL     1      -4.191   0.155  25.145  0.00  0.00    +0.038 A 
ATOM      8  C   UNL     1      -3.755   0.282  24.456  0.00  0.00    +0.139 A 
ATOM     30  C   UNL     1      -3.877   0.966  24.011  0.00  0.00    +0.038 A 
ATOM     31  C   UNL     1      -4.434   1.522  24.254  0.00  0.00    +0.021 A 
BRANCH   5   2
ATOM      1  C   UNL     1      -5.986   2.509  25.431  0.00  0.00    +0.182 C 
ATOM      2  S   UNL     1      -5.428   1.952  25.188  0.00  0.00    +0.010 S 
ATOM      3  O   UNL     1      -6.029   1.496  24.854  0.00  0.00    -0.169 OA
ATOM      4  O   UNL     1      -4.827   2.409  25.521  0.00  0.00    -0.169 OA
ENDBRANCH   5   2
ENDBRANCH   9   8
ENDBRANCH  10   9
BRANCH  15  16
ATOM     16  C   UNL     1      -0.583   0.601  24.544  0.00  0.00    +0.099 C 
BRANCH  16  17
ATOM     17  C   UNL     1      -0.711   1.409  24.646  0.00  0.00    -0.006 A 
ATOM     18  C   UNL     1      -0.821   1.895  23.988  0.00  0.00    -0.003 A 
ATOM     19  C   UNL     1      -0.949   2.704  24.090  0.00  0.00    -0.000 A 
ATOM     20  C   UNL     1      -0.967   3.027  24.849  0.00  0.00    -0.000 A 
ATOM     21  C   UNL     1      -0.858   2.541  25.507  0.00  0.00    -0.000 A 
ATOM     22  C   UNL     1      -0.729   1.732  25.404  0.00  0.00    -0.003 A 
BRANCH  20  23
ATOM     23  C   UNL     1      -1.096   3.835  24.951  0.00  0.00    -0.000 A 
ATOM     24  C   UNL     1      -0.511   4.376  24.737  0.00  0.00    -0.000 A 
ATOM     25  C   UNL     1      -0.639   5.185  24.838  0.00  0.00    +0.000 A 
ATOM     26  C   UNL     1      -1.353   5.453  25.153  0.00  0.00    +0.000 A 
ATOM     27  C   UNL     1      -1.938   4.912  25.367  0.00  0.00    +0.000 A 
ATOM     28  C   UNL     1      -1.809   4.103  25.266  0.00  0.00    -0.000 A 
ENDBRANCH  20  23
ENDBRANCH  16  17
ENDBRANCH  15  16
TORSDOF 6
ENDMDL
