MODEL 1
REMARK VINA RESULT:      -8.3      0.000      0.000
REMARK  Name = 
REMARK  12 active torsions:
REMARK  status: ('A' for Active; 'I' for Inactive)
REMARK    1  A    between atoms: C_2  and  C_4
REMARK    2  A    between atoms: C_4  and  C_5
REMARK    3  A    between atoms: C_4  and  N_11
REMARK    4  A    between atoms: C_5  and  C_6
REMARK    5  A    between atoms: C_12  and  C_14
REMARK    6  A    between atoms: C_16  and  O_28
REMARK    7  A    between atoms: C_20  and  C_22
REMARK    8  A    between atoms: C_22  and  O_23
REMARK    9  A    between atoms: O_23  and  C_24
REMARK   10  A    between atoms: C_24  and  C_25
REMARK   11  A    between atoms: O_28  and  C_29
REMARK   12  A    between atoms: C_29  and  C_30
REMARK                            x       y       z     vdW  Elec       q    Type
REMARK                         _______ _______ _______ _____ _____    ______ ____
ROOT
ATOM     14  C   UNL     1      -1.128   0.323  24.382  0.00  0.00    +0.156 C 
ATOM     15  C   UNL     1      -1.774  -0.085  24.694  0.00  0.00    +0.059 C 
ATOM     16  C   UNL     1      -1.754  -0.908  24.748  0.00  0.00    +0.120 C 
ATOM     17  C   UNL     1      -1.088  -1.323  24.491  0.00  0.00    +0.051 C 
ATOM     18  C   UNL     1      -0.443  -0.914  24.180  0.00  0.00    +0.096 C 
ATOM     19  N   UNL     1      -0.463  -0.091  24.125  0.00  0.00    -0.271 N 
ATOM     20  C   UNL     1       0.182   0.317  23.814  0.00  0.00    +0.256 C 
ATOM     21  O   UNL     1       0.162   1.141  23.759  0.00  0.00    -0.272 OA
ENDROOT
BRANCH  14  12
ATOM     11  N   UNL     1      -1.605   1.584  24.857  0.00  0.00    -0.196 NA
ATOM     12  C   UNL     1      -1.148   1.147  24.327  0.00  0.00    +0.260 C 
ATOM     13  O   UNL     1      -0.712   1.531  23.743  0.00  0.00    -0.272 OA
BRANCH  11   4
ATOM      4  C   UNL     1      -1.625   2.407  24.803  0.00  0.00    +0.179 C 
BRANCH   4   2
ATOM      1  N   UNL     1      -0.740   3.512  24.999  0.00  0.00    -0.086 NA
ATOM      2  C   UNL     1      -1.154   2.866  25.302  0.00  0.00    +0.281 C 
ATOM      3  O   UNL     1      -1.096   2.678  26.102  0.00  0.00    -0.270 OA
ENDBRANCH   4   2
BRANCH   4   5
ATOM      5  C   UNL     1      -2.116   2.772  24.249  0.00  0.00    +0.064 C 
BRANCH   5   6
ATOM      6  C   UNL     1      -2.914   2.888  24.419  0.00  0.00    +0.010 A 
ATOM      7  C   UNL     1      -3.222   3.181  25.127  0.00  0.00    +0.003 A 
ATOM      8  C   UNL     1      -4.044   3.206  25.056  0.00  0.00    +0.007 A 
ATOM      9  C   UNL     1      -4.244   2.928  24.306  0.00  0.00    +0.035 A 
ATOM     10  S   UNL     1      -3.546   2.732  23.912  0.00  0.00    -0.091 S 
ENDBRANCH   5   6
ENDBRANCH   4   5
ENDBRANCH  11   4
ENDBRANCH  14  12
BRANCH  20  22
ATOM     22  C   UNL     1       0.848  -0.097  23.557  0.00  0.00    +0.228 C 
BRANCH  22  23
ATOM     23  O   UNL     1       1.409   0.277  23.083  0.00  0.00    -0.333 OA
BRANCH  23  24
ATOM     24  C   UNL     1       2.120  -0.103  22.905  0.00  0.00    +0.257 C 
BRANCH  24  25
ATOM     25  C   UNL     1       2.661   0.251  22.394  0.00  0.00    +0.394 C 
ATOM     26  O   UNL     1       2.634   0.088  21.586  0.00  0.00    -0.243 OA
ATOM     27  O   UNL     1       3.231   0.770  22.692  0.00  0.00    -0.243 OA
ENDBRANCH  24  25
ENDBRANCH  23  24
ENDBRANCH  22  23
ENDBRANCH  20  22
BRANCH  16  28
ATOM     28  O   UNL     1      -2.400  -1.317  25.060  0.00  0.00    -0.351 OA
BRANCH  28  29
ATOM     29  C   UNL     1      -2.836  -1.826  24.581  0.00  0.00    +0.168 C 
BRANCH  29  30
ATOM     30  C   UNL     1      -3.498  -2.213  24.884  0.00  0.00    +0.006 C 
ATOM     31  C   UNL     1      -3.899  -2.768  24.424  0.00  0.00    -0.002 C 
ENDBRANCH  29  30
ENDBRANCH  28  29
ENDBRANCH  16  28
TORSDOF 12
ENDMDL
MODEL 2
REMARK VINA RESULT:      -7.8      0.861      3.759
REMARK  Name = 
REMARK  12 active torsions:
REMARK  status: ('A' for Active; 'I' for Inactive)
REMARK    1  A    between atoms: C_2  and  C_4
REMARK    2  A    between atoms: C_4  and  C_5
REMARK    3  A    between atoms: C_4  and  N_11
REMARK    4  A    between atoms: C_5  and  C_6
REMARK    5  A    between atoms: C_12  and  C_14
REMARK    6  A    between atoms: C_16  and  O_28
REMARK    7  A    between atoms: C_20  and  C_22
REMARK    8  A    between atoms: C_22  and  O_23
REMARK    9  A    between atoms: O_23  and  C_24
REMARK   10  A    between atoms: C_24  and  C_25
REMARK   11  A    between atoms: O_28  and  C_29
REMARK   12  A    between atoms: C_29  and  C_30
REMARK                            x       y       z     vdW  Elec       q    Type
REMARK                         _______ _______ _______ _____ _____    ______ ____
ROOT
ATOM     14  C   UNL     1      -0.410   0.549  24.348  0.00  0.00    +0.156 C 
ATOM     15  C   UNL     1       0.217   0.821  23.886  0.00  0.00    +0.059 C 
ATOM     16  C   UNL     1       0.631   0.295  23.404  0.00  0.00    +0.120 C 
ATOM     17  C   UNL     1       0.418  -0.503  23.384  0.00  0.00    +0.051 C 
ATOM     18  C   UNL     1      -0.209  -0.773  23.847  0.00  0.00    +0.096 C 
ATOM     19  N   UNL     1      -0.623  -0.247  24.329  0.00  0.00    -0.271 N 
ATOM     20  C   UNL     1      -1.250  -0.518  24.791  0.00  0.00    +0.256 C 
ATOM     21  O   UNL     1      -1.665   0.009  25.274  0.00  0.00    -0.272 OA
ENDROOT
BRANCH  14  12
ATOM     11  N   UNL     1      -1.145   1.765  24.509  0.00  0.00    -0.196 NA
ATOM     12  C   UNL     1      -0.825   1.076  24.831  0.00  0.00    +0.260 C 
ATOM     13  O   UNL     1      -0.919   0.912  25.634  0.00  0.00    -0.272 OA
BRANCH  11   4
ATOM      4  C   UNL     1      -1.559   2.291  24.992  0.00  0.00    +0.179 C 
BRANCH   4   2
ATOM      1  N   UNL     1      -0.656   3.398  24.958  0.00  0.00    -0.086 NA
ATOM      2  C   UNL     1      -1.157   2.898  25.381  0.00  0.00    +0.281 C 
ATOM      3  O   UNL     1      -1.257   3.004  26.192  0.00  0.00    -0.270 OA
ENDBRANCH   4   2
BRANCH   4   5
ATOM      5  C   UNL     1      -2.376   2.211  25.085  0.00  0.00    +0.064 C 
BRANCH   5   6
ATOM      6  C   UNL     1      -2.889   2.606  24.576  0.00  0.00    +0.010 A 
ATOM      7  C   UNL     1      -2.983   2.458  23.769  0.00  0.00    +0.003 A 
ATOM      8  C   UNL     1      -3.552   2.980  23.478  0.00  0.00    +0.007 A 
ATOM      9  C   UNL     1      -3.810   3.451  24.105  0.00  0.00    +0.035 A 
ATOM     10  S   UNL     1      -3.400   3.220  24.783  0.00  0.00    -0.091 S 
ENDBRANCH   5   6
ENDBRANCH   4   5
ENDBRANCH  11   4
ENDBRANCH  14  12
BRANCH  20  22
ATOM     22  C   UNL     1      -1.463  -1.315  24.772  0.00  0.00    +0.228 C 
BRANCH  22  23
ATOM     23  O   UNL     1      -2.253  -1.533  24.863  0.00  0.00    -0.333 OA
BRANCH  23  24
ATOM     24  C   UNL     1      -2.486  -2.312  24.721  0.00  0.00    +0.257 C 
BRANCH  24  25
ATOM     25  C   UNL     1      -3.278  -2.526  24.792  0.00  0.00    +0.394 C 
ATOM     26  O   UNL     1      -3.770  -2.518  24.129  0.00  0.00    -0.243 OA
ATOM     27  O   UNL     1      -3.582  -2.748  25.527  0.00  0.00    -0.243 OA
ENDBRANCH  24  25
ENDBRANCH  23  24
ENDBRANCH  22  23
ENDBRANCH  20  22
BRANCH  16  28
ATOM     28  O   UNL     1       1.258   0.566  22.941  0.00  0.00    -0.351 OA
BRANCH  28  29
ATOM     29  C   UNL     1       1.999   0.209  23.000  0.00  0.00    +0.168 C 
BRANCH  29  30
ATOM     30  C   UNL     1       2.594   0.401  22.463  0.00  0.00    +0.006 C 
ATOM     31  C   UNL     1       3.367   0.519  22.727  0.00  0.00    -0.002 C 
ENDBRANCH  29  30
ENDBRANCH  28  29
ENDBRANCH  16  28
TORSDOF 12
ENDMDL
MODEL 3
REMARK VINA RESULT:      -7.8      2.367      4.363
REMARK  Name = 
REMARK  12 active torsions:
REMARK  status: ('A' for Active; 'I' for Inactive)
REMARK    1  A    between atoms: C_2  and  C_4
REMARK    2  A    between atoms: C_4  and  C_5
REMARK    3  A    between atoms: C_4  and  N_11
REMARK    4  A    between atoms: C_5  and  C_6
REMARK    5  A    between atoms: C_12  and  C_14
REMARK    6  A    between atoms: C_16  and  O_28
REMARK    7  A    between atoms: C_20  and  C_22
REMARK    8  A    between atoms: C_22  and  O_23
REMARK    9  A    between atoms: O_23  and  C_24
REMARK   10  A    between atoms: C_24  and  C_25
REMARK   11  A    between atoms: O_28  and  C_29
REMARK   12  A    between atoms: C_29  and  C_30
REMARK                            x       y       z     vdW  Elec       q    Type
REMARK                         _______ _______ _______ _____ _____    ______ ____
ROOT
ATOM     14  C   UNL     1      -3.544   1.464  24.967  0.00  0.00    +0.156 C 
ATOM     15  C   UNL     1      -4.065   2.100  24.910  0.00  0.00    +0.059 C 
ATOM     16  C   UNL     1      -4.880   1.968  24.926  0.00  0.00    +0.120 C 
ATOM     17  C   UNL     1      -5.172   1.200  25.000  0.00  0.00    +0.051 C 
ATOM     18  C   UNL     1      -4.649   0.564  25.057  0.00  0.00    +0.096 C 
ATOM     19  N   UNL     1      -3.835   0.696  25.041  0.00  0.00    -0.271 N 
ATOM     20  C   UNL     1      -3.314   0.060  25.098  0.00  0.00    +0.256 C 
ATOM     21  O   UNL     1      -2.498   0.192  25.081  0.00  0.00    -0.272 OA
ENDROOT
BRANCH  14  12
ATOM     11  N   UNL     1      -2.424   2.243  24.538  0.00  0.00    -0.196 NA
ATOM     12  C   UNL     1      -2.728   1.596  24.950  0.00  0.00    +0.260 C 
ATOM     13  O   UNL     1      -2.220   1.081  25.345  0.00  0.00    -0.272 OA
BRANCH  11   4
ATOM      4  C   UNL     1      -1.610   2.375  24.522  0.00  0.00    +0.179 C 
BRANCH   4   2
ATOM      1  N   UNL     1      -0.444   1.702  24.043  0.00  0.00    -0.086 NA
ATOM      2  C   UNL     1      -1.158   2.087  23.894  0.00  0.00    +0.281 C 
ATOM      3  O   UNL     1      -1.419   2.185  23.119  0.00  0.00    -0.270 OA
ENDBRANCH   4   2
BRANCH   4   5
ATOM      5  C   UNL     1      -1.247   2.794  25.133  0.00  0.00    +0.064 C 
BRANCH   5   6
ATOM      6  C   UNL     1      -1.237   3.618  25.119  0.00  0.00    +0.010 A 
ATOM      7  C   UNL     1      -1.818   4.116  25.429  0.00  0.00    +0.003 A 
ATOM      8  C   UNL     1      -1.584   4.896  25.293  0.00  0.00    +0.007 A 
ATOM      9  C   UNL     1      -0.859   4.880  24.899  0.00  0.00    +0.035 A 
ATOM     10  S   UNL     1      -0.645   4.090  24.792  0.00  0.00    -0.091 S 
ENDBRANCH   5   6
ENDBRANCH   4   5
ENDBRANCH  11   4
ENDBRANCH  14  12
BRANCH  20  22
ATOM     22  C   UNL     1      -3.605  -0.708  25.172  0.00  0.00    +0.228 C 
BRANCH  22  23
ATOM     23  O   UNL     1      -3.168  -1.345  24.885  0.00  0.00    -0.333 OA
BRANCH  23  24
ATOM     24  C   UNL     1      -3.405  -2.118  25.050  0.00  0.00    +0.257 C 
BRANCH  24  25
ATOM     25  C   UNL     1      -3.222  -2.727  24.526  0.00  0.00    +0.394 C 
ATOM     26  O   UNL     1      -2.435  -2.931  24.387  0.00  0.00    -0.243 OA
ATOM     27  O   UNL     1      -3.828  -3.135  24.140  0.00  0.00    -0.243 OA
ENDBRANCH  24  25
ENDBRANCH  23  24
ENDBRANCH  22  23
ENDBRANCH  20  22
BRANCH  16  28
ATOM     28  O   UNL     1      -5.402   2.605  24.869  0.00  0.00    -0.351 OA
BRANCH  28  29
ATOM     29  C   UNL     1      -5.429   3.171  25.467  0.00  0.00    +0.168 C 
BRANCH  29  30
ATOM     30  C   UNL     1      -5.957   3.803  25.414  0.00  0.00    +0.006 C 
ATOM     31  C   UNL     1      -5.750   4.541  25.719  0.00  0.00    -0.002 C 
ENDBRANCH  29  30
ENDBRANCH  28  29
ENDBRANCH  16  28
TORSDOF 12
ENDMDL
MODEL 4
REMARK VINA RESULT:      -7.8      2.169      4.084
REMARK  Name = 
REMARK  12 active torsions:
REMARK  status: ('A' for Active; 'I' for Inactive)
REMARK    1  A    between atoms: C_2  and  C_4
REMARK    2  A    between atoms: C_4  and  C_5
REMARK    3  A    between atoms: C_4  and  N_11
REMARK    4  A    between atoms: C_5  and  C_6
REMARK    5  A    between atoms: C_12  and  C_14
REMARK    6  A    between atoms: C_16  and  O_28
REMARK    7  A    between atoms: C_20  and  C_22
REMARK    8  A    between atoms: C_22  and  O_23
REMARK    9  A    between atoms: O_23  and  C_24
REMARK   10  A    between atoms: C_24  and  C_25
REMARK   11  A    between atoms: O_28  and  C_29
REMARK   12  A    between atoms: C_29  and  C_30
REMARK                            x       y       z     vdW  Elec       q    Type
REMARK                         _______ _______ _______ _____ _____    ______ ____
ROOT
ATOM     14  C   UNL     1      -2.049   1.276  24.510  0.00  0.00    +0.156 C 
ATOM     15  C   UNL     1      -1.479   1.797  24.800  0.00  0.00    +0.059 C 
ATOM     16  C   UNL     1      -0.800   1.504  25.165  0.00  0.00    +0.120 C 
ATOM     17  C   UNL     1      -0.690   0.689  25.238  0.00  0.00    +0.051 C 
ATOM     18  C   UNL     1      -1.260   0.169  24.947  0.00  0.00    +0.096 C 
ATOM     19  N   UNL     1      -1.939   0.462  24.583  0.00  0.00    -0.271 N 
ATOM     20  C   UNL     1      -2.509  -0.058  24.292  0.00  0.00    +0.256 C 
ATOM     21  O   UNL     1      -3.189   0.235  23.927  0.00  0.00    -0.272 OA
ENDROOT
BRANCH  14  12
ATOM     11  N   UNL     1      -3.180   2.150  24.520  0.00  0.00    -0.196 NA
ATOM     12  C   UNL     1      -2.729   1.570  24.145  0.00  0.00    +0.260 C 
ATOM     13  O   UNL     1      -2.957   1.283  23.406  0.00  0.00    -0.272 OA
BRANCH  11   4
ATOM      4  C   UNL     1      -3.860   2.443  24.156  0.00  0.00    +0.179 C 
BRANCH   4   2
ATOM      1  N   UNL     1      -3.441   3.783  23.887  0.00  0.00    -0.086 NA
ATOM      2  C   UNL     1      -3.807   3.086  23.640  0.00  0.00    +0.281 C 
ATOM      3  O   UNL     1      -4.120   3.031  22.880  0.00  0.00    -0.270 OA
ENDBRANCH   4   2
BRANCH   4   5
ATOM      5  C   UNL     1      -4.593   2.094  24.307  0.00  0.00    +0.064 C 
BRANCH   5   6
ATOM      6  C   UNL     1      -5.027   2.317  24.971  0.00  0.00    +0.010 A 
ATOM      7  C   UNL     1      -4.918   3.007  25.412  0.00  0.00    +0.003 A 
ATOM      8  C   UNL     1      -5.470   3.006  26.025  0.00  0.00    +0.007 A 
ATOM      9  C   UNL     1      -5.920   2.317  25.963  0.00  0.00    +0.035 A 
ATOM     10  S   UNL     1      -5.646   1.892  25.311  0.00  0.00    -0.091 S 
ENDBRANCH   5   6
ENDBRANCH   4   5
ENDBRANCH  11   4
ENDBRANCH  14  12
BRANCH  20  22
ATOM     22  C   UNL     1      -2.399  -0.873  24.365  0.00  0.00    +0.228 C 
BRANCH  22  23
ATOM     23  O   UNL     1      -3.049  -1.380  24.350  0.00  0.00    -0.333 OA
BRANCH  23  24
ATOM     24  C   UNL     1      -2.936  -2.197  24.323  0.00  0.00    +0.257 C 
BRANCH  24  25
ATOM     25  C   UNL     1      -3.548  -2.706  24.537  0.00  0.00    +0.394 C 
ATOM     26  O   UNL     1      -4.124  -2.916  23.984  0.00  0.00    -0.243 OA
ATOM     27  O   UNL     1      -3.586  -3.006  25.306  0.00  0.00    -0.243 OA
ENDBRANCH  24  25
ENDBRANCH  23  24
ENDBRANCH  22  23
ENDBRANCH  20  22
BRANCH  16  28
ATOM     28  O   UNL     1      -0.230   2.025  25.456  0.00  0.00    -0.351 OA
BRANCH  28  29
ATOM     29  C   UNL     1      -0.164   2.152  26.268  0.00  0.00    +0.168 C 
BRANCH  29  30
ATOM     30  C   UNL     1       0.385   2.696  26.557  0.00  0.00    +0.006 C 
ATOM     31  C   UNL     1       0.629   2.657  27.344  0.00  0.00    -0.002 C 
ENDBRANCH  29  30
ENDBRANCH  28  29
ENDBRANCH  16  28
TORSDOF 12
ENDMDL
MODEL 5
REMARK VINA RESULT:      -7.8      1.696      3.831
REMARK  Name = 
REMARK  12 active torsions:
REMARK  status: ('A' for Active; 'I' for Inactive)
REMARK    1  A    between atoms: C_2  and  C_4
REMARK    2  A    between atoms: C_4  and  C_5
REMARK    3  A    between atoms: C_4  and  N_11
REMARK    4  A    between atoms: C_5  and  C_6
REMARK    5  A    between atoms: C_12  and  C_14
REMARK    6  A    between atoms: C_16  and  O_28
REMARK    7  A    between atoms: C_20  and  C_22
REMARK    8  A    between atoms: C_22  and  O_23
REMARK    9  A    between atoms: O_23  and  C_24
REMARK   10  A    between atoms: C_24  and  C_25
REMARK   11  A    between atoms: O_28  and  C_29
REMARK   12  A    between atoms: C_29  and  C_30
REMARK                            x       y       z     vdW  Elec       q    Type
REMARK                         _______ _______ _______ _____ _____    ______ ____
ROOT
ATOM     14  C   UNL     1      -2.215   0.958  24.441  0.00  0.00    +0.156 C 
ATOM     15  C   UNL     1      -2.861   1.471  24.418  0.00  0.00    +0.059 C 
ATOM     16  C   UNL     1      -2.799   2.194  24.025  0.00  0.00    +0.120 C 
ATOM     17  C   UNL     1      -2.091   2.404  23.656  0.00  0.00    +0.051 C 
ATOM     18  C   UNL     1      -1.446   1.890  23.681  0.00  0.00    +0.096 C 
ATOM     19  N   UNL     1      -1.508   1.167  24.073  0.00  0.00    -0.271 N 
ATOM     20  C   UNL     1      -0.863   0.655  24.097  0.00  0.00    +0.256 C 
ATOM     21  O   UNL     1      -0.926  -0.069  24.490  0.00  0.00    -0.272 OA
ENDROOT
BRANCH  14  12
ATOM     11  N   UNL     1      -2.972  -0.209  24.774  0.00  0.00    -0.196 NA
ATOM     12  C   UNL     1      -2.278   0.234  24.834  0.00  0.00    +0.260 C 
ATOM     13  O   UNL     1      -1.648  -0.045  25.286  0.00  0.00    -0.272 OA
BRANCH  11   4
ATOM      4  C   UNL     1      -3.034  -0.931  25.167  0.00  0.00    +0.179 C 
BRANCH   4   2
ATOM      1  N   UNL     1      -2.874  -1.352  26.523  0.00  0.00    -0.086 NA
ATOM      2  C   UNL     1      -3.309  -0.957  25.945  0.00  0.00    +0.281 C 
ATOM      3  O   UNL     1      -4.019  -0.587  26.143  0.00  0.00    -0.270 OA
ENDBRANCH   4   2
BRANCH   4   5
ATOM      5  C   UNL     1      -2.821  -1.630  24.782  0.00  0.00    +0.064 C 
BRANCH   5   6
ATOM      6  C   UNL     1      -3.388  -2.061  24.367  0.00  0.00    +0.010 A 
ATOM      7  C   UNL     1      -3.975  -1.747  23.879  0.00  0.00    +0.003 A 
ATOM      8  C   UNL     1      -4.418  -2.375  23.577  0.00  0.00    +0.007 A 
ATOM      9  C   UNL     1      -4.105  -3.076  23.878  0.00  0.00    +0.035 A 
ATOM     10  S   UNL     1      -3.468  -2.882  24.366  0.00  0.00    -0.091 S 
ENDBRANCH   5   6
ENDBRANCH   4   5
ENDBRANCH  11   4
ENDBRANCH  14  12
BRANCH  20  22
ATOM     22  C   UNL     1      -0.155   0.864  23.729  0.00  0.00    +0.228 C 
BRANCH  22  23
ATOM     23  O   UNL     1       0.347   0.279  23.436  0.00  0.00    -0.333 OA
BRANCH  23  24
ATOM     24  C   UNL     1       1.087   0.482  23.134  0.00  0.00    +0.257 C 
BRANCH  24  25
ATOM     25  C   UNL     1       1.521  -0.068  22.699  0.00  0.00    +0.394 C 
ATOM     26  O   UNL     1       2.231  -0.363  22.997  0.00  0.00    -0.243 OA
ATOM     27  O   UNL     1       1.244  -0.323  21.964  0.00  0.00    -0.243 OA
ENDBRANCH  24  25
ENDBRANCH  23  24
ENDBRANCH  22  23
ENDBRANCH  20  22
BRANCH  16  28
ATOM     28  O   UNL     1      -3.445   2.708  24.001  0.00  0.00    -0.351 OA
BRANCH  28  29
ATOM     29  C   UNL     1      -3.645   3.150  24.667  0.00  0.00    +0.168 C 
BRANCH  29  30
ATOM     30  C   UNL     1      -4.349   3.580  24.681  0.00  0.00    +0.006 C 
ATOM     31  C   UNL     1      -4.633   3.883  25.393  0.00  0.00    -0.002 C 
ENDBRANCH  29  30
ENDBRANCH  28  29
ENDBRANCH  16  28
TORSDOF 12
ENDMDL
MODEL 6
REMARK VINA RESULT:      -7.8      1.788      4.447
REMARK  Name = 
REMARK  12 active torsions:
REMARK  status: ('A' for Active; 'I' for Inactive)
REMARK    1  A    between atoms: C_2  and  C_4
REMARK    2  A    between atoms: C_4  and  C_5
REMARK    3  A    between atoms: C_4  and  N_11
REMARK    4  A    between atoms: C_5  and  C_6
REMARK    5  A    between atoms: C_12  and  C_14
REMARK    6  A    between atoms: C_16  and  O_28
REMARK    7  A    between atoms: C_20  and  C_22
REMARK    8  A    between atoms: C_22  and  O_23
REMARK    9  A    between atoms: O_23  and  C_24
REMARK   10  A    between atoms: C_24  and  C_25
REMARK   11  A    between atoms: O_28  and  C_29
REMARK   12  A    between atoms: C_29  and  C_30
REMARK                            x       y       z     vdW  Elec       q    Type
REMARK                         _______ _______ _______ _____ _____    ______ ____
ROOT
ATOM     14  C   UNL     1      -1.221   0.802  24.540  0.00  0.00    +0.156 C 
ATOM     15  C   UNL     1      -0.796   0.252  24.095  0.00  0.00    +0.059 C 
ATOM     16  C   UNL     1      -0.038   0.437  23.828  0.00  0.00    +0.120 C 
ATOM     17  C   UNL     1       0.295   1.172  24.004  0.00  0.00    +0.051 C 
ATOM     18  C   UNL     1      -0.131   1.720  24.448  0.00  0.00    +0.096 C 
ATOM     19  N   UNL     1      -0.890   1.536  24.716  0.00  0.00    -0.271 N 
ATOM     20  C   UNL     1      -1.315   2.085  25.160  0.00  0.00    +0.256 C 
ATOM     21  O   UNL     1      -2.074   1.900  25.428  0.00  0.00    -0.272 OA
ENDROOT
BRANCH  14  12
ATOM     11  N   UNL     1      -2.496   0.192  24.323  0.00  0.00    -0.196 NA
ATOM     12  C   UNL     1      -1.980   0.617  24.807  0.00  0.00    +0.260 C 
ATOM     13  O   UNL     1      -2.222   0.857  25.558  0.00  0.00    -0.272 OA
BRANCH  11   4
ATOM      4  C   UNL     1      -3.254   0.007  24.591  0.00  0.00    +0.179 C 
BRANCH   4   2
ATOM      1  N   UNL     1      -4.479   0.674  24.903  0.00  0.00    -0.086 NA
ATOM      2  C   UNL     1      -3.899   0.466  24.355  0.00  0.00    +0.281 C 
ATOM      3  O   UNL     1      -3.962   0.716  23.572  0.00  0.00    -0.270 OA
ENDBRANCH   4   2
BRANCH   4   5
ATOM      5  C   UNL     1      -3.369  -0.637  25.095  0.00  0.00    +0.064 C 
BRANCH   5   6
ATOM      6  C   UNL     1      -3.497  -1.388  24.781  0.00  0.00    +0.010 A 
ATOM      7  C   UNL     1      -3.962  -1.566  24.123  0.00  0.00    +0.003 A 
ATOM      8  C   UNL     1      -3.936  -2.382  24.004  0.00  0.00    +0.007 A 
ATOM      9  C   UNL     1      -3.454  -2.709  24.590  0.00  0.00    +0.035 A 
ATOM     10  S   UNL     1      -3.183  -2.094  25.069  0.00  0.00    -0.091 S 
ENDBRANCH   5   6
ENDBRANCH   4   5
ENDBRANCH  11   4
ENDBRANCH  14  12
BRANCH  20  22
ATOM     22  C   UNL     1      -0.983   2.819  25.337  0.00  0.00    +0.228 C 
BRANCH  22  23
ATOM     23  O   UNL     1      -1.457   3.494  25.350  0.00  0.00    -0.333 OA
BRANCH  23  24
ATOM     24  C   UNL     1      -1.111   4.241  25.413  0.00  0.00    +0.257 C 
BRANCH  24  25
ATOM     25  C   UNL     1      -1.574   4.918  25.337  0.00  0.00    +0.394 C 
ATOM     26  O   UNL     1      -2.347   4.925  25.626  0.00  0.00    -0.243 OA
ATOM     27  O   UNL     1      -1.265   5.591  24.972  0.00  0.00    -0.243 OA
ENDBRANCH  24  25
ENDBRANCH  23  24
ENDBRANCH  22  23
ENDBRANCH  20  22
BRANCH  16  28
ATOM     28  O   UNL     1       0.389  -0.113  23.383  0.00  0.00    -0.351 OA
BRANCH  28  29
ATOM     29  C   UNL     1       1.072   0.120  22.985  0.00  0.00    +0.168 C 
BRANCH  29  30
ATOM     30  C   UNL     1       1.425  -0.388  22.439  0.00  0.00    +0.006 C 
ATOM     31  C   UNL     1       2.164  -0.204  22.122  0.00  0.00    -0.002 C 
ENDBRANCH  29  30
ENDBRANCH  28  29
ENDBRANCH  16  28
TORSDOF 12
ENDMDL
MODEL 7
REMARK VINA RESULT:      -7.7      1.476      3.360
REMARK  Name = 
REMARK  12 active torsions:
REMARK  status: ('A' for Active; 'I' for Inactive)
REMARK    1  A    between atoms: C_2  and  C_4
REMARK    2  A    between atoms: C_4  and  C_5
REMARK    3  A    between atoms: C_4  and  N_11
REMARK    4  A    between atoms: C_5  and  C_6
REMARK    5  A    between atoms: C_12  and  C_14
REMARK    6  A    between atoms: C_16  and  O_28
REMARK    7  A    between atoms: C_20  and  C_22
REMARK    8  A    between atoms: C_22  and  O_23
REMARK    9  A    between atoms: O_23  and  C_24
REMARK   10  A    between atoms: C_24  and  C_25
REMARK   11  A    between atoms: O_28  and  C_29
REMARK   12  A    between atoms: C_29  and  C_30
REMARK                            x       y       z     vdW  Elec       q    Type
REMARK                         _______ _______ _______ _____ _____    ______ ____
ROOT
ATOM     14  C   UNL     1      -1.312   1.622  24.595  0.00  0.00    +0.156 C 
ATOM     15  C   UNL     1      -1.486   2.334  24.975  0.00  0.00    +0.059 C 
ATOM     16  C   UNL     1      -0.878   2.856  25.170  0.00  0.00    +0.120 C 
ATOM     17  C   UNL     1      -0.096   2.666  24.986  0.00  0.00    +0.051 C 
ATOM     18  C   UNL     1       0.077   1.954  24.606  0.00  0.00    +0.096 C 
ATOM     19  N   UNL     1      -0.532   1.432  24.411  0.00  0.00    -0.271 N 
ATOM     20  C   UNL     1      -0.358   0.721  24.032  0.00  0.00    +0.256 C 
ATOM     21  O   UNL     1      -0.967   0.199  23.836  0.00  0.00    -0.272 OA
ENDROOT
BRANCH  14  12
ATOM     11  N   UNL     1      -2.546   0.979  24.925  0.00  0.00    -0.196 NA
ATOM     12  C   UNL     1      -1.921   1.099  24.400  0.00  0.00    +0.260 C 
ATOM     13  O   UNL     1      -1.905   0.698  23.680  0.00  0.00    -0.272 OA
BRANCH  11   4
ATOM      4  C   UNL     1      -3.154   0.457  24.730  0.00  0.00    +0.179 C 
BRANCH   4   2
ATOM      1  N   UNL     1      -3.309  -0.944  24.497  0.00  0.00    -0.086 NA
ATOM      2  C   UNL     1      -3.136  -0.320  25.008  0.00  0.00    +0.281 C 
ATOM      3  O   UNL     1      -2.946  -0.473  25.795  0.00  0.00    -0.270 OA
ENDBRANCH   4   2
BRANCH   4   5
ATOM      5  C   UNL     1      -3.781   0.712  24.257  0.00  0.00    +0.064 C 
BRANCH   5   6
ATOM      6  C   UNL     1      -4.392   1.155  24.586  0.00  0.00    +0.010 A 
ATOM      7  C   UNL     1      -4.901   0.908  25.187  0.00  0.00    +0.003 A 
ATOM      8  C   UNL     1      -5.427   1.525  25.346  0.00  0.00    +0.007 A 
ATOM      9  C   UNL     1      -5.243   2.152  24.842  0.00  0.00    +0.035 A 
ATOM     10  S   UNL     1      -4.603   1.923  24.373  0.00  0.00    -0.091 S 
ENDBRANCH   5   6
ENDBRANCH   4   5
ENDBRANCH  11   4
ENDBRANCH  14  12
BRANCH  20  22
ATOM     22  C   UNL     1       0.423   0.531  23.847  0.00  0.00    +0.228 C 
BRANCH  22  23
ATOM     23  O   UNL     1       0.598   0.144  23.140  0.00  0.00    -0.333 OA
BRANCH  23  24
ATOM     24  C   UNL     1       1.325  -0.236  23.046  0.00  0.00    +0.257 C 
BRANCH  24  25
ATOM     25  C   UNL     1       1.734  -0.173  22.333  0.00  0.00    +0.394 C 
ATOM     26  O   UNL     1       1.381  -0.425  21.630  0.00  0.00    -0.243 OA
ATOM     27  O   UNL     1       2.497   0.143  22.321  0.00  0.00    -0.243 OA
ENDBRANCH  24  25
ENDBRANCH  23  24
ENDBRANCH  22  23
ENDBRANCH  20  22
BRANCH  16  28
ATOM     28  O   UNL     1      -1.051   3.568  25.550  0.00  0.00    -0.351 OA
BRANCH  28  29
ATOM     29  C   UNL     1      -1.141   4.259  25.110  0.00  0.00    +0.168 C 
BRANCH  29  30
ATOM     30  C   UNL     1      -1.571   4.892  25.418  0.00  0.00    +0.006 C 
ATOM     31  C   UNL     1      -1.548   5.627  25.045  0.00  0.00    -0.002 C 
ENDBRANCH  29  30
ENDBRANCH  28  29
ENDBRANCH  16  28
TORSDOF 12
ENDMDL
MODEL 8
REMARK VINA RESULT:      -7.7     14.329     16.386
REMARK  Name = 
REMARK  12 active torsions:
REMARK  status: ('A' for Active; 'I' for Inactive)
REMARK    1  A    between atoms: C_2  and  C_4
REMARK    2  A    between atoms: C_4  and  C_5
REMARK    3  A    between atoms: C_4  and  N_11
REMARK    4  A    between atoms: C_5  and  C_6
REMARK    5  A    between atoms: C_12  and  C_14
REMARK    6  A    between atoms: C_16  and  O_28
REMARK    7  A    between atoms: C_20  and  C_22
REMARK    8  A    between atoms: C_22  and  O_23
REMARK    9  A    between atoms: O_23  and  C_24
REMARK   10  A    between atoms: C_24  and  C_25
REMARK   11  A    between atoms: O_28  and  C_29
REMARK   12  A    between atoms: C_29  and  C_30
REMARK                            x       y       z     vdW  Elec       q    Type
REMARK                         _______ _______ _______ _____ _____    ______ ____
ROOT
ATOM     14  C   UNL     1      13.196   7.130  19.405  0.00  0.00    +0.156 C 
ATOM     15  C   UNL     1      13.934   7.022  19.760  0.00  0.00    +0.059 C 
ATOM     16  C   UNL     1      14.621   7.229  19.353  0.00  0.00    +0.120 C 
ATOM     17  C   UNL     1      14.571   7.543  18.591  0.00  0.00    +0.051 C 
ATOM     18  C   UNL     1      13.833   7.650  18.238  0.00  0.00    +0.096 C 
ATOM     19  N   UNL     1      13.146   7.444  18.645  0.00  0.00    -0.271 N 
ATOM     20  C   UNL     1      12.409   7.551  18.291  0.00  0.00    +0.256 C 
ATOM     21  O   UNL     1      11.721   7.345  18.699  0.00  0.00    -0.272 OA
ENDROOT
BRANCH  14  12
ATOM     11  N   UNL     1      12.414   7.146  20.602  0.00  0.00    -0.196 NA
ATOM     12  C   UNL     1      12.508   6.924  19.813  0.00  0.00    +0.260 C 
ATOM     13  O   UNL     1      11.916   6.495  19.432  0.00  0.00    -0.272 OA
BRANCH  11   4
ATOM      4  C   UNL     1      11.727   6.940  21.009  0.00  0.00    +0.179 C 
BRANCH   4   2
ATOM      1  N   UNL     1      10.987   5.744  21.259  0.00  0.00    -0.086 NA
ATOM      2  C   UNL     1      11.666   6.198  21.368  0.00  0.00    +0.281 C 
ATOM      3  O   UNL     1      12.284   5.913  21.832  0.00  0.00    -0.270 OA
ENDBRANCH   4   2
BRANCH   4   5
ATOM      5  C   UNL     1      11.100   7.475  21.059  0.00  0.00    +0.064 C 
BRANCH   5   6
ATOM      6  C   UNL     1      11.085   8.037  21.661  0.00  0.00    +0.010 A 
ATOM      7  C   UNL     1      11.616   8.662  21.754  0.00  0.00    +0.003 A 
ATOM      8  C   UNL     1      11.395   9.086  22.428  0.00  0.00    +0.007 A 
ATOM      9  C   UNL     1      10.728   8.722  22.750  0.00  0.00    +0.035 A 
ATOM     10  S   UNL     1      10.537   8.074  22.276  0.00  0.00    -0.091 S 
ENDBRANCH   5   6
ENDBRANCH   4   5
ENDBRANCH  11   4
ENDBRANCH  14  12
BRANCH  20  22
ATOM     22  C   UNL     1      12.359   7.865  17.529  0.00  0.00    +0.228 C 
BRANCH  22  23
ATOM     23  O   UNL     1      11.622   8.048  17.206  0.00  0.00    -0.333 OA
BRANCH  23  24
ATOM     24  C   UNL     1      11.573   8.516  16.529  0.00  0.00    +0.257 C 
BRANCH  24  25
ATOM     25  C   UNL     1      10.853   8.599  16.135  0.00  0.00    +0.394 C 
ATOM     26  O   UNL     1      10.163   8.295  16.469  0.00  0.00    -0.243 OA
ATOM     27  O   UNL     1      10.823   8.986  15.407  0.00  0.00    -0.243 OA
ENDBRANCH  24  25
ENDBRANCH  23  24
ENDBRANCH  22  23
ENDBRANCH  20  22
BRANCH  16  28
ATOM     28  O   UNL     1      15.359   7.121  19.707  0.00  0.00    -0.351 OA
BRANCH  28  29
ATOM     29  C   UNL     1      15.928   6.653  19.339  0.00  0.00    +0.168 C 
BRANCH  29  30
ATOM     30  C   UNL     1      16.725   6.742  19.534  0.00  0.00    +0.006 C 
ATOM     31  C   UNL     1      17.047   6.316  20.162  0.00  0.00    -0.002 C 
ENDBRANCH  29  30
ENDBRANCH  28  29
ENDBRANCH  16  28
TORSDOF 12
ENDMDL
MODEL 9
REMARK VINA RESULT:      -7.6      2.057      4.570
REMARK  Name = 
REMARK  12 active torsions:
REMARK  status: ('A' for Active; 'I' for Inactive)
REMARK    1  A    between atoms: C_2  and  C_4
REMARK    2  A    between atoms: C_4  and  C_5
REMARK    3  A    between atoms: C_4  and  N_11
REMARK    4  A    between atoms: C_5  and  C_6
REMARK    5  A    between atoms: C_12  and  C_14
REMARK    6  A    between atoms: C_16  and  O_28
REMARK    7  A    between atoms: C_20  and  C_22
REMARK    8  A    between atoms: C_22  and  O_23
REMARK    9  A    between atoms: O_23  and  C_24
REMARK   10  A    between atoms: C_24  and  C_25
REMARK   11  A    between atoms: O_28  and  C_29
REMARK   12  A    between atoms: C_29  and  C_30
REMARK                            x       y       z     vdW  Elec       q    Type
REMARK                         _______ _______ _______ _____ _____    ______ ____
ROOT
ATOM     14  C   UNL     1      -3.091   0.402  24.550  0.00  0.00    +0.156 C 
ATOM     15  C   UNL     1      -2.937  -0.393  24.712  0.00  0.00    +0.059 C 
ATOM     16  C   UNL     1      -3.536  -0.876  25.010  0.00  0.00    +0.120 C 
ATOM     17  C   UNL     1      -4.289  -0.564  25.146  0.00  0.00    +0.051 C 
ATOM     18  C   UNL     1      -4.441   0.230  24.983  0.00  0.00    +0.096 C 
ATOM     19  N   UNL     1      -3.842   0.713  24.686  0.00  0.00    -0.271 N 
ATOM     20  C   UNL     1      -3.995   1.506  24.524  0.00  0.00    +0.256 C 
ATOM     21  O   UNL     1      -3.396   1.990  24.225  0.00  0.00    -0.272 OA
ENDROOT
BRANCH  14  12
ATOM     11  N   UNL     1      -1.753   0.901  24.620  0.00  0.00    -0.196 NA
ATOM     12  C   UNL     1      -2.492   0.885  24.252  0.00  0.00    +0.260 C 
ATOM     13  O   UNL     1      -2.631   1.352  23.587  0.00  0.00    -0.272 OA
BRANCH  11   4
ATOM      4  C   UNL     1      -1.154   1.384  24.322  0.00  0.00    +0.179 C 
BRANCH   4   2
ATOM      1  N   UNL     1      -0.239   0.374  23.892  0.00  0.00    -0.086 NA
ATOM      2  C   UNL     1      -0.629   1.089  23.758  0.00  0.00    +0.281 C 
ATOM      3  O   UNL     1      -0.493   1.509  23.062  0.00  0.00    -0.270 OA
ENDBRANCH   4   2
BRANCH   4   5
ATOM      5  C   UNL     1      -1.081   2.162  24.588  0.00  0.00    +0.064 C 
BRANCH   5   6
ATOM      6  C   UNL     1      -0.633   2.327  25.260  0.00  0.00    +0.010 A 
ATOM      7  C   UNL     1      -0.543   1.834  25.916  0.00  0.00    +0.003 A 
ATOM      8  C   UNL     1      -0.050   2.217  26.457  0.00  0.00    +0.007 A 
ATOM      9  C   UNL     1       0.165   2.945  26.134  0.00  0.00    +0.035 A 
ATOM     10  S   UNL     1      -0.195   3.013  25.394  0.00  0.00    -0.091 S 
ENDBRANCH   5   6
ENDBRANCH   4   5
ENDBRANCH  11   4
ENDBRANCH  14  12
BRANCH  20  22
ATOM     22  C   UNL     1      -4.747   1.819  24.659  0.00  0.00    +0.228 C 
BRANCH  22  23
ATOM     23  O   UNL     1      -4.829   2.563  25.003  0.00  0.00    -0.333 OA
BRANCH  23  24
ATOM     24  C   UNL     1      -5.581   2.863  25.165  0.00  0.00    +0.257 C 
BRANCH  24  25
ATOM     25  C   UNL     1      -5.685   3.408  25.774  0.00  0.00    +0.394 C 
ATOM     26  O   UNL     1      -5.722   4.215  25.605  0.00  0.00    -0.243 OA
ATOM     27  O   UNL     1      -5.754   3.147  26.555  0.00  0.00    -0.243 OA
ENDBRANCH  24  25
ENDBRANCH  23  24
ENDBRANCH  22  23
ENDBRANCH  20  22
BRANCH  16  28
ATOM     28  O   UNL     1      -3.383  -1.671  25.172  0.00  0.00    -0.351 OA
BRANCH  28  29
ATOM     29  C   UNL     1      -3.593  -2.251  24.626  0.00  0.00    +0.168 C 
BRANCH  29  30
ATOM     30  C   UNL     1      -3.376  -3.036  24.753  0.00  0.00    +0.006 C 
ATOM     31  C   UNL     1      -3.519  -3.604  24.172  0.00  0.00    -0.002 C 
ENDBRANCH  29  30
ENDBRANCH  28  29
ENDBRANCH  16  28
TORSDOF 12
ENDMDL
MODEL 10
REMARK VINA RESULT:      -6.0     13.969     16.954
REMARK  Name = 
REMARK  12 active torsions:
REMARK  status: ('A' for Active; 'I' for Inactive)
REMARK    1  A    between atoms: C_2  and  C_4
REMARK    2  A    between atoms: C_4  and  C_5
REMARK    3  A    between atoms: C_4  and  N_11
REMARK    4  A    between atoms: C_5  and  C_6
REMARK    5  A    between atoms: C_12  and  C_14
REMARK    6  A    between atoms: C_16  and  O_28
REMARK    7  A    between atoms: C_20  and  C_22
REMARK    8  A    between atoms: C_22  and  O_23
REMARK    9  A    between atoms: O_23  and  C_24
REMARK   10  A    between atoms: C_24  and  C_25
REMARK   11  A    between atoms: O_28  and  C_29
REMARK   12  A    between atoms: C_29  and  C_30
REMARK                            x       y       z     vdW  Elec       q    Type
REMARK                         _______ _______ _______ _____ _____    ______ ____
ROOT
ATOM     14  C   UNL     1      12.930   8.002  19.918  0.00  0.00    +0.156 C 
ATOM     15  C   UNL     1      12.256   7.542  20.038  0.00  0.00    +0.059 C 
ATOM     16  C   UNL     1      12.122   7.190  20.772  0.00  0.00    +0.120 C 
ATOM     17  C   UNL     1      12.663   7.298  21.386  0.00  0.00    +0.051 C 
ATOM     18  C   UNL     1      13.338   7.758  21.265  0.00  0.00    +0.096 C 
ATOM     19  N   UNL     1      13.471   8.109  20.531  0.00  0.00    -0.271 N 
ATOM     20  C   UNL     1      14.145   8.568  20.410  0.00  0.00    +0.256 C 
ATOM     21  O   UNL     1      14.279   8.920  19.675  0.00  0.00    -0.272 OA
ENDROOT
BRANCH  14  12
ATOM     11  N   UNL     1      12.808   7.979  18.494  0.00  0.00    -0.196 NA
ATOM     12  C   UNL     1      13.064   8.354  19.183  0.00  0.00    +0.260 C 
ATOM     13  O   UNL     1      13.453   9.079  19.138  0.00  0.00    -0.272 OA
BRANCH  11   4
ATOM      4  C   UNL     1      12.941   8.330  17.759  0.00  0.00    +0.179 C 
BRANCH   4   2
ATOM      1  N   UNL     1      14.081   8.540  16.924  0.00  0.00    -0.086 NA
ATOM      2  C   UNL     1      13.525   8.031  17.258  0.00  0.00    +0.281 C 
ATOM      3  O   UNL     1      13.552   7.224  17.092  0.00  0.00    -0.270 OA
ENDBRANCH   4   2
BRANCH   4   5
ATOM      5  C   UNL     1      12.491   8.982  17.525  0.00  0.00    +0.064 C 
BRANCH   5   6
ATOM      6  C   UNL     1      11.806   8.871  17.080  0.00  0.00    +0.010 A 
ATOM      7  C   UNL     1      11.108   8.519  17.343  0.00  0.00    +0.003 A 
ATOM      8  C   UNL     1      10.569   8.523  16.718  0.00  0.00    +0.007 A 
ATOM      9  C   UNL     1      10.934   8.878  16.069  0.00  0.00    +0.035 A 
ATOM     10  S   UNL     1      11.699   9.093  16.293  0.00  0.00    -0.091 S 
ENDBRANCH   5   6
ENDBRANCH   4   5
ENDBRANCH  11   4
ENDBRANCH  14  12
BRANCH  20  22
ATOM     22  C   UNL     1      14.687   8.677  21.023  0.00  0.00    +0.228 C 
BRANCH  22  23
ATOM     23  O   UNL     1      15.488   8.774  20.854  0.00  0.00    -0.333 OA
BRANCH  23  24
ATOM     24  C   UNL     1      16.045   8.744  21.462  0.00  0.00    +0.257 C 
BRANCH  24  25
ATOM     25  C   UNL     1      16.850   8.744  21.285  0.00  0.00    +0.394 C 
ATOM     26  O   UNL     1      17.102   8.639  20.506  0.00  0.00    -0.243 OA
ATOM     27  O   UNL     1      17.405   8.848  21.887  0.00  0.00    -0.243 OA
ENDBRANCH  24  25
ENDBRANCH  23  24
ENDBRANCH  22  23
ENDBRANCH  20  22
BRANCH  16  28
ATOM     28  O   UNL     1      11.447   6.731  20.893  0.00  0.00    -0.351 OA
BRANCH  28  29
ATOM     29  C   UNL     1      11.492   6.044  21.346  0.00  0.00    +0.168 C 
BRANCH  29  30
ATOM     30  C   UNL     1      10.806   5.712  21.663  0.00  0.00    +0.006 C 
ATOM     31  C   UNL     1      10.693   4.895  21.637  0.00  0.00    -0.002 C 
ENDBRANCH  29  30
ENDBRANCH  28  29
ENDBRANCH  16  28
TORSDOF 12
ENDMDL
